MODEL        1
REMARK 921   NORMALIZED FREE ENERGY PREDICTED BY IDOCK:   -5.65 KCAL/MOL
REMARK 922        TOTAL FREE ENERGY PREDICTED BY IDOCK:   -8.11 KCAL/MOL
REMARK 923 INTER-LIGAND FREE ENERGY PREDICTED BY IDOCK:   -7.63 KCAL/MOL
REMARK 924 INTRA-LIGAND FREE ENERGY PREDICTED BY IDOCK:   -0.48 KCAL/MOL
REMARK 927      BINDING AFFINITY PREDICTED BY RF-SCORE:    0.00 PKD
ROOT
HETATM    1  C   UNL     1     -10.608  11.969  63.437  1.00  0.00    -0.478 C  
HETATM    2  C   UNL     1     -12.043  12.263  63.873  1.00  0.00    -0.506 C  
ENDROOT
BRANCH   2   3
HETATM    3  N   UNL     1     -12.247  12.308  65.331  1.00  0.00    -0.558 NA 
BRANCH   3   4
HETATM    4  C   UNL     1     -11.052  11.915  66.107  1.00  0.00    -0.326 C  
HETATM    5  C   UNL     1     -11.277  10.942  67.265  1.00  0.00    -0.307 C  
ENDBRANCH   3   4
BRANCH   3   6
HETATM    6  C   UNL     1     -12.737  13.638  65.771  1.00  0.00    -0.416 C  
BRANCH   6   7
HETATM    7  C   UNL     1     -11.742  14.490  66.581  1.00  0.00    -0.371 C  
BRANCH   7   8
HETATM    8  N   UNL     1     -12.210  14.762  67.924  1.00  0.00    -0.572 N  
HETATM    9  C   UNL     1     -11.448  14.408  69.018  1.00  0.00    -0.283 C  
HETATM   10  H   UNL     1     -13.111  15.219  68.063  1.00  0.00     0.000 HD 
HETATM   11  O   UNL     1     -10.377  13.815  68.925  1.00  0.00    -0.219 OA 
BRANCH   9  12
HETATM   12  C   UNL     1     -11.970  14.800  70.355  1.00  0.00    -0.368 A  
HETATM   13  C   UNL     1     -12.954  14.056  71.015  1.00  0.00    -0.378 A  
HETATM   14  C   UNL     1     -13.405  14.456  72.277  1.00  0.00    -0.512 A  
HETATM   15  C   UNL     1     -12.911  15.615  72.883  1.00  0.00    -0.471 A  
HETATM   16  C   UNL     1     -11.871  16.307  72.256  1.00  0.00    -0.601 A  
HETATM   17  N   UNL     1     -13.282  15.937  74.192  1.00  0.00    -0.805 NA 
HETATM   18  H2  UNL     1     -13.063  15.142  74.793  1.00  0.00     0.000 HD 
HETATM   19  H1  UNL     1     -12.921  16.783  74.635  1.00  0.00     0.000 HD 
HETATM   20  C   UNL     1     -11.414  15.915  70.993  1.00  0.00    -0.461 A  
ENDBRANCH   9  12
ENDBRANCH   7   8
ENDBRANCH   6   7
ENDBRANCH   3   6
ENDBRANCH   2   3
TORSDOF 6
ENDMDL
MODEL        2
REMARK 921   NORMALIZED FREE ENERGY PREDICTED BY IDOCK:   -5.62 KCAL/MOL
REMARK 922        TOTAL FREE ENERGY PREDICTED BY IDOCK:   -8.07 KCAL/MOL
REMARK 923 INTER-LIGAND FREE ENERGY PREDICTED BY IDOCK:   -7.70 KCAL/MOL
REMARK 924 INTRA-LIGAND FREE ENERGY PREDICTED BY IDOCK:   -0.37 KCAL/MOL
REMARK 927      BINDING AFFINITY PREDICTED BY RF-SCORE:    0.00 PKD
ROOT
HETATM    1  C   UNL     1     -11.832  13.022  63.522  1.00  0.00    -0.582 C  
HETATM    2  C   UNL     1     -12.090  14.248  64.396  1.00  0.00    -0.468 C  
ENDROOT
BRANCH   2   3
HETATM    3  N   UNL     1     -10.901  14.772  65.091  1.00  0.00    -0.375 NA 
BRANCH   3   4
HETATM    4  C   UNL     1     -10.775  16.243  65.021  1.00  0.00    -0.298 C  
HETATM    5  C   UNL     1     -10.312  16.951  66.295  1.00  0.00    -0.312 C  
ENDBRANCH   3   4
BRANCH   3   6
HETATM    6  C   UNL     1     -10.850  14.313  66.502  1.00  0.00    -0.304 C  
BRANCH   6   7
HETATM    7  C   UNL     1     -12.179  13.811  67.096  1.00  0.00    -0.313 C  
BRANCH   7   8
HETATM    8  N   UNL     1     -12.444  14.362  68.408  1.00  0.00    -0.538 N  
HETATM    9  C   UNL     1     -12.120  13.653  69.546  1.00  0.00    -0.314 C  
HETATM   10  H   UNL     1     -12.874  15.283  68.492  1.00  0.00     0.000 HD 
HETATM   11  O   UNL     1     -11.644  12.522  69.518  1.00  0.00    -0.284 OA 
BRANCH   9  12
HETATM   12  C   UNL     1     -12.353  14.332  70.849  1.00  0.00    -0.429 A  
HETATM   13  C   UNL     1     -13.359  13.922  71.731  1.00  0.00    -0.461 A  
HETATM   14  C   UNL     1     -13.532  14.584  72.951  1.00  0.00    -0.525 A  
HETATM   15  C   UNL     1     -12.734  15.679  73.295  1.00  0.00    -0.510 A  
HETATM   16  C   UNL     1     -11.680  16.031  72.448  1.00  0.00    -0.573 A  
HETATM   17  N   UNL     1     -12.839  16.254  74.566  1.00  0.00    -0.971 NA 
HETATM   18  H2  UNL     1     -12.698  15.522  75.262  1.00  0.00     0.000 HD 
HETATM   19  H1  UNL     1     -12.256  17.053  74.817  1.00  0.00     0.000 HD 
HETATM   20  C   UNL     1     -11.499  15.376  71.225  1.00  0.00    -0.444 A  
ENDBRANCH   9  12
ENDBRANCH   7   8
ENDBRANCH   6   7
ENDBRANCH   3   6
ENDBRANCH   2   3
TORSDOF 6
ENDMDL
MODEL        3
REMARK 921   NORMALIZED FREE ENERGY PREDICTED BY IDOCK:   -5.52 KCAL/MOL
REMARK 922        TOTAL FREE ENERGY PREDICTED BY IDOCK:   -7.93 KCAL/MOL
REMARK 923 INTER-LIGAND FREE ENERGY PREDICTED BY IDOCK:   -7.64 KCAL/MOL
REMARK 924 INTRA-LIGAND FREE ENERGY PREDICTED BY IDOCK:   -0.29 KCAL/MOL
REMARK 927      BINDING AFFINITY PREDICTED BY RF-SCORE:    0.00 PKD
ROOT
HETATM    1  C   UNL     1      -9.116  10.839  65.420  1.00  0.00    -0.216 C  
HETATM    2  C   UNL     1     -10.431  11.608  65.535  1.00  0.00    -0.273 C  
ENDROOT
BRANCH   2   3
HETATM    3  N   UNL     1     -10.316  13.061  65.321  1.00  0.00    -0.300 NA 
BRANCH   3   4
HETATM    4  C   UNL     1     -11.148  13.562  64.206  1.00  0.00    -0.351 C  
HETATM    5  C   UNL     1     -11.989  12.525  63.460  1.00  0.00    -0.629 C  
ENDBRANCH   3   4
BRANCH   3   6
HETATM    6  C   UNL     1     -10.605  13.818  66.565  1.00  0.00    -0.279 C  
BRANCH   6   7
HETATM    7  C   UNL     1     -12.094  14.006  66.910  1.00  0.00    -0.430 C  
BRANCH   7   8
HETATM    8  N   UNL     1     -12.292  14.543  68.240  1.00  0.00    -0.595 N  
HETATM    9  C   UNL     1     -12.190  13.728  69.348  1.00  0.00    -0.278 C  
HETATM   10  H   UNL     1     -12.509  15.533  68.358  1.00  0.00     0.000 HD 
HETATM   11  O   UNL     1     -11.979  12.521  69.276  1.00  0.00    -0.296 OA 
BRANCH   9  12
HETATM   12  C   UNL     1     -12.329  14.383  70.677  1.00  0.00    -0.422 A  
HETATM   13  C   UNL     1     -11.733  15.615  70.964  1.00  0.00    -0.444 A  
HETATM   14  C   UNL     1     -11.902  16.198  72.225  1.00  0.00    -0.631 A  
HETATM   15  C   UNL     1     -12.634  15.550  73.224  1.00  0.00    -0.499 A  
HETATM   16  C   UNL     1     -13.294  14.361  72.905  1.00  0.00    -0.575 A  
HETATM   17  N   UNL     1     -12.894  16.198  74.436  1.00  0.00    -0.970 NA 
HETATM   18  H2  UNL     1     -13.346  17.090  74.234  1.00  0.00     0.000 HD 
HETATM   19  H1  UNL     1     -13.429  15.725  75.165  1.00  0.00     0.000 HD 
HETATM   20  C   UNL     1     -13.131  13.770  71.648  1.00  0.00    -0.456 A  
ENDBRANCH   9  12
ENDBRANCH   7   8
ENDBRANCH   6   7
ENDBRANCH   3   6
ENDBRANCH   2   3
TORSDOF 6
ENDMDL
MODEL        4
REMARK 921   NORMALIZED FREE ENERGY PREDICTED BY IDOCK:   -5.50 KCAL/MOL
REMARK 922        TOTAL FREE ENERGY PREDICTED BY IDOCK:   -7.90 KCAL/MOL
REMARK 923 INTER-LIGAND FREE ENERGY PREDICTED BY IDOCK:   -7.67 KCAL/MOL
REMARK 924 INTRA-LIGAND FREE ENERGY PREDICTED BY IDOCK:   -0.24 KCAL/MOL
REMARK 927      BINDING AFFINITY PREDICTED BY RF-SCORE:    0.00 PKD
ROOT
HETATM    1  C   UNL     1     -13.524  12.904  72.086  1.00  0.00    -0.619 C  
HETATM    2  C   UNL     1     -14.329  14.202  72.028  1.00  0.00    -0.512 C  
ENDROOT
BRANCH   2   3
HETATM    3  N   UNL     1     -13.517  15.431  72.019  1.00  0.00    -0.427 NA 
BRANCH   3   4
HETATM    4  C   UNL     1     -13.369  16.051  73.353  1.00  0.00    -0.487 C  
HETATM    5  C   UNL     1     -12.351  15.411  74.297  1.00  0.00    -0.807 C  
ENDBRANCH   3   4
BRANCH   3   6
HETATM    6  C   UNL     1     -12.185  15.198  71.406  1.00  0.00    -0.339 C  
BRANCH   6   7
HETATM    7  C   UNL     1     -12.096  15.415  69.884  1.00  0.00    -0.355 C  
BRANCH   7   8
HETATM    8  N   UNL     1     -11.221  16.514  69.530  1.00  0.00    -0.314 N  
HETATM    9  C   UNL     1     -10.766  16.660  68.237  1.00  0.00    -0.351 C  
HETATM   10  H   UNL     1     -10.939  17.185  70.244  1.00  0.00     0.000 HD 
HETATM   11  O   UNL     1     -11.028  15.864  67.340  1.00  0.00    -0.318 OA 
BRANCH   9  12
HETATM   12  C   UNL     1      -9.939  17.862  67.948  1.00  0.00    -0.329 A  
HETATM   13  C   UNL     1     -10.478  19.012  67.362  1.00  0.00    -0.539 A  
HETATM   14  C   UNL     1      -9.662  20.123  67.121  1.00  0.00    -0.576 A  
HETATM   15  C   UNL     1      -8.299  20.094  67.428  1.00  0.00    -0.338 A  
HETATM   16  C   UNL     1      -7.785  18.975  68.088  1.00  0.00    -0.326 A  
HETATM   17  N   UNL     1      -7.524  21.251  67.293  1.00  0.00    -0.732 NA 
HETATM   18  H2  UNL     1      -7.960  21.995  67.837  1.00  0.00     0.000 HD 
HETATM   19  H1  UNL     1      -6.528  21.230  67.517  1.00  0.00     0.000 HD 
HETATM   20  C   UNL     1      -8.592  17.859  68.332  1.00  0.00    -0.296 A  
ENDBRANCH   9  12
ENDBRANCH   7   8
ENDBRANCH   6   7
ENDBRANCH   3   6
ENDBRANCH   2   3
TORSDOF 6
ENDMDL
MODEL        5
REMARK 921   NORMALIZED FREE ENERGY PREDICTED BY IDOCK:   -5.49 KCAL/MOL
REMARK 922        TOTAL FREE ENERGY PREDICTED BY IDOCK:   -7.89 KCAL/MOL
REMARK 923 INTER-LIGAND FREE ENERGY PREDICTED BY IDOCK:   -7.52 KCAL/MOL
REMARK 924 INTRA-LIGAND FREE ENERGY PREDICTED BY IDOCK:   -0.36 KCAL/MOL
REMARK 927      BINDING AFFINITY PREDICTED BY RF-SCORE:    0.00 PKD
ROOT
HETATM    1  C   UNL     1     -13.838  13.023  72.317  1.00  0.00    -0.529 C  
HETATM    2  C   UNL     1     -14.375  14.424  72.029  1.00  0.00    -0.553 C  
ENDROOT
BRANCH   2   3
HETATM    3  N   UNL     1     -13.349  15.480  71.986  1.00  0.00    -0.442 NA 
BRANCH   3   4
HETATM    4  C   UNL     1     -12.207  15.233  72.891  1.00  0.00    -0.408 C  
HETATM    5  C   UNL     1     -12.357  15.724  74.332  1.00  0.00    -0.796 C  
ENDBRANCH   3   4
BRANCH   3   6
HETATM    6  C   UNL     1     -12.870  15.717  70.600  1.00  0.00    -0.350 C  
BRANCH   6   7
HETATM    7  C   UNL     1     -11.633  14.909  70.167  1.00  0.00    -0.289 C  
BRANCH   7   8
HETATM    8  N   UNL     1     -11.840  14.205  68.918  1.00  0.00    -0.331 N  
HETATM    9  C   UNL     1     -11.532  14.805  67.715  1.00  0.00    -0.345 C  
HETATM   10  H   UNL     1     -12.217  13.257  68.929  1.00  0.00     0.000 HD 
HETATM   11  O   UNL     1     -11.120  15.957  67.627  1.00  0.00    -0.323 OA 
BRANCH   9  12
HETATM   12  C   UNL     1     -11.701  13.977  66.490  1.00  0.00    -0.412 A  
HETATM   13  C   UNL     1     -12.002  14.543  65.247  1.00  0.00    -0.353 A  
HETATM   14  C   UNL     1     -12.139  13.725  64.120  1.00  0.00    -0.478 A  
HETATM   15  C   UNL     1     -12.013  12.337  64.220  1.00  0.00    -0.407 A  
HETATM   16  C   UNL     1     -11.632  11.786  65.447  1.00  0.00    -0.190 A  
HETATM   17  N   UNL     1     -12.033  11.544  63.068  1.00  0.00    -0.908 NA 
HETATM   18  H2  UNL     1     -11.315  11.887  62.429  1.00  0.00     0.000 HD 
HETATM   19  H1  UNL     1     -11.941  10.530  63.141  1.00  0.00     0.000 HD 
HETATM   20  C   UNL     1     -11.493  12.595  66.579  1.00  0.00    -0.409 A  
ENDBRANCH   9  12
ENDBRANCH   7   8
ENDBRANCH   6   7
ENDBRANCH   3   6
ENDBRANCH   2   3
TORSDOF 6
ENDMDL
MODEL        6
REMARK 921   NORMALIZED FREE ENERGY PREDICTED BY IDOCK:   -5.45 KCAL/MOL
REMARK 922        TOTAL FREE ENERGY PREDICTED BY IDOCK:   -7.84 KCAL/MOL
REMARK 923 INTER-LIGAND FREE ENERGY PREDICTED BY IDOCK:   -7.23 KCAL/MOL
REMARK 924 INTRA-LIGAND FREE ENERGY PREDICTED BY IDOCK:   -0.61 KCAL/MOL
REMARK 927      BINDING AFFINITY PREDICTED BY RF-SCORE:    0.00 PKD
ROOT
HETATM    1  C   UNL     1     -11.684  13.943  68.272  1.00  0.00    -0.396 C  
HETATM    2  C   UNL     1     -12.159  13.905  66.821  1.00  0.00    -0.439 C  
ENDROOT
BRANCH   2   3
HETATM    3  N   UNL     1     -11.998  12.601  66.154  1.00  0.00    -0.521 NA 
BRANCH   3   4
HETATM    4  C   UNL     1     -12.641  12.534  64.825  1.00  0.00    -0.413 C  
HETATM    5  C   UNL     1     -11.724  12.690  63.611  1.00  0.00    -0.597 C  
ENDBRANCH   3   4
BRANCH   3   6
HETATM    6  C   UNL     1     -10.568  12.212  66.058  1.00  0.00    -0.257 C  
BRANCH   6   7
HETATM    7  C   UNL     1     -10.205  10.829  66.629  1.00  0.00    -0.233 C  
BRANCH   7   8
HETATM    8  N   UNL     1     -11.025  10.465  67.765  1.00  0.00    -0.294 N  
HETATM    9  C   UNL     1     -10.469  10.338  69.020  1.00  0.00    -0.217 C  
HETATM   10  H   UNL     1     -12.024  10.300  67.636  1.00  0.00     0.000 HD 
HETATM   11  O   UNL     1      -9.269  10.476  69.239  1.00  0.00    -0.191 OA 
BRANCH   9  12
HETATM   12  C   UNL     1     -11.401  10.041  70.141  1.00  0.00    -0.357 A  
HETATM   13  C   UNL     1     -12.261  11.009  70.669  1.00  0.00    -0.481 A  
HETATM   14  C   UNL     1     -13.130  10.679  71.715  1.00  0.00    -0.571 A  
HETATM   15  C   UNL     1     -13.130   9.396  72.271  1.00  0.00    -0.428 A  
HETATM   16  C   UNL     1     -12.329   8.413  71.686  1.00  0.00    -0.359 A  
HETATM   17  N   UNL     1     -14.085   9.048  73.232  1.00  0.00    -1.211 NA 
HETATM   18  H2  UNL     1     -15.011   9.232  72.848  1.00  0.00     0.000 HD 
HETATM   19  H1  UNL     1     -14.085   8.111  73.638  1.00  0.00     0.000 HD 
HETATM   20  C   UNL     1     -11.456   8.734  70.640  1.00  0.00    -0.263 A  
ENDBRANCH   9  12
ENDBRANCH   7   8
ENDBRANCH   6   7
ENDBRANCH   3   6
ENDBRANCH   2   3
TORSDOF 6
ENDMDL
MODEL        7
REMARK 921   NORMALIZED FREE ENERGY PREDICTED BY IDOCK:   -5.36 KCAL/MOL
REMARK 922        TOTAL FREE ENERGY PREDICTED BY IDOCK:   -7.72 KCAL/MOL
REMARK 923 INTER-LIGAND FREE ENERGY PREDICTED BY IDOCK:   -7.38 KCAL/MOL
REMARK 924 INTRA-LIGAND FREE ENERGY PREDICTED BY IDOCK:   -0.33 KCAL/MOL
REMARK 927      BINDING AFFINITY PREDICTED BY RF-SCORE:    0.00 PKD
ROOT
HETATM    1  C   UNL     1     -13.938   8.088  71.734  1.00  0.00    -0.482 C  
HETATM    2  C   UNL     1     -13.618   9.571  71.915  1.00  0.00    -0.391 C  
ENDROOT
BRANCH   2   3
HETATM    3  N   UNL     1     -12.207   9.929  71.686  1.00  0.00    -0.401 NA 
BRANCH   3   4
HETATM    4  C   UNL     1     -11.368   8.786  71.268  1.00  0.00    -0.291 C  
HETATM    5  C   UNL     1     -10.137   8.490  72.126  1.00  0.00    -0.393 C  
ENDBRANCH   3   4
BRANCH   3   6
HETATM    6  C   UNL     1     -12.080  11.047  70.717  1.00  0.00    -0.366 C  
BRANCH   6   7
HETATM    7  C   UNL     1     -11.812  10.647  69.255  1.00  0.00    -0.237 C  
BRANCH   7   8
HETATM    8  N   UNL     1     -11.789  11.787  68.363  1.00  0.00    -0.311 N  
HETATM    9  C   UNL     1     -11.231  11.684  67.106  1.00  0.00    -0.309 C  
HETATM   10  H   UNL     1     -12.190  12.675  68.667  1.00  0.00     0.000 HD 
HETATM   11  O   UNL     1     -10.692  10.661  66.694  1.00  0.00    -0.239 OA 
BRANCH   9  12
HETATM   12  C   UNL     1     -11.325  12.882  66.229  1.00  0.00    -0.364 A  
HETATM   13  C   UNL     1     -12.445  13.130  65.428  1.00  0.00    -0.535 A  
HETATM   14  C   UNL     1     -12.493  14.278  64.629  1.00  0.00    -0.371 A  
HETATM   15  C   UNL     1     -11.419  15.173  64.591  1.00  0.00    -0.362 A  
HETATM   16  C   UNL     1     -10.341  14.962  65.454  1.00  0.00    -0.413 A  
HETATM   17  N   UNL     1     -11.531  16.373  63.882  1.00  0.00    -1.618 NA 
HETATM   18  H2  UNL     1     -12.353  16.873  64.221  1.00  0.00     0.000 HD 
HETATM   19  H1  UNL     1     -10.747  17.027  63.854  1.00  0.00     0.000 HD 
HETATM   20  C   UNL     1     -10.283  13.817  66.256  1.00  0.00    -0.298 A  
ENDBRANCH   9  12
ENDBRANCH   7   8
ENDBRANCH   6   7
ENDBRANCH   3   6
ENDBRANCH   2   3
TORSDOF 6
ENDMDL
MODEL        8
REMARK 921   NORMALIZED FREE ENERGY PREDICTED BY IDOCK:   -5.32 KCAL/MOL
REMARK 922        TOTAL FREE ENERGY PREDICTED BY IDOCK:   -7.66 KCAL/MOL
REMARK 923 INTER-LIGAND FREE ENERGY PREDICTED BY IDOCK:   -7.31 KCAL/MOL
REMARK 924 INTRA-LIGAND FREE ENERGY PREDICTED BY IDOCK:   -0.35 KCAL/MOL
REMARK 927      BINDING AFFINITY PREDICTED BY RF-SCORE:    0.00 PKD
ROOT
HETATM    1  C   UNL     1      -9.308  10.039  64.178  1.00  0.00    -0.335 C  
HETATM    2  C   UNL     1     -10.169  10.811  65.178  1.00  0.00    -0.298 C  
ENDROOT
BRANCH   2   3
HETATM    3  N   UNL     1     -10.361  12.236  64.854  1.00  0.00    -0.283 NA 
BRANCH   3   4
HETATM    4  C   UNL     1     -11.043  12.461  63.562  1.00  0.00    -0.458 C  
HETATM    5  C   UNL     1     -12.496  11.996  63.464  1.00  0.00    -0.654 C  
ENDBRANCH   3   4
BRANCH   3   6
HETATM    6  C   UNL     1     -11.070  12.950  65.946  1.00  0.00    -0.283 C  
BRANCH   6   7
HETATM    7  C   UNL     1     -11.464  12.097  67.166  1.00  0.00    -0.346 C  
BRANCH   7   8
HETATM    8  N   UNL     1     -12.023  12.890  68.241  1.00  0.00    -0.311 N  
HETATM    9  C   UNL     1     -11.868  12.500  69.554  1.00  0.00    -0.310 C  
HETATM   10  H   UNL     1     -12.535  13.745  68.024  1.00  0.00     0.000 HD 
HETATM   11  O   UNL     1     -11.305  11.460  69.883  1.00  0.00    -0.270 OA 
BRANCH   9  12
HETATM   12  C   UNL     1     -12.405  13.418  70.595  1.00  0.00    -0.423 A  
HETATM   13  C   UNL     1     -13.053  12.945  71.740  1.00  0.00    -0.458 A  
HETATM   14  C   UNL     1     -13.531  13.848  72.698  1.00  0.00    -0.652 A  
HETATM   15  C   UNL     1     -13.400  15.227  72.513  1.00  0.00    -0.453 A  
HETATM   16  C   UNL     1     -12.680  15.689  71.408  1.00  0.00    -0.535 A  
HETATM   17  N   UNL     1     -13.773  16.110  73.531  1.00  0.00    -0.843 NA 
HETATM   18  H2  UNL     1     -13.273  15.851  74.381  1.00  0.00     0.000 HD 
HETATM   19  H1  UNL     1     -13.678  17.118  73.397  1.00  0.00     0.000 HD 
HETATM   20  C   UNL     1     -12.200  14.795  70.446  1.00  0.00    -0.395 A  
ENDBRANCH   9  12
ENDBRANCH   7   8
ENDBRANCH   6   7
ENDBRANCH   3   6
ENDBRANCH   2   3
TORSDOF 6
ENDMDL
MODEL        9
REMARK 921   NORMALIZED FREE ENERGY PREDICTED BY IDOCK:   -5.31 KCAL/MOL
REMARK 922        TOTAL FREE ENERGY PREDICTED BY IDOCK:   -7.65 KCAL/MOL
REMARK 923 INTER-LIGAND FREE ENERGY PREDICTED BY IDOCK:   -7.33 KCAL/MOL
REMARK 924 INTRA-LIGAND FREE ENERGY PREDICTED BY IDOCK:   -0.32 KCAL/MOL
REMARK 927      BINDING AFFINITY PREDICTED BY RF-SCORE:    0.00 PKD
ROOT
HETATM    1  C   UNL     1     -12.597  16.231  73.634  1.00  0.00    -0.639 C  
HETATM    2  C   UNL     1     -12.850  14.739  73.426  1.00  0.00    -0.475 C  
ENDROOT
BRANCH   2   3
HETATM    3  N   UNL     1     -12.795  14.294  72.022  1.00  0.00    -0.340 NA 
BRANCH   3   4
HETATM    4  C   UNL     1     -13.672  13.140  71.733  1.00  0.00    -0.149 C  
HETATM    5  C   UNL     1     -13.057  11.751  71.913  1.00  0.00    -0.482 C  
ENDBRANCH   3   4
BRANCH   3   6
HETATM    6  C   UNL     1     -13.083  15.411  71.087  1.00  0.00    -0.498 C  
BRANCH   6   7
HETATM    7  C   UNL     1     -12.001  15.703  70.031  1.00  0.00    -0.368 C  
BRANCH   7   8
HETATM    8  N   UNL     1     -12.187  14.932  68.818  1.00  0.00    -0.587 N  
HETATM    9  C   UNL     1     -11.319  15.073  67.757  1.00  0.00    -0.330 C  
HETATM   10  H   UNL     1     -12.968  14.279  68.750  1.00  0.00     0.000 HD 
HETATM   11  O   UNL     1     -10.387  15.873  67.755  1.00  0.00    -0.265 OA 
BRANCH   9  12
HETATM   12  C   UNL     1     -11.540  14.183  66.586  1.00  0.00    -0.399 A  
HETATM   13  C   UNL     1     -11.561  12.790  66.705  1.00  0.00    -0.431 A  
HETATM   14  C   UNL     1     -11.786  11.993  65.577  1.00  0.00    -0.315 A  
HETATM   15  C   UNL     1     -11.958  12.568  64.315  1.00  0.00    -0.408 A  
HETATM   16  C   UNL     1     -12.018  13.960  64.216  1.00  0.00    -0.477 A  
HETATM   17  N   UNL     1     -12.300  11.768  63.219  1.00  0.00    -0.916 NA 
HETATM   18  H2  UNL     1     -13.144  11.247  63.453  1.00  0.00     0.000 HD 
HETATM   19  H1  UNL     1     -12.426  12.188  62.297  1.00  0.00     0.000 HD 
HETATM   20  C   UNL     1     -11.794  14.765  65.338  1.00  0.00    -0.249 A  
ENDBRANCH   9  12
ENDBRANCH   7   8
ENDBRANCH   6   7
ENDBRANCH   3   6
ENDBRANCH   2   3
TORSDOF 6
ENDMDL
MODEL       10
REMARK 921   NORMALIZED FREE ENERGY PREDICTED BY IDOCK:   -5.28 KCAL/MOL
REMARK 922        TOTAL FREE ENERGY PREDICTED BY IDOCK:   -7.61 KCAL/MOL
REMARK 923 INTER-LIGAND FREE ENERGY PREDICTED BY IDOCK:   -7.22 KCAL/MOL
REMARK 924 INTRA-LIGAND FREE ENERGY PREDICTED BY IDOCK:   -0.39 KCAL/MOL
REMARK 927      BINDING AFFINITY PREDICTED BY RF-SCORE:    0.00 PKD
ROOT
HETATM    1  C   UNL     1     -12.099  14.914  64.502  1.00  0.00    -0.420 C  
HETATM    2  C   UNL     1     -12.905  13.776  65.128  1.00  0.00    -0.340 C  
ENDROOT
BRANCH   2   3
HETATM    3  N   UNL     1     -12.201  12.483  65.188  1.00  0.00    -0.494 NA 
BRANCH   3   4
HETATM    4  C   UNL     1     -11.964  11.878  63.860  1.00  0.00    -0.402 C  
HETATM    5  C   UNL     1     -10.507  11.764  63.410  1.00  0.00    -0.485 C  
ENDBRANCH   3   4
BRANCH   3   6
HETATM    6  C   UNL     1     -10.927  12.592  65.943  1.00  0.00    -0.279 C  
BRANCH   6   7
HETATM    7  C   UNL     1     -10.924  11.972  67.353  1.00  0.00    -0.261 C  
BRANCH   7   8
HETATM    8  N   UNL     1     -11.496  12.855  68.348  1.00  0.00    -0.289 N  
HETATM    9  C   UNL     1     -11.794  12.388  69.611  1.00  0.00    -0.311 C  
HETATM   10  H   UNL     1     -11.680  13.830  68.113  1.00  0.00     0.000 HD 
HETATM   11  O   UNL     1     -11.642  11.217  69.947  1.00  0.00    -0.289 OA 
BRANCH   9  12
HETATM   12  C   UNL     1     -12.302  13.385  70.592  1.00  0.00    -0.423 A  
HETATM   13  C   UNL     1     -12.026  14.751  70.474  1.00  0.00    -0.373 A  
HETATM   14  C   UNL     1     -12.536  15.653  71.414  1.00  0.00    -0.519 A  
HETATM   15  C   UNL     1     -13.296  15.205  72.499  1.00  0.00    -0.441 A  
HETATM   16  C   UNL     1     -13.637  13.852  72.566  1.00  0.00    -0.680 A  
HETATM   17  N   UNL     1     -13.899  16.127  73.362  1.00  0.00    -0.788 NA 
HETATM   18  H2  UNL     1     -14.473  16.761  72.806  1.00  0.00     0.000 HD 
HETATM   19  H1  UNL     1     -14.454  15.801  74.154  1.00  0.00     0.000 HD 
HETATM   20  C   UNL     1     -13.131  12.943  71.631  1.00  0.00    -0.430 A  
ENDBRANCH   9  12
ENDBRANCH   7   8
ENDBRANCH   6   7
ENDBRANCH   3   6
ENDBRANCH   2   3
TORSDOF 6
ENDMDL
MODEL       11
REMARK 921   NORMALIZED FREE ENERGY PREDICTED BY IDOCK:   -5.24 KCAL/MOL
REMARK 922        TOTAL FREE ENERGY PREDICTED BY IDOCK:   -7.55 KCAL/MOL
REMARK 923 INTER-LIGAND FREE ENERGY PREDICTED BY IDOCK:   -7.27 KCAL/MOL
REMARK 924 INTRA-LIGAND FREE ENERGY PREDICTED BY IDOCK:   -0.28 KCAL/MOL
REMARK 927      BINDING AFFINITY PREDICTED BY RF-SCORE:    0.00 PKD
ROOT
HETATM    1  C   UNL     1     -10.824  15.837  64.971  1.00  0.00    -0.461 C  
HETATM    2  C   UNL     1     -11.913  14.902  64.445  1.00  0.00    -0.394 C  
ENDROOT
BRANCH   2   3
HETATM    3  N   UNL     1     -12.501  14.010  65.460  1.00  0.00    -0.487 NA 
BRANCH   3   4
HETATM    4  C   UNL     1     -12.692  12.623  64.987  1.00  0.00    -0.324 C  
HETATM    5  C   UNL     1     -12.315  12.337  63.532  1.00  0.00    -0.670 C  
ENDBRANCH   3   4
BRANCH   3   6
HETATM    6  C   UNL     1     -11.713  14.025  66.719  1.00  0.00    -0.407 C  
BRANCH   6   7
HETATM    7  C   UNL     1     -10.992  12.713  67.079  1.00  0.00    -0.265 C  
BRANCH   7   8
HETATM    8  N   UNL     1     -11.675  11.971  68.118  1.00  0.00    -0.336 N  
HETATM    9  C   UNL     1     -10.959  11.274  69.068  1.00  0.00    -0.236 C  
HETATM   10  H   UNL     1     -12.695  11.964  68.147  1.00  0.00     0.000 HD 
HETATM   11  O   UNL     1      -9.734  11.201  69.065  1.00  0.00    -0.181 OA 
BRANCH   9  12
HETATM   12  C   UNL     1     -11.743  10.608  70.143  1.00  0.00    -0.417 A  
HETATM   13  C   UNL     1     -11.628   9.239  70.408  1.00  0.00    -0.215 A  
HETATM   14  C   UNL     1     -12.377   8.660  71.438  1.00  0.00    -0.344 A  
HETATM   15  C   UNL     1     -13.271   9.424  72.194  1.00  0.00    -0.460 A  
HETATM   16  C   UNL     1     -13.320  10.804  71.979  1.00  0.00    -0.403 A  
HETATM   17  N   UNL     1     -13.922   8.859  73.296  1.00  0.00    -1.217 NA 
HETATM   18  H2  UNL     1     -13.216   8.475  73.924  1.00  0.00     0.000 HD 
HETATM   19  H1  UNL     1     -14.574   9.416  73.847  1.00  0.00     0.000 HD 
HETATM   20  C   UNL     1     -12.576  11.392  70.951  1.00  0.00    -0.453 A  
ENDBRANCH   9  12
ENDBRANCH   7   8
ENDBRANCH   6   7
ENDBRANCH   3   6
ENDBRANCH   2   3
TORSDOF 6
ENDMDL
MODEL       12
REMARK 921   NORMALIZED FREE ENERGY PREDICTED BY IDOCK:   -5.23 KCAL/MOL
REMARK 922        TOTAL FREE ENERGY PREDICTED BY IDOCK:   -7.54 KCAL/MOL
REMARK 923 INTER-LIGAND FREE ENERGY PREDICTED BY IDOCK:   -7.18 KCAL/MOL
REMARK 924 INTRA-LIGAND FREE ENERGY PREDICTED BY IDOCK:   -0.36 KCAL/MOL
REMARK 927      BINDING AFFINITY PREDICTED BY RF-SCORE:    0.00 PKD
ROOT
HETATM    1  C   UNL     1      -8.810  11.175  66.307  1.00  0.00    -0.190 C  
HETATM    2  C   UNL     1     -10.336  11.204  66.230  1.00  0.00    -0.249 C  
ENDROOT
BRANCH   2   3
HETATM    3  N   UNL     1     -10.889  12.238  65.338  1.00  0.00    -0.277 NA 
BRANCH   3   4
HETATM    4  C   UNL     1     -11.272  11.727  64.006  1.00  0.00    -0.385 C  
HETATM    5  C   UNL     1     -12.656  12.125  63.492  1.00  0.00    -0.621 C  
ENDBRANCH   3   4
BRANCH   3   6
HETATM    6  C   UNL     1     -12.031  12.947  65.970  1.00  0.00    -0.446 C  
BRANCH   6   7
HETATM    7  C   UNL     1     -11.771  14.405  66.391  1.00  0.00    -0.386 C  
BRANCH   7   8
HETATM    8  N   UNL     1     -12.254  14.692  67.725  1.00  0.00    -0.596 N  
HETATM    9  C   UNL     1     -11.481  14.404  68.830  1.00  0.00    -0.289 C  
HETATM   10  H   UNL     1     -13.176  15.112  67.849  1.00  0.00     0.000 HD 
HETATM   11  O   UNL     1     -10.384  13.857  68.756  1.00  0.00    -0.237 OA 
BRANCH   9  12
HETATM   12  C   UNL     1     -12.025  14.808  70.154  1.00  0.00    -0.367 A  
HETATM   13  C   UNL     1     -13.082  14.123  70.763  1.00  0.00    -0.289 A  
HETATM   14  C   UNL     1     -13.552  14.533  72.016  1.00  0.00    -0.509 A  
HETATM   15  C   UNL     1     -13.002  15.644  72.662  1.00  0.00    -0.460 A  
HETATM   16  C   UNL     1     -11.894  16.272  72.087  1.00  0.00    -0.585 A  
HETATM   17  N   UNL     1     -13.399  15.968  73.963  1.00  0.00    -0.848 NA 
HETATM   18  H2  UNL     1     -13.258  15.150  74.556  1.00  0.00     0.000 HD 
HETATM   19  H1  UNL     1     -12.997  16.779  74.435  1.00  0.00     0.000 HD 
HETATM   20  C   UNL     1     -11.417  15.870  70.834  1.00  0.00    -0.444 A  
ENDBRANCH   9  12
ENDBRANCH   7   8
ENDBRANCH   6   7
ENDBRANCH   3   6
ENDBRANCH   2   3
TORSDOF 6
ENDMDL
MODEL       13
REMARK 921   NORMALIZED FREE ENERGY PREDICTED BY IDOCK:   -5.21 KCAL/MOL
REMARK 922        TOTAL FREE ENERGY PREDICTED BY IDOCK:   -7.52 KCAL/MOL
REMARK 923 INTER-LIGAND FREE ENERGY PREDICTED BY IDOCK:   -7.15 KCAL/MOL
REMARK 924 INTRA-LIGAND FREE ENERGY PREDICTED BY IDOCK:   -0.37 KCAL/MOL
REMARK 927      BINDING AFFINITY PREDICTED BY RF-SCORE:    0.00 PKD
ROOT
HETATM    1  C   UNL     1     -10.592  16.765  67.209  1.00  0.00    -0.275 C  
HETATM    2  C   UNL     1     -10.418  15.962  65.921  1.00  0.00    -0.359 C  
ENDROOT
BRANCH   2   3
HETATM    3  N   UNL     1     -11.406  14.886  65.727  1.00  0.00    -0.337 NA 
BRANCH   3   4
HETATM    4  C   UNL     1     -11.853  14.740  64.326  1.00  0.00    -0.319 C  
HETATM    5  C   UNL     1     -11.817  13.329  63.739  1.00  0.00    -0.522 C  
ENDBRANCH   3   4
BRANCH   3   6
HETATM    6  C   UNL     1     -10.906  13.589  66.249  1.00  0.00    -0.289 C  
BRANCH   6   7
HETATM    7  C   UNL     1     -11.875  12.808  67.155  1.00  0.00    -0.350 C  
BRANCH   7   8
HETATM    8  N   UNL     1     -12.226  13.541  68.354  1.00  0.00    -0.309 N  
HETATM    9  C   UNL     1     -12.057  12.972  69.599  1.00  0.00    -0.241 C  
HETATM   10  H   UNL     1     -12.602  14.486  68.277  1.00  0.00     0.000 HD 
HETATM   11  O   UNL     1     -11.655  11.824  69.762  1.00  0.00    -0.295 OA 
BRANCH   9  12
HETATM   12  C   UNL     1     -12.367  13.828  70.776  1.00  0.00    -0.451 A  
HETATM   13  C   UNL     1     -13.148  13.370  71.842  1.00  0.00    -0.476 A  
HETATM   14  C   UNL     1     -13.403  14.207  72.934  1.00  0.00    -0.532 A  
HETATM   15  C   UNL     1     -12.915  15.517  72.964  1.00  0.00    -0.499 A  
HETATM   16  C   UNL     1     -12.068  15.940  71.936  1.00  0.00    -0.578 A  
HETATM   17  N   UNL     1     -13.076  16.300  74.111  1.00  0.00    -0.942 NA 
HETATM   18  H2  UNL     1     -12.684  15.793  74.905  1.00  0.00     0.000 HD 
HETATM   19  H1  UNL     1     -12.719  17.256  74.134  1.00  0.00     0.000 HD 
HETATM   20  C   UNL     1     -11.808  15.110  70.840  1.00  0.00    -0.373 A  
ENDBRANCH   9  12
ENDBRANCH   7   8
ENDBRANCH   6   7
ENDBRANCH   3   6
ENDBRANCH   2   3
TORSDOF 6
ENDMDL
MODEL       14
REMARK 921   NORMALIZED FREE ENERGY PREDICTED BY IDOCK:   -5.20 KCAL/MOL
REMARK 922        TOTAL FREE ENERGY PREDICTED BY IDOCK:   -7.50 KCAL/MOL
REMARK 923 INTER-LIGAND FREE ENERGY PREDICTED BY IDOCK:   -7.09 KCAL/MOL
REMARK 924 INTRA-LIGAND FREE ENERGY PREDICTED BY IDOCK:   -0.42 KCAL/MOL
REMARK 927      BINDING AFFINITY PREDICTED BY RF-SCORE:    0.00 PKD
ROOT
HETATM    1  C   UNL     1     -10.690  19.251  67.068  1.00  0.00    -0.565 C  
HETATM    2  C   UNL     1      -9.468  18.335  67.120  1.00  0.00    -0.268 C  
ENDROOT
BRANCH   2   3
HETATM    3  N   UNL     1      -9.440  17.286  66.086  1.00  0.00    -0.448 NA 
BRANCH   3   4
HETATM    4  C   UNL     1      -8.288  16.368  66.207  1.00  0.00    -0.327 C  
HETATM    5  C   UNL     1      -6.967  16.985  66.669  1.00  0.00    -0.284 C  
ENDBRANCH   3   4
BRANCH   3   6
HETATM    6  C   UNL     1     -10.712  16.521  66.054  1.00  0.00    -0.177 C  
BRANCH   6   7
HETATM    7  C   UNL     1     -10.757  15.250  66.922  1.00  0.00    -0.313 C  
BRANCH   7   8
HETATM    8  N   UNL     1     -11.209  15.515  68.272  1.00  0.00    -0.328 N  
HETATM    9  C   UNL     1     -11.770  14.512  69.034  1.00  0.00    -0.311 C  
HETATM   10  H   UNL     1     -11.111  16.452  68.662  1.00  0.00     0.000 HD 
HETATM   11  O   UNL     1     -11.960  13.375  68.611  1.00  0.00    -0.343 OA 
BRANCH   9  12
HETATM   12  C   UNL     1     -12.130  14.856  70.436  1.00  0.00    -0.386 A  
HETATM   13  C   UNL     1     -12.953  14.036  71.214  1.00  0.00    -0.418 A  
HETATM   14  C   UNL     1     -13.254  14.395  72.533  1.00  0.00    -0.558 A  
HETATM   15  C   UNL     1     -12.770  15.587  73.081  1.00  0.00    -0.478 A  
HETATM   16  C   UNL     1     -11.884  16.359  72.327  1.00  0.00    -0.531 A  
HETATM   17  N   UNL     1     -12.979  15.873  74.434  1.00  0.00    -0.880 NA 
HETATM   18  H2  UNL     1     -12.619  15.095  74.987  1.00  0.00     0.000 HD 
HETATM   19  H1  UNL     1     -12.627  16.743  74.835  1.00  0.00     0.000 HD 
HETATM   20  C   UNL     1     -11.577  16.009  71.008  1.00  0.00    -0.472 A  
ENDBRANCH   9  12
ENDBRANCH   7   8
ENDBRANCH   6   7
ENDBRANCH   3   6
ENDBRANCH   2   3
TORSDOF 6
ENDMDL
MODEL       15
REMARK 921   NORMALIZED FREE ENERGY PREDICTED BY IDOCK:   -5.19 KCAL/MOL
REMARK 922        TOTAL FREE ENERGY PREDICTED BY IDOCK:   -7.49 KCAL/MOL
REMARK 923 INTER-LIGAND FREE ENERGY PREDICTED BY IDOCK:   -7.07 KCAL/MOL
REMARK 924 INTRA-LIGAND FREE ENERGY PREDICTED BY IDOCK:   -0.43 KCAL/MOL
REMARK 927      BINDING AFFINITY PREDICTED BY RF-SCORE:    0.00 PKD
ROOT
HETATM    1  C   UNL     1     -11.499   7.976  72.490  1.00  0.00    -0.471 C  
HETATM    2  C   UNL     1     -12.722   8.835  72.173  1.00  0.00    -0.400 C  
ENDROOT
BRANCH   2   3
HETATM    3  N   UNL     1     -12.504   9.861  71.138  1.00  0.00    -0.342 NA 
BRANCH   3   4
HETATM    4  C   UNL     1     -12.938  11.214  71.545  1.00  0.00    -0.437 C  
HETATM    5  C   UNL     1     -12.383  12.385  70.733  1.00  0.00    -0.377 C  
ENDBRANCH   3   4
BRANCH   3   6
HETATM    6  C   UNL     1     -11.089   9.885  70.687  1.00  0.00    -0.340 C  
BRANCH   6   7
HETATM    7  C   UNL     1     -10.816   9.297  69.290  1.00  0.00    -0.152 C  
BRANCH   7   8
HETATM    8  N   UNL     1     -11.296  10.153  68.225  1.00  0.00    -0.522 N  
HETATM    9  C   UNL     1     -10.416  10.920  67.491  1.00  0.00    -0.215 C  
HETATM   10  H   UNL     1     -12.294  10.188  68.016  1.00  0.00     0.000 HD 
HETATM   11  O   UNL     1      -9.211  10.962  67.719  1.00  0.00    -0.150 OA 
BRANCH   9  12
HETATM   12  C   UNL     1     -10.990  11.706  66.365  1.00  0.00    -0.345 A  
HETATM   13  C   UNL     1     -11.873  12.769  66.575  1.00  0.00    -0.471 A  
HETATM   14  C   UNL     1     -12.376  13.487  65.484  1.00  0.00    -0.524 A  
HETATM   15  C   UNL     1     -12.036  13.137  64.174  1.00  0.00    -0.436 A  
HETATM   16  C   UNL     1     -11.090  12.128  63.976  1.00  0.00    -0.449 A  
HETATM   17  N   UNL     1     -12.450  13.935  63.103  1.00  0.00    -1.079 NA 
HETATM   18  H2  UNL     1     -12.134  14.890  63.273  1.00  0.00     0.000 HD 
HETATM   19  H1  UNL     1     -12.201  13.680  62.147  1.00  0.00     0.000 HD 
HETATM   20  C   UNL     1     -10.582  11.404  65.060  1.00  0.00    -0.359 A  
ENDBRANCH   9  12
ENDBRANCH   7   8
ENDBRANCH   6   7
ENDBRANCH   3   6
ENDBRANCH   2   3
TORSDOF 6
ENDMDL
MODEL       16
REMARK 921   NORMALIZED FREE ENERGY PREDICTED BY IDOCK:   -5.18 KCAL/MOL
REMARK 922        TOTAL FREE ENERGY PREDICTED BY IDOCK:   -7.48 KCAL/MOL
REMARK 923 INTER-LIGAND FREE ENERGY PREDICTED BY IDOCK:   -7.03 KCAL/MOL
REMARK 924 INTRA-LIGAND FREE ENERGY PREDICTED BY IDOCK:   -0.45 KCAL/MOL
REMARK 927      BINDING AFFINITY PREDICTED BY RF-SCORE:    0.00 PKD
ROOT
HETATM    1  C   UNL     1     -12.645  12.781  65.195  1.00  0.00    -0.513 C  
HETATM    2  C   UNL     1     -12.116  13.867  66.131  1.00  0.00    -0.448 C  
ENDROOT
BRANCH   2   3
HETATM    3  N   UNL     1     -10.667  13.804  66.391  1.00  0.00    -0.280 NA 
BRANCH   3   4
HETATM    4  C   UNL     1      -9.891  14.828  65.660  1.00  0.00    -0.327 C  
HETATM    5  C   UNL     1     -10.616  16.134  65.334  1.00  0.00    -0.399 C  
ENDBRANCH   3   4
BRANCH   3   6
HETATM    6  C   UNL     1     -10.372  13.870  67.845  1.00  0.00    -0.240 C  
BRANCH   6   7
HETATM    7  C   UNL     1     -11.589  13.793  68.784  1.00  0.00    -0.328 C  
BRANCH   7   8
HETATM    8  N   UNL     1     -11.489  12.704  69.734  1.00  0.00    -0.489 N  
HETATM    9  C   UNL     1     -11.816  11.417  69.362  1.00  0.00    -0.351 C  
HETATM   10  H   UNL     1     -11.175  12.891  70.686  1.00  0.00     0.000 HD 
HETATM   11  O   UNL     1     -12.245  11.129  68.249  1.00  0.00    -0.613 OA 
BRANCH   9  12
HETATM   12  C   UNL     1     -11.606  10.351  70.379  1.00  0.00    -0.423 A  
HETATM   13  C   UNL     1     -10.367   9.726  70.555  1.00  0.00    -0.348 A  
HETATM   14  C   UNL     1     -10.214   8.737  71.533  1.00  0.00    -0.371 A  
HETATM   15  C   UNL     1     -11.295   8.335  72.323  1.00  0.00    -0.378 A  
HETATM   16  C   UNL     1     -12.506   9.019  72.198  1.00  0.00    -0.450 A  
HETATM   17  N   UNL     1     -11.099   7.433  73.374  1.00  0.00    -0.569 NA 
HETATM   18  H2  UNL     1     -10.374   7.807  73.987  1.00  0.00     0.000 HD 
HETATM   19  H1  UNL     1     -11.888   7.140  73.951  1.00  0.00     0.000 HD 
HETATM   20  C   UNL     1     -12.669  10.009  71.223  1.00  0.00    -0.500 A  
ENDBRANCH   9  12
ENDBRANCH   7   8
ENDBRANCH   6   7
ENDBRANCH   3   6
ENDBRANCH   2   3
TORSDOF 6
ENDMDL
MODEL       17
REMARK 921   NORMALIZED FREE ENERGY PREDICTED BY IDOCK:   -5.16 KCAL/MOL
REMARK 922        TOTAL FREE ENERGY PREDICTED BY IDOCK:   -7.45 KCAL/MOL
REMARK 923 INTER-LIGAND FREE ENERGY PREDICTED BY IDOCK:   -7.13 KCAL/MOL
REMARK 924 INTRA-LIGAND FREE ENERGY PREDICTED BY IDOCK:   -0.32 KCAL/MOL
REMARK 927      BINDING AFFINITY PREDICTED BY RF-SCORE:    0.00 PKD
ROOT
HETATM    1  C   UNL     1     -12.479  12.013  63.512  1.00  0.00    -0.654 C  
HETATM    2  C   UNL     1     -11.163  12.765  63.700  1.00  0.00    -0.427 C  
ENDROOT
BRANCH   2   3
HETATM    3  N   UNL     1     -10.888  13.190  65.084  1.00  0.00    -0.295 NA 
BRANCH   3   4
HETATM    4  C   UNL     1     -10.341  14.559  65.184  1.00  0.00    -0.411 C  
HETATM    5  C   UNL     1     -11.219  15.689  64.644  1.00  0.00    -0.380 C  
ENDBRANCH   3   4
BRANCH   3   6
HETATM    6  C   UNL     1     -12.090  13.048  65.945  1.00  0.00    -0.444 C  
BRANCH   6   7
HETATM    7  C   UNL     1     -11.902  13.404  67.431  1.00  0.00    -0.375 C  
BRANCH   7   8
HETATM    8  N   UNL     1     -11.873  12.233  68.282  1.00  0.00    -0.341 N  
HETATM    9  C   UNL     1     -11.913  12.362  69.655  1.00  0.00    -0.274 C  
HETATM   10  H   UNL     1     -11.821  11.304  67.863  1.00  0.00     0.000 HD 
HETATM   11  O   UNL     1     -11.928  13.449  70.225  1.00  0.00    -0.331 OA 
BRANCH   9  12
HETATM   12  C   UNL     1     -11.960  11.103  70.446  1.00  0.00    -0.469 A  
HETATM   13  C   UNL     1     -10.937  10.151  70.388  1.00  0.00    -0.386 A  
HETATM   14  C   UNL     1     -11.019   8.987  71.161  1.00  0.00    -0.371 A  
HETATM   15  C   UNL     1     -12.131   8.740  71.972  1.00  0.00    -0.377 A  
HETATM   16  C   UNL     1     -13.108   9.732  72.088  1.00  0.00    -0.513 A  
HETATM   17  N   UNL     1     -12.144   7.634  72.828  1.00  0.00    -0.588 NA 
HETATM   18  H2  UNL     1     -11.316   7.676  73.421  1.00  0.00     0.000 HD 
HETATM   19  H1  UNL     1     -12.955   7.454  73.420  1.00  0.00     0.000 HD 
HETATM   20  C   UNL     1     -13.035  10.899  71.320  1.00  0.00    -0.492 A  
ENDBRANCH   9  12
ENDBRANCH   7   8
ENDBRANCH   6   7
ENDBRANCH   3   6
ENDBRANCH   2   3
TORSDOF 6
ENDMDL
MODEL       18
REMARK 921   NORMALIZED FREE ENERGY PREDICTED BY IDOCK:   -5.16 KCAL/MOL
REMARK 922        TOTAL FREE ENERGY PREDICTED BY IDOCK:   -7.44 KCAL/MOL
REMARK 923 INTER-LIGAND FREE ENERGY PREDICTED BY IDOCK:   -6.68 KCAL/MOL
REMARK 924 INTRA-LIGAND FREE ENERGY PREDICTED BY IDOCK:   -0.76 KCAL/MOL
REMARK 927      BINDING AFFINITY PREDICTED BY RF-SCORE:    0.00 PKD
ROOT
HETATM    1  C   UNL     1      -9.038  12.107  67.530  1.00  0.00    -0.180 C  
HETATM    2  C   UNL     1      -9.990  12.715  66.502  1.00  0.00    -0.251 C  
ENDROOT
BRANCH   2   3
HETATM    3  N   UNL     1     -10.607  13.990  66.912  1.00  0.00    -0.279 NA 
BRANCH   3   4
HETATM    4  C   UNL     1     -11.957  14.200  66.350  1.00  0.00    -0.436 C  
HETATM    5  C   UNL     1     -12.439  13.175  65.322  1.00  0.00    -0.550 C  
ENDBRANCH   3   4
BRANCH   3   6
HETATM    6  C   UNL     1     -10.632  14.131  68.390  1.00  0.00    -0.259 C  
BRANCH   6   7
HETATM    7  C   UNL     1     -11.947  13.731  69.083  1.00  0.00    -0.361 C  
BRANCH   7   8
HETATM    8  N   UNL     1     -11.780  12.613  69.988  1.00  0.00    -0.516 N  
HETATM    9  C   UNL     1     -12.001  11.322  69.556  1.00  0.00    -0.351 C  
HETATM   10  H   UNL     1     -11.497  12.781  70.953  1.00  0.00     0.000 HD 
HETATM   11  O   UNL     1     -12.388  11.051  68.423  1.00  0.00    -0.528 OA 
BRANCH   9  12
HETATM   12  C   UNL     1     -11.727  10.232  70.531  1.00  0.00    -0.418 A  
HETATM   13  C   UNL     1     -10.488   9.586  70.593  1.00  0.00    -0.374 A  
HETATM   14  C   UNL     1     -10.273   8.574  71.536  1.00  0.00    -0.320 A  
HETATM   15  C   UNL     1     -11.293   8.170  72.402  1.00  0.00    -0.391 A  
HETATM   16  C   UNL     1     -12.499   8.875  72.390  1.00  0.00    -0.405 A  
HETATM   17  N   UNL     1     -11.028   7.244  73.416  1.00  0.00    -0.558 NA 
HETATM   18  H2  UNL     1     -10.250   7.594  73.976  1.00  0.00     0.000 HD 
HETATM   19  H1  UNL     1     -11.772   6.950  74.049  1.00  0.00     0.000 HD 
HETATM   20  C   UNL     1     -12.724   9.887  71.451  1.00  0.00    -0.503 A  
ENDBRANCH   9  12
ENDBRANCH   7   8
ENDBRANCH   6   7
ENDBRANCH   3   6
ENDBRANCH   2   3
TORSDOF 6
ENDMDL
MODEL       19
REMARK 921   NORMALIZED FREE ENERGY PREDICTED BY IDOCK:   -5.15 KCAL/MOL
REMARK 922        TOTAL FREE ENERGY PREDICTED BY IDOCK:   -7.44 KCAL/MOL
REMARK 923 INTER-LIGAND FREE ENERGY PREDICTED BY IDOCK:   -7.16 KCAL/MOL
REMARK 924 INTRA-LIGAND FREE ENERGY PREDICTED BY IDOCK:   -0.28 KCAL/MOL
REMARK 927      BINDING AFFINITY PREDICTED BY RF-SCORE:    0.00 PKD
ROOT
HETATM    1  C   UNL     1     -10.414   7.584  71.512  1.00  0.00    -0.226 C  
HETATM    2  C   UNL     1     -11.030   8.879  72.040  1.00  0.00    -0.342 C  
ENDROOT
BRANCH   2   3
HETATM    3  N   UNL     1     -12.070   9.464  71.175  1.00  0.00    -0.313 NA 
BRANCH   3   4
HETATM    4  C   UNL     1     -13.303   9.832  71.901  1.00  0.00    -0.436 C  
HETATM    5  C   UNL     1     -14.312   8.710  72.151  1.00  0.00    -0.518 C  
ENDBRANCH   3   4
BRANCH   3   6
HETATM    6  C   UNL     1     -11.551  10.626  70.411  1.00  0.00    -0.351 C  
BRANCH   6   7
HETATM    7  C   UNL     1     -11.283  10.384  68.914  1.00  0.00    -0.235 C  
BRANCH   7   8
HETATM    8  N   UNL     1     -11.332  11.605  68.137  1.00  0.00    -0.266 N  
HETATM    9  C   UNL     1     -10.927  11.615  66.819  1.00  0.00    -0.290 C  
HETATM   10  H   UNL     1     -11.669  12.466  68.569  1.00  0.00     0.000 HD 
HETATM   11  O   UNL     1     -10.468  10.628  66.252  1.00  0.00    -0.243 OA 
BRANCH   9  12
HETATM   12  C   UNL     1     -11.089  12.894  66.077  1.00  0.00    -0.308 A  
HETATM   13  C   UNL     1     -10.114  13.896  66.102  1.00  0.00    -0.317 A  
HETATM   14  C   UNL     1     -10.305  15.078  65.378  1.00  0.00    -0.410 A  
HETATM   15  C   UNL     1     -11.478  15.292  64.649  1.00  0.00    -0.354 A  
HETATM   16  C   UNL     1     -12.411  14.255  64.562  1.00  0.00    -0.432 A  
HETATM   17  N   UNL     1     -11.604  16.423  63.835  1.00  0.00    -1.602 NA 
HETATM   18  H2  UNL     1     -10.815  16.443  63.188  1.00  0.00     0.000 HD 
HETATM   19  H1  UNL     1     -12.460  16.580  63.303  1.00  0.00     0.000 HD 
HETATM   20  C   UNL     1     -12.229  13.070  65.283  1.00  0.00    -0.513 A  
ENDBRANCH   9  12
ENDBRANCH   7   8
ENDBRANCH   6   7
ENDBRANCH   3   6
ENDBRANCH   2   3
TORSDOF 6
ENDMDL
MODEL       20
REMARK 921   NORMALIZED FREE ENERGY PREDICTED BY IDOCK:   -5.13 KCAL/MOL
REMARK 922        TOTAL FREE ENERGY PREDICTED BY IDOCK:   -7.41 KCAL/MOL
REMARK 923 INTER-LIGAND FREE ENERGY PREDICTED BY IDOCK:   -6.91 KCAL/MOL
REMARK 924 INTRA-LIGAND FREE ENERGY PREDICTED BY IDOCK:   -0.49 KCAL/MOL
REMARK 927      BINDING AFFINITY PREDICTED BY RF-SCORE:    0.00 PKD
ROOT
HETATM    1  C   UNL     1     -12.287  12.414  63.578  1.00  0.00    -0.648 C  
HETATM    2  C   UNL     1     -12.390  12.671  65.081  1.00  0.00    -0.484 C  
ENDROOT
BRANCH   2   3
HETATM    3  N   UNL     1     -11.335  13.540  65.631  1.00  0.00    -0.297 NA 
BRANCH   3   4
HETATM    4  C   UNL     1     -10.708  14.420  64.623  1.00  0.00    -0.336 C  
HETATM    5  C   UNL     1     -11.167  15.878  64.607  1.00  0.00    -0.361 C  
ENDBRANCH   3   4
BRANCH   3   6
HETATM    6  C   UNL     1     -11.833  14.339  66.779  1.00  0.00    -0.426 C  
BRANCH   6   7
HETATM    7  C   UNL     1     -11.049  14.190  68.096  1.00  0.00    -0.257 C  
BRANCH   7   8
HETATM    8  N   UNL     1     -11.696  13.290  69.028  1.00  0.00    -0.302 N  
HETATM    9  C   UNL     1     -11.290  11.976  69.132  1.00  0.00    -0.281 C  
HETATM   10  H   UNL     1     -12.459  13.631  69.613  1.00  0.00     0.000 HD 
HETATM   11  O   UNL     1     -10.411  11.489  68.427  1.00  0.00    -0.191 OA 
BRANCH   9  12
HETATM   12  C   UNL     1     -11.956  11.148  70.173  1.00  0.00    -0.449 A  
HETATM   13  C   UNL     1     -11.667   9.790  70.339  1.00  0.00    -0.301 A  
HETATM   14  C   UNL     1     -12.311   9.054  71.341  1.00  0.00    -0.380 A  
HETATM   15  C   UNL     1     -13.271   9.649  72.164  1.00  0.00    -0.444 A  
HETATM   16  C   UNL     1     -13.495  11.023  72.047  1.00  0.00    -0.286 A  
HETATM   17  N   UNL     1     -13.817   8.935  73.236  1.00  0.00    -1.162 NA 
HETATM   18  H2  UNL     1     -13.053   8.601  73.823  1.00  0.00     0.000 HD 
HETATM   19  H1  UNL     1     -14.518   9.369  73.837  1.00  0.00     0.000 HD 
HETATM   20  C   UNL     1     -12.857  11.767  71.049  1.00  0.00    -0.309 A  
ENDBRANCH   9  12
ENDBRANCH   7   8
ENDBRANCH   6   7
ENDBRANCH   3   6
ENDBRANCH   2   3
TORSDOF 6
ENDMDL
MODEL       21
REMARK 921   NORMALIZED FREE ENERGY PREDICTED BY IDOCK:   -5.13 KCAL/MOL
REMARK 922        TOTAL FREE ENERGY PREDICTED BY IDOCK:   -7.41 KCAL/MOL
REMARK 923 INTER-LIGAND FREE ENERGY PREDICTED BY IDOCK:   -6.88 KCAL/MOL
REMARK 924 INTRA-LIGAND FREE ENERGY PREDICTED BY IDOCK:   -0.53 KCAL/MOL
REMARK 927      BINDING AFFINITY PREDICTED BY RF-SCORE:    0.00 PKD
ROOT
HETATM    1  C   UNL     1     -12.533  12.513  64.575  1.00  0.00    -0.539 C  
HETATM    2  C   UNL     1     -11.998  12.644  66.000  1.00  0.00    -0.417 C  
ENDROOT
BRANCH   2   3
HETATM    3  N   UNL     1     -10.703  11.983  66.236  1.00  0.00    -0.257 NA 
BRANCH   3   4
HETATM    4  C   UNL     1     -10.142  11.334  65.032  1.00  0.00    -0.279 C  
HETATM    5  C   UNL     1      -9.581   9.923  65.213  1.00  0.00    -0.361 C  
ENDBRANCH   3   4
BRANCH   3   6
HETATM    6  C   UNL     1      -9.714  12.919  66.829  1.00  0.00    -0.246 C  
BRANCH   6   7
HETATM    7  C   UNL     1      -9.155  12.525  68.208  1.00  0.00    -0.183 C  
BRANCH   7   8
HETATM    8  N   UNL     1     -10.168  11.966  69.079  1.00  0.00    -0.417 N  
HETATM    9  C   UNL     1     -10.149  10.627  69.408  1.00  0.00    -0.174 C  
HETATM   10  H   UNL     1     -10.901  12.569  69.452  1.00  0.00     0.000 HD 
HETATM   11  O   UNL     1      -9.325   9.838  68.958  1.00  0.00    -0.147 OA 
BRANCH   9  12
HETATM   12  C   UNL     1     -11.181  10.159  70.373  1.00  0.00    -0.402 A  
HETATM   13  C   UNL     1     -11.152   8.875  70.926  1.00  0.00    -0.328 A  
HETATM   14  C   UNL     1     -12.138   8.484  71.840  1.00  0.00    -0.411 A  
HETATM   15  C   UNL     1     -13.179   9.349  72.186  1.00  0.00    -0.460 A  
HETATM   16  C   UNL     1     -13.157  10.656  71.694  1.00  0.00    -0.555 A  
HETATM   17  N   UNL     1     -14.087   8.989  73.188  1.00  0.00    -1.223 NA 
HETATM   18  H2  UNL     1     -13.562   8.764  74.033  1.00  0.00     0.000 HD 
HETATM   19  H1  UNL     1     -14.848   9.621  73.442  1.00  0.00     0.000 HD 
HETATM   20  C   UNL     1     -12.176  11.056  70.780  1.00  0.00    -0.480 A  
ENDBRANCH   9  12
ENDBRANCH   7   8
ENDBRANCH   6   7
ENDBRANCH   3   6
ENDBRANCH   2   3
TORSDOF 6
ENDMDL
MODEL       22
REMARK 921   NORMALIZED FREE ENERGY PREDICTED BY IDOCK:   -5.12 KCAL/MOL
REMARK 922        TOTAL FREE ENERGY PREDICTED BY IDOCK:   -7.39 KCAL/MOL
REMARK 923 INTER-LIGAND FREE ENERGY PREDICTED BY IDOCK:   -6.97 KCAL/MOL
REMARK 924 INTRA-LIGAND FREE ENERGY PREDICTED BY IDOCK:   -0.43 KCAL/MOL
REMARK 927      BINDING AFFINITY PREDICTED BY RF-SCORE:    0.00 PKD
ROOT
HETATM    1  C   UNL     1     -10.649  17.444  67.779  1.00  0.00    -0.371 C  
HETATM    2  C   UNL     1     -10.351  17.178  69.254  1.00  0.00    -0.257 C  
ENDROOT
BRANCH   2   3
HETATM    3  N   UNL     1     -10.886  15.906  69.771  1.00  0.00    -0.298 NA 
BRANCH   3   4
HETATM    4  C   UNL     1     -11.733  16.066  70.971  1.00  0.00    -0.417 C  
HETATM    5  C   UNL     1     -13.099  15.379  70.942  1.00  0.00    -0.528 C  
ENDBRANCH   3   4
BRANCH   3   6
HETATM    6  C   UNL     1     -11.615  15.155  68.718  1.00  0.00    -0.349 C  
BRANCH   6   7
HETATM    7  C   UNL     1     -10.999  13.806  68.303  1.00  0.00    -0.250 C  
BRANCH   7   8
HETATM    8  N   UNL     1     -11.127  12.797  69.334  1.00  0.00    -0.450 N  
HETATM    9  C   UNL     1     -11.740  11.592  69.064  1.00  0.00    -0.324 C  
HETATM   10  H   UNL     1     -10.760  12.980  70.268  1.00  0.00     0.000 HD 
HETATM   11  O   UNL     1     -12.244  11.325  67.977  1.00  0.00    -0.621 OA 
BRANCH   9  12
HETATM   12  C   UNL     1     -11.754  10.586  70.160  1.00  0.00    -0.410 A  
HETATM   13  C   UNL     1     -12.899  10.333  70.921  1.00  0.00    -0.463 A  
HETATM   14  C   UNL     1     -12.868   9.367  71.934  1.00  0.00    -0.497 A  
HETATM   15  C   UNL     1     -11.692   8.668  72.223  1.00  0.00    -0.358 A  
HETATM   16  C   UNL     1     -10.577   8.866  71.406  1.00  0.00    -0.374 A  
HETATM   17  N   UNL     1     -11.707   7.624  73.154  1.00  0.00    -0.636 NA 
HETATM   18  H2  UNL     1     -12.420   6.952  72.873  1.00  0.00     0.000 HD 
HETATM   19  H1  UNL     1     -10.849   7.113  73.366  1.00  0.00     0.000 HD 
HETATM   20  C   UNL     1     -10.599   9.829  70.391  1.00  0.00    -0.365 A  
ENDBRANCH   9  12
ENDBRANCH   7   8
ENDBRANCH   6   7
ENDBRANCH   3   6
ENDBRANCH   2   3
TORSDOF 6
ENDMDL
MODEL       23
REMARK 921   NORMALIZED FREE ENERGY PREDICTED BY IDOCK:   -5.12 KCAL/MOL
REMARK 922        TOTAL FREE ENERGY PREDICTED BY IDOCK:   -7.39 KCAL/MOL
REMARK 923 INTER-LIGAND FREE ENERGY PREDICTED BY IDOCK:   -7.01 KCAL/MOL
REMARK 924 INTRA-LIGAND FREE ENERGY PREDICTED BY IDOCK:   -0.39 KCAL/MOL
REMARK 927      BINDING AFFINITY PREDICTED BY RF-SCORE:    0.00 PKD
ROOT
HETATM    1  C   UNL     1     -12.509  12.081  63.475  1.00  0.00    -0.654 C  
HETATM    2  C   UNL     1     -12.417  12.647  64.892  1.00  0.00    -0.494 C  
ENDROOT
BRANCH   2   3
HETATM    3  N   UNL     1     -11.289  12.133  65.689  1.00  0.00    -0.340 NA 
BRANCH   3   4
HETATM    4  C   UNL     1     -10.218  11.524  64.873  1.00  0.00    -0.275 C  
HETATM    5  C   UNL     1      -9.819  10.091  65.226  1.00  0.00    -0.388 C  
ENDBRANCH   3   4
BRANCH   3   6
HETATM    6  C   UNL     1     -10.731  13.182  66.579  1.00  0.00    -0.279 C  
BRANCH   6   7
HETATM    7  C   UNL     1     -11.617  14.421  66.800  1.00  0.00    -0.385 C  
BRANCH   7   8
HETATM    8  N   UNL     1     -10.842  15.633  66.971  1.00  0.00    -0.315 N  
HETATM    9  C   UNL     1     -10.497  16.405  65.882  1.00  0.00    -0.337 C  
HETATM   10  H   UNL     1     -10.550  15.918  67.906  1.00  0.00     0.000 HD 
HETATM   11  O   UNL     1     -10.775  16.098  64.727  1.00  0.00    -0.648 OA 
BRANCH   9  12
HETATM   12  C   UNL     1      -9.771  17.674  66.162  1.00  0.00    -0.228 A  
HETATM   13  C   UNL     1     -10.437  18.896  66.299  1.00  0.00    -0.510 A  
HETATM   14  C   UNL     1      -9.713  20.061  66.575  1.00  0.00    -0.564 A  
HETATM   15  C   UNL     1      -8.320  20.032  66.684  1.00  0.00    -0.317 A  
HETATM   16  C   UNL     1      -7.669  18.797  66.629  1.00  0.00    -0.262 A  
HETATM   17  N   UNL     1      -7.622  21.179  67.078  1.00  0.00    -0.719 NA 
HETATM   18  H2  UNL     1      -8.007  21.501  67.965  1.00  0.00     0.000 HD 
HETATM   19  H1  UNL     1      -6.605  21.158  67.158  1.00  0.00     0.000 HD 
HETATM   20  C   UNL     1      -8.385  17.626  66.353  1.00  0.00    -0.288 A  
ENDBRANCH   9  12
ENDBRANCH   7   8
ENDBRANCH   6   7
ENDBRANCH   3   6
ENDBRANCH   2   3
TORSDOF 6
ENDMDL
MODEL       24
REMARK 921   NORMALIZED FREE ENERGY PREDICTED BY IDOCK:   -5.11 KCAL/MOL
REMARK 922        TOTAL FREE ENERGY PREDICTED BY IDOCK:   -7.38 KCAL/MOL
REMARK 923 INTER-LIGAND FREE ENERGY PREDICTED BY IDOCK:   -7.06 KCAL/MOL
REMARK 924 INTRA-LIGAND FREE ENERGY PREDICTED BY IDOCK:   -0.32 KCAL/MOL
REMARK 927      BINDING AFFINITY PREDICTED BY RF-SCORE:    0.00 PKD
ROOT
HETATM    1  C   UNL     1     -12.435  11.907  63.426  1.00  0.00    -0.582 C  
HETATM    2  C   UNL     1     -11.930  13.325  63.689  1.00  0.00    -0.486 C  
ENDROOT
BRANCH   2   3
HETATM    3  N   UNL     1     -11.127  13.476  64.915  1.00  0.00    -0.330 NA 
BRANCH   3   4
HETATM    4  C   UNL     1     -11.490  14.664  65.717  1.00  0.00    -0.338 C  
HETATM    5  C   UNL     1     -10.988  16.015  65.205  1.00  0.00    -0.360 C  
ENDBRANCH   3   4
BRANCH   3   6
HETATM    6  C   UNL     1     -11.177  12.251  65.752  1.00  0.00    -0.337 C  
BRANCH   6   7
HETATM    7  C   UNL     1     -10.498  12.346  67.130  1.00  0.00    -0.219 C  
BRANCH   7   8
HETATM    8  N   UNL     1     -11.288  11.739  68.181  1.00  0.00    -0.259 N  
HETATM    9  C   UNL     1     -10.684  10.984  69.165  1.00  0.00    -0.234 C  
HETATM   10  H   UNL     1     -12.299  11.870  68.194  1.00  0.00     0.000 HD 
HETATM   11  O   UNL     1      -9.480  10.747  69.184  1.00  0.00    -0.194 OA 
BRANCH   9  12
HETATM   12  C   UNL     1     -11.564  10.467  70.248  1.00  0.00    -0.410 A  
HETATM   13  C   UNL     1     -12.518  11.272  70.878  1.00  0.00    -0.493 A  
HETATM   14  C   UNL     1     -13.332  10.738  71.884  1.00  0.00    -0.445 A  
HETATM   15  C   UNL     1     -13.184   9.411  72.298  1.00  0.00    -0.446 A  
HETATM   16  C   UNL     1     -12.287   8.591  71.609  1.00  0.00    -0.371 A  
HETATM   17  N   UNL     1     -14.082   8.858  73.217  1.00  0.00    -1.248 NA 
HETATM   18  H2  UNL     1     -15.028   8.978  72.855  1.00  0.00     0.000 HD 
HETATM   19  H1  UNL     1     -13.974   7.889  73.519  1.00  0.00     0.000 HD 
HETATM   20  C   UNL     1     -11.469   9.116  70.603  1.00  0.00    -0.310 A  
ENDBRANCH   9  12
ENDBRANCH   7   8
ENDBRANCH   6   7
ENDBRANCH   3   6
ENDBRANCH   2   3
TORSDOF 6
ENDMDL
MODEL       25
REMARK 921   NORMALIZED FREE ENERGY PREDICTED BY IDOCK:   -5.11 KCAL/MOL
REMARK 922        TOTAL FREE ENERGY PREDICTED BY IDOCK:   -7.38 KCAL/MOL
REMARK 923 INTER-LIGAND FREE ENERGY PREDICTED BY IDOCK:   -6.88 KCAL/MOL
REMARK 924 INTRA-LIGAND FREE ENERGY PREDICTED BY IDOCK:   -0.50 KCAL/MOL
REMARK 927      BINDING AFFINITY PREDICTED BY RF-SCORE:    0.00 PKD
ROOT
HETATM    1  C   UNL     1      -9.600   9.905  65.261  1.00  0.00    -0.361 C  
HETATM    2  C   UNL     1     -10.616  11.011  65.539  1.00  0.00    -0.200 C  
ENDROOT
BRANCH   2   3
HETATM    3  N   UNL     1     -10.084  12.380  65.424  1.00  0.00    -0.274 NA 
BRANCH   3   4
HETATM    4  C   UNL     1     -10.629  13.132  64.274  1.00  0.00    -0.412 C  
HETATM    5  C   UNL     1     -11.822  12.506  63.551  1.00  0.00    -0.616 C  
ENDBRANCH   3   4
BRANCH   3   6
HETATM    6  C   UNL     1     -10.277  13.145  66.683  1.00  0.00    -0.259 C  
BRANCH   6   7
HETATM    7  C   UNL     1      -9.580  12.576  67.932  1.00  0.00    -0.206 C  
BRANCH   7   8
HETATM    8  N   UNL     1     -10.514  11.989  68.870  1.00  0.00    -0.370 N  
HETATM    9  C   UNL     1     -10.367  10.680  69.279  1.00  0.00    -0.218 C  
HETATM   10  H   UNL     1     -11.287  12.548  69.230  1.00  0.00     0.000 HD 
HETATM   11  O   UNL     1      -9.489   9.938  68.850  1.00  0.00    -0.156 OA 
BRANCH   9  12
HETATM   12  C   UNL     1     -11.325  10.187  70.306  1.00  0.00    -0.387 A  
HETATM   13  C   UNL     1     -11.293   8.872  70.781  1.00  0.00    -0.325 A  
HETATM   14  C   UNL     1     -12.206   8.458  71.756  1.00  0.00    -0.377 A  
HETATM   15  C   UNL     1     -13.182   9.332  72.245  1.00  0.00    -0.460 A  
HETATM   16  C   UNL     1     -13.156  10.665  71.827  1.00  0.00    -0.571 A  
HETATM   17  N   UNL     1     -14.009   8.941  73.303  1.00  0.00    -1.217 NA 
HETATM   18  H2  UNL     1     -13.418   8.650  74.082  1.00  0.00     0.000 HD 
HETATM   19  H1  UNL     1     -14.720   9.579  73.661  1.00  0.00     0.000 HD 
HETATM   20  C   UNL     1     -12.247  11.089  70.852  1.00  0.00    -0.471 A  
ENDBRANCH   9  12
ENDBRANCH   7   8
ENDBRANCH   6   7
ENDBRANCH   3   6
ENDBRANCH   2   3
TORSDOF 6
ENDMDL
MODEL       26
REMARK 921   NORMALIZED FREE ENERGY PREDICTED BY IDOCK:   -5.10 KCAL/MOL
REMARK 922        TOTAL FREE ENERGY PREDICTED BY IDOCK:   -7.36 KCAL/MOL
REMARK 923 INTER-LIGAND FREE ENERGY PREDICTED BY IDOCK:   -6.89 KCAL/MOL
REMARK 924 INTRA-LIGAND FREE ENERGY PREDICTED BY IDOCK:   -0.48 KCAL/MOL
REMARK 927      BINDING AFFINITY PREDICTED BY RF-SCORE:    0.00 PKD
ROOT
HETATM    1  C   UNL     1      -9.709  10.301  64.698  1.00  0.00    -0.398 C  
HETATM    2  C   UNL     1     -10.513  10.976  65.808  1.00  0.00    -0.228 C  
ENDROOT
BRANCH   2   3
HETATM    3  N   UNL     1     -10.828  12.395  65.565  1.00  0.00    -0.273 NA 
BRANCH   3   4
HETATM    4  C   UNL     1     -12.164  12.610  64.971  1.00  0.00    -0.476 C  
HETATM    5  C   UNL     1     -12.213  12.825  63.457  1.00  0.00    -0.613 C  
ENDBRANCH   3   4
BRANCH   3   6
HETATM    6  C   UNL     1     -10.674  13.204  66.800  1.00  0.00    -0.267 C  
BRANCH   6   7
HETATM    7  C   UNL     1     -11.585  14.440  66.916  1.00  0.00    -0.388 C  
BRANCH   7   8
HETATM    8  N   UNL     1     -10.836  15.669  67.072  1.00  0.00    -0.315 N  
HETATM    9  C   UNL     1     -10.515  16.440  65.975  1.00  0.00    -0.323 C  
HETATM   10  H   UNL     1     -10.544  15.968  68.003  1.00  0.00     0.000 HD 
HETATM   11  O   UNL     1     -10.795  16.117  64.824  1.00  0.00    -0.634 OA 
BRANCH   9  12
HETATM   12  C   UNL     1      -9.815  17.726  66.240  1.00  0.00    -0.301 A  
HETATM   13  C   UNL     1     -10.497  18.947  66.284  1.00  0.00    -0.510 A  
HETATM   14  C   UNL     1      -9.797  20.130  66.550  1.00  0.00    -0.574 A  
HETATM   15  C   UNL     1      -8.412  20.118  66.739  1.00  0.00    -0.302 A  
HETATM   16  C   UNL     1      -7.752  18.888  66.775  1.00  0.00    -0.252 A  
HETATM   17  N   UNL     1      -7.746  21.287  67.121  1.00  0.00    -0.738 NA 
HETATM   18  H2  UNL     1      -8.184  21.645  67.970  1.00  0.00     0.000 HD 
HETATM   19  H1  UNL     1      -6.735  21.279  67.260  1.00  0.00     0.000 HD 
HETATM   20  C   UNL     1      -8.442  17.700  66.510  1.00  0.00    -0.294 A  
ENDBRANCH   9  12
ENDBRANCH   7   8
ENDBRANCH   6   7
ENDBRANCH   3   6
ENDBRANCH   2   3
TORSDOF 6
ENDMDL
MODEL       27
REMARK 921   NORMALIZED FREE ENERGY PREDICTED BY IDOCK:   -5.06 KCAL/MOL
REMARK 922        TOTAL FREE ENERGY PREDICTED BY IDOCK:   -7.31 KCAL/MOL
REMARK 923 INTER-LIGAND FREE ENERGY PREDICTED BY IDOCK:   -7.03 KCAL/MOL
REMARK 924 INTRA-LIGAND FREE ENERGY PREDICTED BY IDOCK:   -0.28 KCAL/MOL
REMARK 927      BINDING AFFINITY PREDICTED BY RF-SCORE:    0.00 PKD
ROOT
HETATM    1  C   UNL     1     -10.603  15.908  65.123  1.00  0.00    -0.421 C  
HETATM    2  C   UNL     1     -10.497  14.391  64.968  1.00  0.00    -0.430 C  
ENDROOT
BRANCH   2   3
HETATM    3  N   UNL     1     -11.789  13.693  64.846  1.00  0.00    -0.359 NA 
BRANCH   3   4
HETATM    4  C   UNL     1     -12.055  13.175  63.487  1.00  0.00    -0.514 C  
HETATM    5  C   UNL     1     -12.632  11.762  63.394  1.00  0.00    -0.458 C  
ENDBRANCH   3   4
BRANCH   3   6
HETATM    6  C   UNL     1     -11.916  12.605  65.849  1.00  0.00    -0.438 C  
BRANCH   6   7
HETATM    7  C   UNL     1     -12.016  13.052  67.319  1.00  0.00    -0.321 C  
BRANCH   7   8
HETATM    8  N   UNL     1     -11.889  11.946  68.245  1.00  0.00    -0.314 N  
HETATM    9  C   UNL     1     -12.032  12.147  69.602  1.00  0.00    -0.284 C  
HETATM   10  H   UNL     1     -11.691  11.010  67.891  1.00  0.00     0.000 HD 
HETATM   11  O   UNL     1     -12.224  13.253  70.100  1.00  0.00    -0.334 OA 
BRANCH   9  12
HETATM   12  C   UNL     1     -11.965  10.940  70.470  1.00  0.00    -0.466 A  
HETATM   13  C   UNL     1     -13.029  10.557  71.292  1.00  0.00    -0.532 A  
HETATM   14  C   UNL     1     -12.925   9.406  72.082  1.00  0.00    -0.503 A  
HETATM   15  C   UNL     1     -11.754   8.644  72.089  1.00  0.00    -0.371 A  
HETATM   16  C   UNL     1     -10.727   8.985  71.205  1.00  0.00    -0.358 A  
HETATM   17  N   UNL     1     -11.707   7.434  72.789  1.00  0.00    -0.560 NA 
HETATM   18  H2  UNL     1     -12.473   6.844  72.463  1.00  0.00     0.000 HD 
HETATM   19  H1  UNL     1     -10.852   6.877  72.794  1.00  0.00     0.000 HD 
HETATM   20  C   UNL     1     -10.822  10.134  70.412  1.00  0.00    -0.365 A  
ENDBRANCH   9  12
ENDBRANCH   7   8
ENDBRANCH   6   7
ENDBRANCH   3   6
ENDBRANCH   2   3
TORSDOF 6
ENDMDL
MODEL       28
REMARK 921   NORMALIZED FREE ENERGY PREDICTED BY IDOCK:   -5.05 KCAL/MOL
REMARK 922        TOTAL FREE ENERGY PREDICTED BY IDOCK:   -7.29 KCAL/MOL
REMARK 923 INTER-LIGAND FREE ENERGY PREDICTED BY IDOCK:   -6.88 KCAL/MOL
REMARK 924 INTRA-LIGAND FREE ENERGY PREDICTED BY IDOCK:   -0.42 KCAL/MOL
REMARK 927      BINDING AFFINITY PREDICTED BY RF-SCORE:    0.00 PKD
ROOT
HETATM    1  C   UNL     1     -12.400  12.094  70.767  1.00  0.00    -0.391 C  
HETATM    2  C   UNL     1     -12.939  10.704  71.103  1.00  0.00    -0.387 C  
ENDROOT
BRANCH   2   3
HETATM    3  N   UNL     1     -11.916   9.730  71.520  1.00  0.00    -0.395 NA 
BRANCH   3   4
HETATM    4  C   UNL     1     -12.431   8.352  71.653  1.00  0.00    -0.328 C  
HETATM    5  C   UNL     1     -13.933   8.203  71.904  1.00  0.00    -0.451 C  
ENDBRANCH   3   4
BRANCH   3   6
HETATM    6  C   UNL     1     -10.738   9.759  70.616  1.00  0.00    -0.326 C  
BRANCH   6   7
HETATM    7  C   UNL     1     -10.904   9.033  69.269  1.00  0.00    -0.113 C  
BRANCH   7   8
HETATM    8  N   UNL     1     -11.304   9.927  68.202  1.00  0.00    -0.531 N  
HETATM    9  C   UNL     1     -10.361  10.641  67.494  1.00  0.00    -0.214 C  
HETATM   10  H   UNL     1     -12.293  10.030  67.973  1.00  0.00     0.000 HD 
HETATM   11  O   UNL     1      -9.160  10.601  67.747  1.00  0.00    -0.141 OA 
BRANCH   9  12
HETATM   12  C   UNL     1     -10.857  11.472  66.364  1.00  0.00    -0.334 A  
HETATM   13  C   UNL     1     -10.485  11.223  65.039  1.00  0.00    -0.359 A  
HETATM   14  C   UNL     1     -10.988  12.024  64.008  1.00  0.00    -0.442 A  
HETATM   15  C   UNL     1     -11.837  13.100  64.283  1.00  0.00    -0.406 A  
HETATM   16  C   UNL     1     -12.269  13.293  65.598  1.00  0.00    -0.514 A  
HETATM   17  N   UNL     1     -12.425  13.817  63.236  1.00  0.00    -1.092 NA 
HETATM   18  H2  UNL     1     -12.924  13.159  62.637  1.00  0.00     0.000 HD 
HETATM   19  H1  UNL     1     -13.045  14.602  63.436  1.00  0.00     0.000 HD 
HETATM   20  C   UNL     1     -11.771  12.498  66.635  1.00  0.00    -0.453 A  
ENDBRANCH   9  12
ENDBRANCH   7   8
ENDBRANCH   6   7
ENDBRANCH   3   6
ENDBRANCH   2   3
TORSDOF 6
ENDMDL
MODEL       29
REMARK 921   NORMALIZED FREE ENERGY PREDICTED BY IDOCK:   -5.04 KCAL/MOL
REMARK 922        TOTAL FREE ENERGY PREDICTED BY IDOCK:   -7.29 KCAL/MOL
REMARK 923 INTER-LIGAND FREE ENERGY PREDICTED BY IDOCK:   -7.00 KCAL/MOL
REMARK 924 INTRA-LIGAND FREE ENERGY PREDICTED BY IDOCK:   -0.29 KCAL/MOL
REMARK 927      BINDING AFFINITY PREDICTED BY RF-SCORE:    0.00 PKD
ROOT
HETATM    1  C   UNL     1     -10.597  16.109  65.187  1.00  0.00    -0.366 C  
HETATM    2  C   UNL     1     -10.657  14.583  65.144  1.00  0.00    -0.410 C  
ENDROOT
BRANCH   2   3
HETATM    3  N   UNL     1     -11.977  14.028  64.793  1.00  0.00    -0.394 NA 
BRANCH   3   4
HETATM    4  C   UNL     1     -11.987  13.295  63.510  1.00  0.00    -0.474 C  
HETATM    5  C   UNL     1     -12.528  11.865  63.544  1.00  0.00    -0.609 C  
ENDBRANCH   3   4
BRANCH   3   6
HETATM    6  C   UNL     1     -12.514  13.175  65.883  1.00  0.00    -0.319 C  
BRANCH   6   7
HETATM    7  C   UNL     1     -12.034  13.516  67.306  1.00  0.00    -0.365 C  
BRANCH   7   8
HETATM    8  N   UNL     1     -11.949  12.348  68.158  1.00  0.00    -0.306 N  
HETATM    9  C   UNL     1     -11.943  12.480  69.531  1.00  0.00    -0.266 C  
HETATM   10  H   UNL     1     -11.893  11.420  67.739  1.00  0.00     0.000 HD 
HETATM   11  O   UNL     1     -11.961  13.567  70.100  1.00  0.00    -0.319 OA 
BRANCH   9  12
HETATM   12  C   UNL     1     -11.935  11.221  70.325  1.00  0.00    -0.466 A  
HETATM   13  C   UNL     1     -10.966  10.231  70.138  1.00  0.00    -0.377 A  
HETATM   14  C   UNL     1     -10.991   9.069  70.918  1.00  0.00    -0.332 A  
HETATM   15  C   UNL     1     -11.997   8.864  71.867  1.00  0.00    -0.371 A  
HETATM   16  C   UNL     1     -12.912   9.892  72.106  1.00  0.00    -0.471 A  
HETATM   17  N   UNL     1     -11.941   7.757  72.721  1.00  0.00    -0.608 NA 
HETATM   18  H2  UNL     1     -11.042   7.766  73.201  1.00  0.00     0.000 HD 
HETATM   19  H1  UNL     1     -12.675   7.607  73.414  1.00  0.00     0.000 HD 
HETATM   20  C   UNL     1     -12.895  11.056  71.331  1.00  0.00    -0.548 A  
ENDBRANCH   9  12
ENDBRANCH   7   8
ENDBRANCH   6   7
ENDBRANCH   3   6
ENDBRANCH   2   3
TORSDOF 6
ENDMDL
MODEL       30
REMARK 921   NORMALIZED FREE ENERGY PREDICTED BY IDOCK:   -5.04 KCAL/MOL
REMARK 922        TOTAL FREE ENERGY PREDICTED BY IDOCK:   -7.29 KCAL/MOL
REMARK 923 INTER-LIGAND FREE ENERGY PREDICTED BY IDOCK:   -7.07 KCAL/MOL
REMARK 924 INTRA-LIGAND FREE ENERGY PREDICTED BY IDOCK:   -0.22 KCAL/MOL
REMARK 927      BINDING AFFINITY PREDICTED BY RF-SCORE:    0.00 PKD
ROOT
HETATM    1  C   UNL     1     -11.183   6.255  69.306  1.00  0.00    -0.458 C  
HETATM    2  C   UNL     1     -10.192   7.204  69.979  1.00  0.00    -0.196 C  
ENDROOT
BRANCH   2   3
HETATM    3  N   UNL     1     -10.727   8.544  70.277  1.00  0.00    -0.228 NA 
BRANCH   3   4
HETATM    4  C   UNL     1     -10.656   8.903  71.709  1.00  0.00    -0.362 C  
HETATM    5  C   UNL     1     -10.600   7.743  72.704  1.00  0.00    -0.377 C  
ENDBRANCH   3   4
BRANCH   3   6
HETATM    6  C   UNL     1     -10.072   9.587  69.448  1.00  0.00    -0.198 C  
BRANCH   6   7
HETATM    7  C   UNL     1     -10.982  10.730  68.960  1.00  0.00    -0.240 C  
BRANCH   7   8
HETATM    8  N   UNL     1     -11.256  11.702  69.998  1.00  0.00    -0.489 N  
HETATM    9  C   UNL     1     -11.852  12.907  69.692  1.00  0.00    -0.320 C  
HETATM   10  H   UNL     1     -11.005  11.493  70.965  1.00  0.00     0.000 HD 
HETATM   11  O   UNL     1     -12.136  13.242  68.546  1.00  0.00    -0.341 OA 
BRANCH   9  12
HETATM   12  C   UNL     1     -12.169  13.808  70.833  1.00  0.00    -0.427 A  
HETATM   13  C   UNL     1     -11.517  15.032  71.015  1.00  0.00    -0.344 A  
HETATM   14  C   UNL     1     -11.858  15.853  72.096  1.00  0.00    -0.615 A  
HETATM   15  C   UNL     1     -12.823  15.452  73.025  1.00  0.00    -0.463 A  
HETATM   16  C   UNL     1     -13.527  14.269  72.791  1.00  0.00    -0.590 A  
HETATM   17  N   UNL     1     -13.239  16.333  74.030  1.00  0.00    -0.930 NA 
HETATM   18  H2  UNL     1     -13.554  17.197  73.591  1.00  0.00     0.000 HD 
HETATM   19  H1  UNL     1     -13.943  16.041  74.708  1.00  0.00     0.000 HD 
HETATM   20  C   UNL     1     -13.193  13.442  71.714  1.00  0.00    -0.495 A  
ENDBRANCH   9  12
ENDBRANCH   7   8
ENDBRANCH   6   7
ENDBRANCH   3   6
ENDBRANCH   2   3
TORSDOF 6
ENDMDL
MODEL       31
REMARK 921   NORMALIZED FREE ENERGY PREDICTED BY IDOCK:   -5.02 KCAL/MOL
REMARK 922        TOTAL FREE ENERGY PREDICTED BY IDOCK:   -7.26 KCAL/MOL
REMARK 923 INTER-LIGAND FREE ENERGY PREDICTED BY IDOCK:   -6.87 KCAL/MOL
REMARK 924 INTRA-LIGAND FREE ENERGY PREDICTED BY IDOCK:   -0.39 KCAL/MOL
REMARK 927      BINDING AFFINITY PREDICTED BY RF-SCORE:    0.00 PKD
ROOT
HETATM    1  C   UNL     1     -14.218   7.533  71.587  1.00  0.00    -0.592 C  
HETATM    2  C   UNL     1     -13.086   8.555  71.687  1.00  0.00    -0.341 C  
ENDROOT
BRANCH   2   3
HETATM    3  N   UNL     1     -11.766   8.057  71.261  1.00  0.00    -0.279 NA 
BRANCH   3   4
HETATM    4  C   UNL     1     -11.785   6.652  70.802  1.00  0.00    -0.388 C  
HETATM    5  C   UNL     1     -11.322   6.395  69.367  1.00  0.00    -0.443 C  
ENDBRANCH   3   4
BRANCH   3   6
HETATM    6  C   UNL     1     -11.163   8.933  70.225  1.00  0.00    -0.197 C  
BRANCH   6   7
HETATM    7  C   UNL     1     -11.406  10.444  70.396  1.00  0.00    -0.337 C  
BRANCH   7   8
HETATM    8  N   UNL     1     -11.794  11.087  69.157  1.00  0.00    -0.325 N  
HETATM    9  C   UNL     1     -10.856  11.724  68.373  1.00  0.00    -0.223 C  
HETATM   10  H   UNL     1     -12.771  11.068  68.863  1.00  0.00     0.000 HD 
HETATM   11  O   UNL     1      -9.674  11.825  68.690  1.00  0.00    -0.191 OA 
BRANCH   9  12
HETATM   12  C   UNL     1     -11.332  12.286  67.080  1.00  0.00    -0.398 A  
HETATM   13  C   UNL     1     -12.119  13.440  67.017  1.00  0.00    -0.390 A  
HETATM   14  C   UNL     1     -12.532  13.938  65.776  1.00  0.00    -0.530 A  
HETATM   15  C   UNL     1     -12.199  13.278  64.590  1.00  0.00    -0.407 A  
HETATM   16  C   UNL     1     -11.346  12.174  64.655  1.00  0.00    -0.382 A  
HETATM   17  N   UNL     1     -12.517  13.851  63.354  1.00  0.00    -1.110 NA 
HETATM   18  H2  UNL     1     -12.119  14.790  63.322  1.00  0.00     0.000 HD 
HETATM   19  H1  UNL     1     -12.274  13.370  62.487  1.00  0.00     0.000 HD 
HETATM   20  C   UNL     1     -10.928  11.668  65.890  1.00  0.00    -0.334 A  
ENDBRANCH   9  12
ENDBRANCH   7   8
ENDBRANCH   6   7
ENDBRANCH   3   6
ENDBRANCH   2   3
TORSDOF 6
ENDMDL
MODEL       32
REMARK 921   NORMALIZED FREE ENERGY PREDICTED BY IDOCK:   -4.97 KCAL/MOL
REMARK 922        TOTAL FREE ENERGY PREDICTED BY IDOCK:   -7.19 KCAL/MOL
REMARK 923 INTER-LIGAND FREE ENERGY PREDICTED BY IDOCK:   -6.88 KCAL/MOL
REMARK 924 INTRA-LIGAND FREE ENERGY PREDICTED BY IDOCK:   -0.31 KCAL/MOL
REMARK 927      BINDING AFFINITY PREDICTED BY RF-SCORE:    0.00 PKD
ROOT
HETATM    1  C   UNL     1      -8.296  19.063  68.589  1.00  0.00    -0.397 C  
HETATM    2  C   UNL     1      -9.807  19.154  68.798  1.00  0.00    -0.439 C  
ENDROOT
BRANCH   2   3
HETATM    3  N   UNL     1     -10.610  18.382  67.833  1.00  0.00    -0.384 NA 
BRANCH   3   4
HETATM    4  C   UNL     1     -10.148  18.519  66.436  1.00  0.00    -0.405 C  
HETATM    5  C   UNL     1     -10.610  19.767  65.682  1.00  0.00    -0.456 C  
ENDBRANCH   3   4
BRANCH   3   6
HETATM    6  C   UNL     1     -10.688  16.949  68.215  1.00  0.00    -0.377 C  
BRANCH   6   7
HETATM    7  C   UNL     1     -10.720  16.655  69.726  1.00  0.00    -0.254 C  
BRANCH   7   8
HETATM    8  N   UNL     1     -11.020  15.267  70.015  1.00  0.00    -0.270 N  
HETATM    9  C   UNL     1     -12.190  14.922  70.657  1.00  0.00    -0.318 C  
HETATM   10  H   UNL     1     -10.359  14.540  69.741  1.00  0.00     0.000 HD 
HETATM   11  O   UNL     1     -13.006  15.748  71.055  1.00  0.00    -0.483 OA 
BRANCH   9  12
HETATM   12  C   UNL     1     -12.451  13.468  70.839  1.00  0.00    -0.448 A  
HETATM   13  C   UNL     1     -13.162  12.973  71.937  1.00  0.00    -0.527 A  
HETATM   14  C   UNL     1     -13.394  11.598  72.059  1.00  0.00    -0.405 A  
HETATM   15  C   UNL     1     -12.894  10.699  71.113  1.00  0.00    -0.420 A  
HETATM   16  C   UNL     1     -12.257  11.206  69.978  1.00  0.00    -0.402 A  
HETATM   17  N   UNL     1     -13.235   9.344  71.184  1.00  0.00    -0.528 NA 
HETATM   18  H2  UNL     1     -14.252   9.268  71.194  1.00  0.00     0.000 HD 
HETATM   19  H1  UNL     1     -12.870   8.687  70.493  1.00  0.00     0.000 HD 
HETATM   20  C   UNL     1     -12.020  12.579  69.848  1.00  0.00    -0.371 A  
ENDBRANCH   9  12
ENDBRANCH   7   8
ENDBRANCH   6   7
ENDBRANCH   3   6
ENDBRANCH   2   3
TORSDOF 6
ENDMDL
MODEL       33
REMARK 921   NORMALIZED FREE ENERGY PREDICTED BY IDOCK:   -4.96 KCAL/MOL
REMARK 922        TOTAL FREE ENERGY PREDICTED BY IDOCK:   -7.18 KCAL/MOL
REMARK 923 INTER-LIGAND FREE ENERGY PREDICTED BY IDOCK:   -6.79 KCAL/MOL
REMARK 924 INTRA-LIGAND FREE ENERGY PREDICTED BY IDOCK:   -0.40 KCAL/MOL
REMARK 927      BINDING AFFINITY PREDICTED BY RF-SCORE:    0.00 PKD
ROOT
HETATM    1  C   UNL     1      -9.741   9.814  65.434  1.00  0.00    -0.383 C  
HETATM    2  C   UNL     1     -10.068   8.837  66.562  1.00  0.00    -0.279 C  
ENDROOT
BRANCH   2   3
HETATM    3  N   UNL     1     -10.762   9.438  67.715  1.00  0.00    -0.257 NA 
BRANCH   3   4
HETATM    4  C   UNL     1     -10.450   8.780  69.001  1.00  0.00    -0.203 C  
HETATM    5  C   UNL     1      -9.681   9.612  70.028  1.00  0.00    -0.280 C  
ENDBRANCH   3   4
BRANCH   3   6
HETATM    6  C   UNL     1     -10.504  10.898  67.804  1.00  0.00    -0.203 C  
BRANCH   6   7
HETATM    7  C   UNL     1     -11.750  11.800  67.875  1.00  0.00    -0.276 C  
BRANCH   7   8
HETATM    8  N   UNL     1     -11.882  12.463  69.156  1.00  0.00    -0.310 N  
HETATM    9  C   UNL     1     -12.004  13.834  69.227  1.00  0.00    -0.352 C  
HETATM   10  H   UNL     1     -11.885  11.910  70.013  1.00  0.00     0.000 HD 
HETATM   11  O   UNL     1     -11.961  14.563  68.240  1.00  0.00    -0.320 OA 
BRANCH   9  12
HETATM   12  C   UNL     1     -12.217  14.420  70.578  1.00  0.00    -0.411 A  
HETATM   13  C   UNL     1     -11.691  15.665  70.939  1.00  0.00    -0.423 A  
HETATM   14  C   UNL     1     -11.928  16.181  72.218  1.00  0.00    -0.637 A  
HETATM   15  C   UNL     1     -12.659  15.454  73.162  1.00  0.00    -0.465 A  
HETATM   16  C   UNL     1     -13.250  14.251  72.769  1.00  0.00    -0.614 A  
HETATM   17  N   UNL     1     -12.989  16.032  74.392  1.00  0.00    -0.929 NA 
HETATM   18  H2  UNL     1     -13.477  16.910  74.215  1.00  0.00     0.000 HD 
HETATM   19  H1  UNL     1     -13.523  15.502  75.081  1.00  0.00     0.000 HD 
HETATM   20  C   UNL     1     -13.018  13.726  71.493  1.00  0.00    -0.444 A  
ENDBRANCH   9  12
ENDBRANCH   7   8
ENDBRANCH   6   7
ENDBRANCH   3   6
ENDBRANCH   2   3
TORSDOF 6
ENDMDL
MODEL       34
REMARK 921   NORMALIZED FREE ENERGY PREDICTED BY IDOCK:   -4.95 KCAL/MOL
REMARK 922        TOTAL FREE ENERGY PREDICTED BY IDOCK:   -7.17 KCAL/MOL
REMARK 923 INTER-LIGAND FREE ENERGY PREDICTED BY IDOCK:   -6.76 KCAL/MOL
REMARK 924 INTRA-LIGAND FREE ENERGY PREDICTED BY IDOCK:   -0.41 KCAL/MOL
REMARK 927      BINDING AFFINITY PREDICTED BY RF-SCORE:    0.00 PKD
ROOT
HETATM    1  C   UNL     1      -9.906  20.559  67.208  1.00  0.00    -0.581 C  
HETATM    2  C   UNL     1     -10.588  19.195  67.122  1.00  0.00    -0.470 C  
ENDROOT
BRANCH   2   3
HETATM    3  N   UNL     1      -9.739  18.055  67.511  1.00  0.00    -0.282 NA 
BRANCH   3   4
HETATM    4  C   UNL     1      -8.292  18.347  67.444  1.00  0.00    -0.252 C  
HETATM    5  C   UNL     1      -7.487  17.584  66.392  1.00  0.00    -0.334 C  
ENDBRANCH   3   4
BRANCH   3   6
HETATM    6  C   UNL     1     -10.103  17.539  68.855  1.00  0.00    -0.346 C  
BRANCH   6   7
HETATM    7  C   UNL     1     -11.204  16.464  68.889  1.00  0.00    -0.304 C  
BRANCH   7   8
HETATM    8  N   UNL     1     -11.176  15.603  67.724  1.00  0.00    -0.322 N  
HETATM    9  C   UNL     1     -11.685  14.324  67.784  1.00  0.00    -0.374 C  
HETATM   10  H   UNL     1     -10.775  15.948  66.851  1.00  0.00     0.000 HD 
HETATM   11  O   UNL     1     -12.139  13.830  68.812  1.00  0.00    -0.357 OA 
BRANCH   9  12
HETATM   12  C   UNL     1     -11.687  13.542  66.518  1.00  0.00    -0.408 A  
HETATM   13  C   UNL     1     -12.279  14.026  65.347  1.00  0.00    -0.453 A  
HETATM   14  C   UNL     1     -12.244  13.260  64.176  1.00  0.00    -0.465 A  
HETATM   15  C   UNL     1     -11.654  11.993  64.164  1.00  0.00    -0.379 A  
HETATM   16  C   UNL     1     -10.993  11.551  65.313  1.00  0.00    -0.291 A  
HETATM   17  N   UNL     1     -11.521  11.291  62.961  1.00  0.00    -0.818 NA 
HETATM   18  H2  UNL     1     -11.025  11.884  62.296  1.00  0.00     0.000 HD 
HETATM   19  H1  UNL     1     -11.090  10.367  62.952  1.00  0.00     0.000 HD 
HETATM   20  C   UNL     1     -11.023  12.310  66.488  1.00  0.00    -0.320 A  
ENDBRANCH   9  12
ENDBRANCH   7   8
ENDBRANCH   6   7
ENDBRANCH   3   6
ENDBRANCH   2   3
TORSDOF 6
ENDMDL
MODEL       35
REMARK 921   NORMALIZED FREE ENERGY PREDICTED BY IDOCK:   -4.94 KCAL/MOL
REMARK 922        TOTAL FREE ENERGY PREDICTED BY IDOCK:   -7.14 KCAL/MOL
REMARK 923 INTER-LIGAND FREE ENERGY PREDICTED BY IDOCK:   -6.73 KCAL/MOL
REMARK 924 INTRA-LIGAND FREE ENERGY PREDICTED BY IDOCK:   -0.41 KCAL/MOL
REMARK 927      BINDING AFFINITY PREDICTED BY RF-SCORE:    0.00 PKD
ROOT
HETATM    1  C   UNL     1     -11.541  14.223  65.165  1.00  0.00    -0.355 C  
HETATM    2  C   UNL     1     -11.567  13.926  66.663  1.00  0.00    -0.374 C  
ENDROOT
BRANCH   2   3
HETATM    3  N   UNL     1     -10.548  14.642  67.451  1.00  0.00    -0.262 NA 
BRANCH   3   4
HETATM    4  C   UNL     1     -10.554  16.104  67.235  1.00  0.00    -0.305 C  
HETATM    5  C   UNL     1     -10.290  16.978  68.462  1.00  0.00    -0.359 C  
ENDBRANCH   3   4
BRANCH   3   6
HETATM    6  C   UNL     1     -10.662  14.330  68.898  1.00  0.00    -0.257 C  
BRANCH   6   7
HETATM    7  C   UNL     1     -12.034  13.816  69.371  1.00  0.00    -0.347 C  
BRANCH   7   8
HETATM    8  N   UNL     1     -11.924  12.668  70.247  1.00  0.00    -0.502 N  
HETATM    9  C   UNL     1     -12.074  11.390  69.751  1.00  0.00    -0.320 C  
HETATM   10  H   UNL     1     -11.734  12.806  71.240  1.00  0.00     0.000 HD 
HETATM   11  O   UNL     1     -12.349  11.154  68.579  1.00  0.00    -0.561 OA 
BRANCH   9  12
HETATM   12  C   UNL     1     -11.864  10.270  70.708  1.00  0.00    -0.459 A  
HETATM   13  C   UNL     1     -12.898   9.772  71.507  1.00  0.00    -0.502 A  
HETATM   14  C   UNL     1     -12.656   8.708  72.383  1.00  0.00    -0.426 A  
HETATM   15  C   UNL     1     -11.379   8.151  72.501  1.00  0.00    -0.401 A  
HETATM   16  C   UNL     1     -10.372   8.597  71.642  1.00  0.00    -0.366 A  
HETATM   17  N   UNL     1     -11.179   7.013  73.290  1.00  0.00    -0.545 NA 
HETATM   18  H2  UNL     1     -11.820   6.285  72.973  1.00  0.00     0.000 HD 
HETATM   19  H1  UNL     1     -10.247   6.606  73.376  1.00  0.00     0.000 HD 
HETATM   20  C   UNL     1     -10.604   9.660  70.763  1.00  0.00    -0.392 A  
ENDBRANCH   9  12
ENDBRANCH   7   8
ENDBRANCH   6   7
ENDBRANCH   3   6
ENDBRANCH   2   3
TORSDOF 6
ENDMDL
MODEL       36
REMARK 921   NORMALIZED FREE ENERGY PREDICTED BY IDOCK:   -4.93 KCAL/MOL
REMARK 922        TOTAL FREE ENERGY PREDICTED BY IDOCK:   -7.14 KCAL/MOL
REMARK 923 INTER-LIGAND FREE ENERGY PREDICTED BY IDOCK:   -6.85 KCAL/MOL
REMARK 924 INTRA-LIGAND FREE ENERGY PREDICTED BY IDOCK:   -0.29 KCAL/MOL
REMARK 927      BINDING AFFINITY PREDICTED BY RF-SCORE:    0.00 PKD
ROOT
HETATM    1  C   UNL     1     -10.510  18.818  67.677  1.00  0.00    -0.495 C  
HETATM    2  C   UNL     1     -10.323  17.535  68.485  1.00  0.00    -0.380 C  
ENDROOT
BRANCH   2   3
HETATM    3  N   UNL     1     -10.882  16.325  67.857  1.00  0.00    -0.334 NA 
BRANCH   3   4
HETATM    4  C   UNL     1     -10.039  15.778  66.773  1.00  0.00    -0.271 C  
HETATM    5  C   UNL     1     -10.596  15.885  65.353  1.00  0.00    -0.439 C  
ENDBRANCH   3   4
BRANCH   3   6
HETATM    6  C   UNL     1     -11.174  15.275  68.866  1.00  0.00    -0.285 C  
BRANCH   6   7
HETATM    7  C   UNL     1     -11.633  13.915  68.311  1.00  0.00    -0.337 C  
BRANCH   7   8
HETATM    8  N   UNL     1     -11.630  12.874  69.318  1.00  0.00    -0.296 N  
HETATM    9  C   UNL     1     -11.809  11.554  68.964  1.00  0.00    -0.343 C  
HETATM   10  H   UNL     1     -11.494  13.121  70.299  1.00  0.00     0.000 HD 
HETATM   11  O   UNL     1     -12.024  11.192  67.811  1.00  0.00    -0.630 OA 
BRANCH   9  12
HETATM   12  C   UNL     1     -11.710  10.547  70.055  1.00  0.00    -0.394 A  
HETATM   13  C   UNL     1     -10.505   9.909  70.370  1.00  0.00    -0.347 A  
HETATM   14  C   UNL     1     -10.458   8.978  71.413  1.00  0.00    -0.395 A  
HETATM   15  C   UNL     1     -11.610   8.645  72.132  1.00  0.00    -0.370 A  
HETATM   16  C   UNL     1     -12.790   9.345  71.867  1.00  0.00    -0.497 A  
HETATM   17  N   UNL     1     -11.524   7.805  73.247  1.00  0.00    -0.609 NA 
HETATM   18  H2  UNL     1     -10.843   8.199  73.895  1.00  0.00     0.000 HD 
HETATM   19  H1  UNL     1     -12.365   7.562  73.772  1.00  0.00     0.000 HD 
HETATM   20  C   UNL     1     -12.847  10.277  70.826  1.00  0.00    -0.427 A  
ENDBRANCH   9  12
ENDBRANCH   7   8
ENDBRANCH   6   7
ENDBRANCH   3   6
ENDBRANCH   2   3
TORSDOF 6
ENDMDL
MODEL       37
REMARK 921   NORMALIZED FREE ENERGY PREDICTED BY IDOCK:   -4.93 KCAL/MOL
REMARK 922        TOTAL FREE ENERGY PREDICTED BY IDOCK:   -7.13 KCAL/MOL
REMARK 923 INTER-LIGAND FREE ENERGY PREDICTED BY IDOCK:   -6.61 KCAL/MOL
REMARK 924 INTRA-LIGAND FREE ENERGY PREDICTED BY IDOCK:   -0.53 KCAL/MOL
REMARK 927      BINDING AFFINITY PREDICTED BY RF-SCORE:    0.00 PKD
ROOT
HETATM    1  C   UNL     1     -10.702   7.472  73.141  1.00  0.00    -0.452 C  
HETATM    2  C   UNL     1     -11.269   7.138  71.762  1.00  0.00    -0.246 C  
ENDROOT
BRANCH   2   3
HETATM    3  N   UNL     1     -11.637   8.309  70.947  1.00  0.00    -0.277 NA 
BRANCH   3   4
HETATM    4  C   UNL     1     -11.846   9.539  71.740  1.00  0.00    -0.360 C  
HETATM    5  C   UNL     1     -13.283  10.053  71.839  1.00  0.00    -0.557 C  
ENDBRANCH   3   4
BRANCH   3   6
HETATM    6  C   UNL     1     -10.648   8.551  69.866  1.00  0.00    -0.228 C  
BRANCH   6   7
HETATM    7  C   UNL     1     -10.140   9.998  69.727  1.00  0.00    -0.248 C  
BRANCH   7   8
HETATM    8  N   UNL     1     -10.466  10.580  68.442  1.00  0.00    -0.176 N  
HETATM    9  C   UNL     1     -11.325  11.655  68.356  1.00  0.00    -0.279 C  
HETATM   10  H   UNL     1     -10.056  10.191  67.593  1.00  0.00     0.000 HD 
HETATM   11  O   UNL     1     -11.888  12.143  69.331  1.00  0.00    -0.299 OA 
BRANCH   9  12
HETATM   12  C   UNL     1     -11.537  12.238  67.003  1.00  0.00    -0.418 A  
HETATM   13  C   UNL     1     -10.963  11.680  65.856  1.00  0.00    -0.334 A  
HETATM   14  C   UNL     1     -11.202  12.256  64.603  1.00  0.00    -0.363 A  
HETATM   15  C   UNL     1     -11.983  13.409  64.480  1.00  0.00    -0.407 A  
HETATM   16  C   UNL     1     -12.620  13.912  65.617  1.00  0.00    -0.553 A  
HETATM   17  N   UNL     1     -12.311  13.903  63.212  1.00  0.00    -1.148 NA 
HETATM   18  H2  UNL     1     -12.756  13.154  62.681  1.00  0.00     0.000 HD 
HETATM   19  H1  UNL     1     -12.882  14.744  63.122  1.00  0.00     0.000 HD 
HETATM   20  C   UNL     1     -12.387  13.343  66.874  1.00  0.00    -0.262 A  
ENDBRANCH   9  12
ENDBRANCH   7   8
ENDBRANCH   6   7
ENDBRANCH   3   6
ENDBRANCH   2   3
TORSDOF 6
ENDMDL
MODEL       38
REMARK 921   NORMALIZED FREE ENERGY PREDICTED BY IDOCK:   -4.92 KCAL/MOL
REMARK 922        TOTAL FREE ENERGY PREDICTED BY IDOCK:   -7.12 KCAL/MOL
REMARK 923 INTER-LIGAND FREE ENERGY PREDICTED BY IDOCK:   -6.76 KCAL/MOL
REMARK 924 INTRA-LIGAND FREE ENERGY PREDICTED BY IDOCK:   -0.36 KCAL/MOL
REMARK 927      BINDING AFFINITY PREDICTED BY RF-SCORE:    0.00 PKD
ROOT
HETATM    1  C   UNL     1      -9.763  10.968  62.969  1.00  0.00    -0.381 C  
HETATM    2  C   UNL     1     -10.636  12.107  63.494  1.00  0.00    -0.458 C  
ENDROOT
BRANCH   2   3
HETATM    3  N   UNL     1     -11.499  11.748  64.633  1.00  0.00    -0.275 NA 
BRANCH   3   4
HETATM    4  C   UNL     1     -10.748  11.325  65.833  1.00  0.00    -0.232 C  
HETATM    5  C   UNL     1     -11.279  11.815  67.181  1.00  0.00    -0.375 C  
ENDBRANCH   3   4
BRANCH   3   6
HETATM    6  C   UNL     1     -12.439  12.847  64.969  1.00  0.00    -0.492 C  
BRANCH   6   7
HETATM    7  C   UNL     1     -12.067  14.241  64.432  1.00  0.00    -0.468 C  
BRANCH   7   8
HETATM    8  N   UNL     1     -11.168  14.954  65.316  1.00  0.00    -0.354 N  
HETATM    9  C   UNL     1     -10.904  16.293  65.117  1.00  0.00    -0.318 C  
HETATM   10  H   UNL     1     -10.725  14.461  66.092  1.00  0.00     0.000 HD 
HETATM   11  O   UNL     1     -11.364  16.935  64.178  1.00  0.00    -1.208 OA 
BRANCH   9  12
HETATM   12  C   UNL     1     -10.032  16.961  66.121  1.00  0.00    -0.332 A  
HETATM   13  C   UNL     1      -8.764  16.471  66.448  1.00  0.00    -0.357 A  
HETATM   14  C   UNL     1      -7.975  17.141  67.390  1.00  0.00    -0.197 A  
HETATM   15  C   UNL     1      -8.449  18.283  68.041  1.00  0.00    -0.262 A  
HETATM   16  C   UNL     1      -9.681  18.814  67.651  1.00  0.00    -0.347 A  
HETATM   17  N   UNL     1      -7.606  19.009  68.889  1.00  0.00    -0.336 NA 
HETATM   18  H2  UNL     1      -6.766  19.261  68.368  1.00  0.00     0.000 HD 
HETATM   19  H1  UNL     1      -7.951  19.843  69.364  1.00  0.00     0.000 HD 
HETATM   20  C   UNL     1     -10.477  18.151  66.711  1.00  0.00    -0.363 A  
ENDBRANCH   9  12
ENDBRANCH   7   8
ENDBRANCH   6   7
ENDBRANCH   3   6
ENDBRANCH   2   3
TORSDOF 6
ENDMDL
MODEL       39
REMARK 921   NORMALIZED FREE ENERGY PREDICTED BY IDOCK:   -4.89 KCAL/MOL
REMARK 922        TOTAL FREE ENERGY PREDICTED BY IDOCK:   -7.09 KCAL/MOL
REMARK 923 INTER-LIGAND FREE ENERGY PREDICTED BY IDOCK:   -7.10 KCAL/MOL
REMARK 924 INTRA-LIGAND FREE ENERGY PREDICTED BY IDOCK:    0.01 KCAL/MOL
REMARK 927      BINDING AFFINITY PREDICTED BY RF-SCORE:    0.00 PKD
ROOT
HETATM    1  C   UNL     1     -12.178  10.420  71.182  1.00  0.00    -0.498 C  
HETATM    2  C   UNL     1     -11.784   8.974  70.884  1.00  0.00    -0.276 C  
ENDROOT
BRANCH   2   3
HETATM    3  N   UNL     1     -10.498   8.819  70.181  1.00  0.00    -0.207 NA 
BRANCH   3   4
HETATM    4  C   UNL     1     -10.327   7.495  69.547  1.00  0.00    -0.216 C  
HETATM    5  C   UNL     1     -11.373   6.432  69.889  1.00  0.00    -0.500 C  
ENDBRANCH   3   4
BRANCH   3   6
HETATM    6  C   UNL     1     -10.288   9.901  69.186  1.00  0.00    -0.209 C  
BRANCH   6   7
HETATM    7  C   UNL     1     -10.563   9.529  67.717  1.00  0.00    -0.261 C  
BRANCH   7   8
HETATM    8  N   UNL     1     -10.668  10.693  66.861  1.00  0.00    -0.255 N  
HETATM    9  C   UNL     1     -11.584  11.686  67.136  1.00  0.00    -0.212 C  
HETATM   10  H   UNL     1     -10.060  10.777  66.046  1.00  0.00     0.000 HD 
HETATM   11  O   UNL     1     -12.377  11.627  68.071  1.00  0.00    -0.429 OA 
BRANCH   9  12
HETATM   12  C   UNL     1     -11.565  12.881  66.249  1.00  0.00    -0.424 A  
HETATM   13  C   UNL     1     -12.296  12.933  65.058  1.00  0.00    -0.541 A  
HETATM   14  C   UNL     1     -12.257  14.084  64.262  1.00  0.00    -0.453 A  
HETATM   15  C   UNL     1     -11.467  15.179  64.622  1.00  0.00    -0.362 A  
HETATM   16  C   UNL     1     -10.805  15.152  65.852  1.00  0.00    -0.342 A  
HETATM   17  N   UNL     1     -11.531  16.364  63.882  1.00  0.00    -1.618 NA 
HETATM   18  H2  UNL     1     -12.503  16.668  63.844  1.00  0.00     0.000 HD 
HETATM   19  H1  UNL     1     -10.954  17.164  64.144  1.00  0.00     0.000 HD 
HETATM   20  C   UNL     1     -10.837  14.007  66.654  1.00  0.00    -0.297 A  
ENDBRANCH   9  12
ENDBRANCH   7   8
ENDBRANCH   6   7
ENDBRANCH   3   6
ENDBRANCH   2   3
TORSDOF 6
ENDMDL
MODEL       40
REMARK 921   NORMALIZED FREE ENERGY PREDICTED BY IDOCK:   -4.86 KCAL/MOL
REMARK 922        TOTAL FREE ENERGY PREDICTED BY IDOCK:   -7.04 KCAL/MOL
REMARK 923 INTER-LIGAND FREE ENERGY PREDICTED BY IDOCK:   -6.49 KCAL/MOL
REMARK 924 INTRA-LIGAND FREE ENERGY PREDICTED BY IDOCK:   -0.54 KCAL/MOL
REMARK 927      BINDING AFFINITY PREDICTED BY RF-SCORE:    0.00 PKD
ROOT
HETATM    1  C   UNL     1     -13.687   8.776  71.911  1.00  0.00    -0.477 C  
HETATM    2  C   UNL     1     -12.818   7.542  71.673  1.00  0.00    -0.358 C  
ENDROOT
BRANCH   2   3
HETATM    3  N   UNL     1     -11.387   7.827  71.467  1.00  0.00    -0.250 NA 
BRANCH   3   4
HETATM    4  C   UNL     1     -10.492   6.809  72.056  1.00  0.00    -0.202 C  
HETATM    5  C   UNL     1     -11.145   5.763  72.960  1.00  0.00    -0.305 C  
ENDBRANCH   3   4
BRANCH   3   6
HETATM    6  C   UNL     1     -11.074   8.024  70.029  1.00  0.00    -0.154 C  
BRANCH   6   7
HETATM    7  C   UNL     1     -10.331   9.325  69.673  1.00  0.00    -0.217 C  
BRANCH   7   8
HETATM    8  N   UNL     1     -10.885  10.482  70.345  1.00  0.00    -0.447 N  
HETATM    9  C   UNL     1     -11.757  11.324  69.688  1.00  0.00    -0.350 C  
HETATM   10  H   UNL     1     -10.628  10.676  71.313  1.00  0.00     0.000 HD 
HETATM   11  O   UNL     1     -12.073  11.177  68.511  1.00  0.00    -0.586 OA 
BRANCH   9  12
HETATM   12  C   UNL     1     -12.339  12.441  70.482  1.00  0.00    -0.346 A  
HETATM   13  C   UNL     1     -12.238  13.774  70.073  1.00  0.00    -0.407 A  
HETATM   14  C   UNL     1     -12.811  14.789  70.847  1.00  0.00    -0.423 A  
HETATM   15  C   UNL     1     -13.461  14.496  72.050  1.00  0.00    -0.384 A  
HETATM   16  C   UNL     1     -13.629  13.156  72.410  1.00  0.00    -0.667 A  
HETATM   17  N   UNL     1     -14.131  15.504  72.750  1.00  0.00    -0.509 NA 
HETATM   18  H2  UNL     1     -14.804  15.941  72.120  1.00  0.00     0.000 HD 
HETATM   19  H1  UNL     1     -14.606  15.290  73.628  1.00  0.00     0.000 HD 
HETATM   20  C   UNL     1     -13.059  12.135  71.643  1.00  0.00    -0.413 A  
ENDBRANCH   9  12
ENDBRANCH   7   8
ENDBRANCH   6   7
ENDBRANCH   3   6
ENDBRANCH   2   3
TORSDOF 6
ENDMDL
MODEL       41
REMARK 921   NORMALIZED FREE ENERGY PREDICTED BY IDOCK:   -4.84 KCAL/MOL
REMARK 922        TOTAL FREE ENERGY PREDICTED BY IDOCK:   -7.02 KCAL/MOL
REMARK 923 INTER-LIGAND FREE ENERGY PREDICTED BY IDOCK:   -6.56 KCAL/MOL
REMARK 924 INTRA-LIGAND FREE ENERGY PREDICTED BY IDOCK:   -0.46 KCAL/MOL
REMARK 927      BINDING AFFINITY PREDICTED BY RF-SCORE:    0.00 PKD
ROOT
HETATM    1  C   UNL     1     -10.845  16.465  69.735  1.00  0.00    -0.343 C  
HETATM    2  C   UNL     1     -11.379  15.799  71.003  1.00  0.00    -0.392 C  
ENDROOT
BRANCH   2   3
HETATM    3  N   UNL     1     -12.117  14.544  70.776  1.00  0.00    -0.308 NA 
BRANCH   3   4
HETATM    4  C   UNL     1     -13.462  14.531  71.388  1.00  0.00    -0.375 C  
HETATM    5  C   UNL     1     -13.775  13.366  72.328  1.00  0.00    -0.705 C  
ENDBRANCH   3   4
BRANCH   3   6
HETATM    6  C   UNL     1     -12.202  14.218  69.330  1.00  0.00    -0.252 C  
BRANCH   6   7
HETATM    7  C   UNL     1     -11.451  12.952  68.879  1.00  0.00    -0.304 C  
BRANCH   7   8
HETATM    8  N   UNL     1     -11.415  11.932  69.907  1.00  0.00    -0.495 N  
HETATM    9  C   UNL     1     -10.980  10.656  69.615  1.00  0.00    -0.278 C  
HETATM   10  H   UNL     1     -11.714  12.160  70.855  1.00  0.00     0.000 HD 
HETATM   11  O   UNL     1     -10.651  10.302  68.487  1.00  0.00    -0.190 OA 
BRANCH   9  12
HETATM   12  C   UNL     1     -10.901   9.698  70.751  1.00  0.00    -0.400 A  
HETATM   13  C   UNL     1      -9.688   9.139  71.166  1.00  0.00    -0.360 A  
HETATM   14  C   UNL     1      -9.661   8.251  72.248  1.00  0.00    -0.362 A  
HETATM   15  C   UNL     1     -10.839   7.884  72.906  1.00  0.00    -0.386 A  
HETATM   16  C   UNL     1     -12.033   8.509  72.539  1.00  0.00    -0.401 A  
HETATM   17  N   UNL     1     -10.783   7.093  74.058  1.00  0.00    -0.556 NA 
HETATM   18  H2  UNL     1     -10.167   7.548  74.731  1.00  0.00     0.000 HD 
HETATM   19  H1  UNL     1     -11.642   6.825  74.538  1.00  0.00     0.000 HD 
HETATM   20  C   UNL     1     -12.071   9.397  71.458  1.00  0.00    -0.456 A  
ENDBRANCH   9  12
ENDBRANCH   7   8
ENDBRANCH   6   7
ENDBRANCH   3   6
ENDBRANCH   2   3
TORSDOF 6
ENDMDL
MODEL       42
REMARK 921   NORMALIZED FREE ENERGY PREDICTED BY IDOCK:   -4.83 KCAL/MOL
REMARK 922        TOTAL FREE ENERGY PREDICTED BY IDOCK:   -7.01 KCAL/MOL
REMARK 923 INTER-LIGAND FREE ENERGY PREDICTED BY IDOCK:   -6.61 KCAL/MOL
REMARK 924 INTRA-LIGAND FREE ENERGY PREDICTED BY IDOCK:   -0.40 KCAL/MOL
REMARK 927      BINDING AFFINITY PREDICTED BY RF-SCORE:    0.00 PKD
ROOT
HETATM    1  C   UNL     1     -10.679   8.220  71.853  1.00  0.00    -0.350 C  
HETATM    2  C   UNL     1     -10.892   8.004  70.356  1.00  0.00    -0.247 C  
ENDROOT
BRANCH   2   3
HETATM    3  N   UNL     1      -9.747   8.384  69.509  1.00  0.00    -0.174 NA 
BRANCH   3   4
HETATM    4  C   UNL     1      -9.700   7.662  68.220  1.00  0.00    -0.157 C  
HETATM    5  C   UNL     1     -10.806   6.636  67.969  1.00  0.00    -0.345 C  
ENDBRANCH   3   4
BRANCH   3   6
HETATM    6  C   UNL     1      -9.702   9.851  69.284  1.00  0.00    -0.208 C  
BRANCH   6   7
HETATM    7  C   UNL     1     -11.047  10.526  68.959  1.00  0.00    -0.249 C  
BRANCH   7   8
HETATM    8  N   UNL     1     -11.441  11.490  69.965  1.00  0.00    -0.472 N  
HETATM    9  C   UNL     1     -11.853  12.755  69.601  1.00  0.00    -0.317 C  
HETATM   10  H   UNL     1     -11.414  11.231  70.951  1.00  0.00     0.000 HD 
HETATM   11  O   UNL     1     -11.865  13.147  68.438  1.00  0.00    -0.332 OA 
BRANCH   9  12
HETATM   12  C   UNL     1     -12.317  13.650  70.695  1.00  0.00    -0.440 A  
HETATM   13  C   UNL     1     -13.245  13.232  71.654  1.00  0.00    -0.446 A  
HETATM   14  C   UNL     1     -13.642  14.106  72.673  1.00  0.00    -0.618 A  
HETATM   15  C   UNL     1     -13.148  15.412  72.731  1.00  0.00    -0.466 A  
HETATM   16  C   UNL     1     -12.161  15.796  71.820  1.00  0.00    -0.541 A  
HETATM   17  N   UNL     1     -13.460  16.233  73.820  1.00  0.00    -0.884 NA 
HETATM   18  H2  UNL     1     -13.190  15.749  74.676  1.00  0.00     0.000 HD 
HETATM   19  H1  UNL     1     -13.100  17.187  73.862  1.00  0.00     0.000 HD 
HETATM   20  C   UNL     1     -11.758  14.930  70.798  1.00  0.00    -0.364 A  
ENDBRANCH   9  12
ENDBRANCH   7   8
ENDBRANCH   6   7
ENDBRANCH   3   6
ENDBRANCH   2   3
TORSDOF 6
ENDMDL
MODEL       43
REMARK 921   NORMALIZED FREE ENERGY PREDICTED BY IDOCK:   -4.83 KCAL/MOL
REMARK 922        TOTAL FREE ENERGY PREDICTED BY IDOCK:   -7.00 KCAL/MOL
REMARK 923 INTER-LIGAND FREE ENERGY PREDICTED BY IDOCK:   -6.64 KCAL/MOL
REMARK 924 INTRA-LIGAND FREE ENERGY PREDICTED BY IDOCK:   -0.36 KCAL/MOL
REMARK 927      BINDING AFFINITY PREDICTED BY RF-SCORE:    0.00 PKD
ROOT
HETATM    1  C   UNL     1     -10.470   7.778  73.204  1.00  0.00    -0.413 C  
HETATM    2  C   UNL     1     -10.436   8.734  72.012  1.00  0.00    -0.344 C  
ENDROOT
BRANCH   2   3
HETATM    3  N   UNL     1     -11.537   8.556  71.048  1.00  0.00    -0.278 NA 
BRANCH   3   4
HETATM    4  C   UNL     1     -12.199   7.238  71.143  1.00  0.00    -0.340 C  
HETATM    5  C   UNL     1     -13.683   7.242  71.512  1.00  0.00    -0.451 C  
ENDBRANCH   3   4
BRANCH   3   6
HETATM    6  C   UNL     1     -12.537   9.648  71.159  1.00  0.00    -0.322 C  
BRANCH   6   7
HETATM    7  C   UNL     1     -12.141  10.993  70.524  1.00  0.00    -0.377 C  
BRANCH   7   8
HETATM    8  N   UNL     1     -11.872  10.879  69.105  1.00  0.00    -0.399 N  
HETATM    9  C   UNL     1     -11.717  12.006  68.327  1.00  0.00    -0.334 C  
HETATM   10  H   UNL     1     -11.798   9.955  68.678  1.00  0.00     0.000 HD 
HETATM   11  O   UNL     1     -11.841  13.146  68.766  1.00  0.00    -0.303 OA 
BRANCH   9  12
HETATM   12  C   UNL     1     -11.364  11.792  66.897  1.00  0.00    -0.386 A  
HETATM   13  C   UNL     1     -10.464  10.799  66.496  1.00  0.00    -0.299 A  
HETATM   14  C   UNL     1     -10.172  10.626  65.138  1.00  0.00    -0.368 A  
HETATM   15  C   UNL     1     -10.742  11.458  64.170  1.00  0.00    -0.371 A  
HETATM   16  C   UNL     1     -11.701  12.392  64.569  1.00  0.00    -0.427 A  
HETATM   17  N   UNL     1     -10.535  11.198  62.811  1.00  0.00    -0.759 NA 
HETATM   18  H2  UNL     1     -10.822  10.238  62.619  1.00  0.00     0.000 HD 
HETATM   19  H1  UNL     1     -10.951  11.804  62.103  1.00  0.00     0.000 HD 
HETATM   20  C   UNL     1     -11.999  12.572  65.924  1.00  0.00    -0.472 A  
ENDBRANCH   9  12
ENDBRANCH   7   8
ENDBRANCH   6   7
ENDBRANCH   3   6
ENDBRANCH   2   3
TORSDOF 6
ENDMDL
MODEL       44
REMARK 921   NORMALIZED FREE ENERGY PREDICTED BY IDOCK:   -4.83 KCAL/MOL
REMARK 922        TOTAL FREE ENERGY PREDICTED BY IDOCK:   -7.00 KCAL/MOL
REMARK 923 INTER-LIGAND FREE ENERGY PREDICTED BY IDOCK:   -6.62 KCAL/MOL
REMARK 924 INTRA-LIGAND FREE ENERGY PREDICTED BY IDOCK:   -0.38 KCAL/MOL
REMARK 927      BINDING AFFINITY PREDICTED BY RF-SCORE:    0.00 PKD
ROOT
HETATM    1  C   UNL     1     -11.025  16.008  67.658  1.00  0.00    -0.284 C  
HETATM    2  C   UNL     1     -10.063  14.931  67.156  1.00  0.00    -0.240 C  
ENDROOT
BRANCH   2   3
HETATM    3  N   UNL     1     -10.673  13.605  66.958  1.00  0.00    -0.277 NA 
BRANCH   3   4
HETATM    4  C   UNL     1     -11.557  13.532  65.776  1.00  0.00    -0.330 C  
HETATM    5  C   UNL     1     -10.876  13.312  64.424  1.00  0.00    -0.422 C  
ENDBRANCH   3   4
BRANCH   3   6
HETATM    6  C   UNL     1      -9.644  12.536  66.903  1.00  0.00    -0.229 C  
BRANCH   6   7
HETATM    7  C   UNL     1      -9.093  12.059  68.260  1.00  0.00    -0.190 C  
BRANCH   7   8
HETATM    8  N   UNL     1     -10.132  11.553  69.133  1.00  0.00    -0.417 N  
HETATM    9  C   UNL     1     -10.079  10.260  69.609  1.00  0.00    -0.224 C  
HETATM   10  H   UNL     1     -10.909  12.158  69.398  1.00  0.00     0.000 HD 
HETATM   11  O   UNL     1      -9.199   9.465  69.294  1.00  0.00    -0.148 OA 
BRANCH   9  12
HETATM   12  C   UNL     1     -11.145   9.853  70.564  1.00  0.00    -0.398 A  
HETATM   13  C   UNL     1     -11.034   8.704  71.355  1.00  0.00    -0.341 A  
HETATM   14  C   UNL     1     -12.058   8.368  72.248  1.00  0.00    -0.456 A  
HETATM   15  C   UNL     1     -13.214   9.148  72.342  1.00  0.00    -0.444 A  
HETATM   16  C   UNL     1     -13.281  10.337  71.612  1.00  0.00    -0.509 A  
HETATM   17  N   UNL     1     -14.172   8.869  73.323  1.00  0.00    -1.237 NA 
HETATM   18  H2  UNL     1     -13.711   8.866  74.232  1.00  0.00     0.000 HD 
HETATM   19  H1  UNL     1     -15.016   9.438  73.392  1.00  0.00     0.000 HD 
HETATM   20  C   UNL     1     -12.263  10.681  70.715  1.00  0.00    -0.474 A  
ENDBRANCH   9  12
ENDBRANCH   7   8
ENDBRANCH   6   7
ENDBRANCH   3   6
ENDBRANCH   2   3
TORSDOF 6
ENDMDL
MODEL       45
REMARK 921   NORMALIZED FREE ENERGY PREDICTED BY IDOCK:   -4.82 KCAL/MOL
REMARK 922        TOTAL FREE ENERGY PREDICTED BY IDOCK:   -6.99 KCAL/MOL
REMARK 923 INTER-LIGAND FREE ENERGY PREDICTED BY IDOCK:   -6.64 KCAL/MOL
REMARK 924 INTRA-LIGAND FREE ENERGY PREDICTED BY IDOCK:   -0.35 KCAL/MOL
REMARK 927      BINDING AFFINITY PREDICTED BY RF-SCORE:    0.00 PKD
ROOT
HETATM    1  C   UNL     1     -10.117  10.406  65.773  1.00  0.00    -0.329 C  
HETATM    2  C   UNL     1     -10.783  11.747  65.470  1.00  0.00    -0.279 C  
ENDROOT
BRANCH   2   3
HETATM    3  N   UNL     1     -11.992  12.028  66.264  1.00  0.00    -0.574 NA 
BRANCH   3   4
HETATM    4  C   UNL     1     -11.775  11.933  67.723  1.00  0.00    -0.292 C  
HETATM    5  C   UNL     1     -11.891  13.234  68.519  1.00  0.00    -0.384 C  
ENDBRANCH   3   4
BRANCH   3   6
HETATM    6  C   UNL     1     -12.579  13.346  65.912  1.00  0.00    -0.348 C  
BRANCH   6   7
HETATM    7  C   UNL     1     -11.728  14.239  64.991  1.00  0.00    -0.383 C  
BRANCH   7   8
HETATM    8  N   UNL     1     -10.894  15.163  65.730  1.00  0.00    -0.340 N  
HETATM    9  C   UNL     1     -10.777  16.478  65.330  1.00  0.00    -0.259 C  
HETATM   10  H   UNL     1     -10.387  14.838  66.554  1.00  0.00     0.000 HD 
HETATM   11  O   UNL     1     -11.320  16.923  64.324  1.00  0.00    -1.202 OA 
BRANCH   9  12
HETATM   12  C   UNL     1      -9.963  17.373  66.197  1.00  0.00    -0.281 A  
HETATM   13  C   UNL     1     -10.504  18.510  66.804  1.00  0.00    -0.432 A  
HETATM   14  C   UNL     1      -9.702  19.316  67.621  1.00  0.00    -0.412 A  
HETATM   15  C   UNL     1      -8.349  19.020  67.816  1.00  0.00    -0.288 A  
HETATM   16  C   UNL     1      -7.838  17.839  67.274  1.00  0.00    -0.225 A  
HETATM   17  N   UNL     1      -7.592  19.763  68.728  1.00  0.00    -0.307 NA 
HETATM   18  H2  UNL     1      -8.061  19.735  69.633  1.00  0.00     0.000 HD 
HETATM   19  H1  UNL     1      -6.605  19.547  68.870  1.00  0.00     0.000 HD 
HETATM   20  C   UNL     1      -8.631  17.028  66.455  1.00  0.00    -0.305 A  
ENDBRANCH   9  12
ENDBRANCH   7   8
ENDBRANCH   6   7
ENDBRANCH   3   6
ENDBRANCH   2   3
TORSDOF 6
ENDMDL
MODEL       46
REMARK 921   NORMALIZED FREE ENERGY PREDICTED BY IDOCK:   -4.80 KCAL/MOL
REMARK 922        TOTAL FREE ENERGY PREDICTED BY IDOCK:   -6.97 KCAL/MOL
REMARK 923 INTER-LIGAND FREE ENERGY PREDICTED BY IDOCK:   -6.65 KCAL/MOL
REMARK 924 INTRA-LIGAND FREE ENERGY PREDICTED BY IDOCK:   -0.32 KCAL/MOL
REMARK 927      BINDING AFFINITY PREDICTED BY RF-SCORE:    0.00 PKD
ROOT
HETATM    1  C   UNL     1      -9.363   8.520  71.540  1.00  0.00    -0.289 C  
HETATM    2  C   UNL     1     -10.764   8.550  72.149  1.00  0.00    -0.356 C  
ENDROOT
BRANCH   2   3
HETATM    3  N   UNL     1     -11.821   9.029  71.241  1.00  0.00    -0.296 NA 
BRANCH   3   4
HETATM    4  C   UNL     1     -13.075   9.392  71.934  1.00  0.00    -0.424 C  
HETATM    5  C   UNL     1     -14.272   8.466  71.714  1.00  0.00    -0.536 C  
ENDBRANCH   3   4
BRANCH   3   6
HETATM    6  C   UNL     1     -11.346  10.158  70.402  1.00  0.00    -0.326 C  
BRANCH   6   7
HETATM    7  C   UNL     1     -12.255  11.399  70.364  1.00  0.00    -0.362 C  
BRANCH   7   8
HETATM    8  N   UNL     1     -12.151  12.126  69.115  1.00  0.00    -0.229 N  
HETATM    9  C   UNL     1     -11.883  13.478  69.110  1.00  0.00    -0.340 C  
HETATM   10  H   UNL     1     -12.277  11.632  68.231  1.00  0.00     0.000 HD 
HETATM   11  O   UNL     1     -11.766  14.142  70.136  1.00  0.00    -0.281 OA 
BRANCH   9  12
HETATM   12  C   UNL     1     -11.713  14.124  67.780  1.00  0.00    -0.408 A  
HETATM   13  C   UNL     1     -12.344  13.636  66.632  1.00  0.00    -0.381 A  
HETATM   14  C   UNL     1     -12.165  14.284  65.405  1.00  0.00    -0.408 A  
HETATM   15  C   UNL     1     -11.331  15.402  65.298  1.00  0.00    -0.243 A  
HETATM   16  C   UNL     1     -10.770  15.932  66.463  1.00  0.00    -0.258 A  
HETATM   17  N   UNL     1     -11.256  16.109  64.094  1.00  0.00    -1.197 NA 
HETATM   18  H2  UNL     1     -12.200  16.385  63.823  1.00  0.00     0.000 HD 
HETATM   19  H1  UNL     1     -10.648  16.925  64.016  1.00  0.00     0.000 HD 
HETATM   20  C   UNL     1     -10.944  15.291  67.694  1.00  0.00    -0.311 A  
ENDBRANCH   9  12
ENDBRANCH   7   8
ENDBRANCH   6   7
ENDBRANCH   3   6
ENDBRANCH   2   3
TORSDOF 6
ENDMDL
MODEL       47
REMARK 921   NORMALIZED FREE ENERGY PREDICTED BY IDOCK:   -4.80 KCAL/MOL
REMARK 922        TOTAL FREE ENERGY PREDICTED BY IDOCK:   -6.96 KCAL/MOL
REMARK 923 INTER-LIGAND FREE ENERGY PREDICTED BY IDOCK:   -6.37 KCAL/MOL
REMARK 924 INTRA-LIGAND FREE ENERGY PREDICTED BY IDOCK:   -0.59 KCAL/MOL
REMARK 927      BINDING AFFINITY PREDICTED BY RF-SCORE:    0.00 PKD
ROOT
HETATM    1  C   UNL     1     -11.124  10.188  69.256  1.00  0.00    -0.270 C  
HETATM    2  C   UNL     1     -10.755  10.655  67.850  1.00  0.00    -0.248 C  
ENDROOT
BRANCH   2   3
HETATM    3  N   UNL     1      -9.309  10.820  67.615  1.00  0.00    -0.147 NA 
BRANCH   3   4
HETATM    4  C   UNL     1      -8.937  10.803  66.185  1.00  0.00    -0.177 C  
HETATM    5  C   UNL     1     -10.087  10.834  65.178  1.00  0.00    -0.363 C  
ENDBRANCH   3   4
BRANCH   3   6
HETATM    6  C   UNL     1      -8.788  12.045  68.272  1.00  0.00    -0.182 C  
BRANCH   6   7
HETATM    7  C   UNL     1      -9.567  13.344  67.994  1.00  0.00    -0.219 C  
BRANCH   7   8
HETATM    8  N   UNL     1     -10.121  13.927  69.198  1.00  0.00    -0.433 N  
HETATM    9  C   UNL     1     -11.487  14.007  69.375  1.00  0.00    -0.290 C  
HETATM   10  H   UNL     1      -9.496  14.283  69.921  1.00  0.00     0.000 HD 
HETATM   11  O   UNL     1     -12.295  13.641  68.527  1.00  0.00    -0.248 OA 
BRANCH   9  12
HETATM   12  C   UNL     1     -11.964  14.547  70.677  1.00  0.00    -0.387 A  
HETATM   13  C   UNL     1     -12.726  13.781  71.564  1.00  0.00    -0.432 A  
HETATM   14  C   UNL     1     -13.142  14.328  72.783  1.00  0.00    -0.589 A  
HETATM   15  C   UNL     1     -12.835  15.650  73.119  1.00  0.00    -0.509 A  
HETATM   16  C   UNL     1     -12.005  16.382  72.266  1.00  0.00    -0.521 A  
HETATM   17  N   UNL     1     -13.154  16.144  74.388  1.00  0.00    -0.889 NA 
HETATM   18  H2  UNL     1     -12.736  15.530  75.087  1.00  0.00     0.000 HD 
HETATM   19  H1  UNL     1     -12.930  17.109  74.634  1.00  0.00     0.000 HD 
HETATM   20  C   UNL     1     -11.585  15.844  71.045  1.00  0.00    -0.465 A  
ENDBRANCH   9  12
ENDBRANCH   7   8
ENDBRANCH   6   7
ENDBRANCH   3   6
ENDBRANCH   2   3
TORSDOF 6
ENDMDL
MODEL       48
REMARK 921   NORMALIZED FREE ENERGY PREDICTED BY IDOCK:   -4.79 KCAL/MOL
REMARK 922        TOTAL FREE ENERGY PREDICTED BY IDOCK:   -6.95 KCAL/MOL
REMARK 923 INTER-LIGAND FREE ENERGY PREDICTED BY IDOCK:   -6.52 KCAL/MOL
REMARK 924 INTRA-LIGAND FREE ENERGY PREDICTED BY IDOCK:   -0.43 KCAL/MOL
REMARK 927      BINDING AFFINITY PREDICTED BY RF-SCORE:    0.00 PKD
ROOT
HETATM    1  C   UNL     1     -10.218  10.683  67.736  1.00  0.00    -0.212 C  
HETATM    2  C   UNL     1     -10.654  11.926  66.962  1.00  0.00    -0.227 C  
ENDROOT
BRANCH   2   3
HETATM    3  N   UNL     1     -11.899  12.548  67.447  1.00  0.00    -0.460 NA 
BRANCH   3   4
HETATM    4  C   UNL     1     -11.869  12.889  68.884  1.00  0.00    -0.309 C  
HETATM    5  C   UNL     1     -11.946  14.375  69.237  1.00  0.00    -0.362 C  
ENDBRANCH   3   4
BRANCH   3   6
HETATM    6  C   UNL     1     -12.262  13.740  66.638  1.00  0.00    -0.409 C  
BRANCH   6   7
HETATM    7  C   UNL     1     -11.231  14.177  65.582  1.00  0.00    -0.308 C  
BRANCH   7   8
HETATM    8  N   UNL     1     -10.483  15.349  65.989  1.00  0.00    -0.305 N  
HETATM    9  C   UNL     1     -10.620  16.540  65.307  1.00  0.00    -0.253 C  
HETATM   10  H   UNL     1      -9.850  15.293  66.786  1.00  0.00     0.000 HD 
HETATM   11  O   UNL     1     -11.328  16.665  64.312  1.00  0.00    -1.116 OA 
BRANCH   9  12
HETATM   12  C   UNL     1      -9.875  17.711  65.845  1.00  0.00    -0.090 A  
HETATM   13  C   UNL     1      -8.518  17.640  66.172  1.00  0.00    -0.167 A  
HETATM   14  C   UNL     1      -7.856  18.772  66.664  1.00  0.00    -0.275 A  
HETATM   15  C   UNL     1      -8.542  19.973  66.866  1.00  0.00    -0.336 A  
HETATM   16  C   UNL     1      -9.876  20.059  66.460  1.00  0.00    -0.581 A  
HETATM   17  N   UNL     1      -7.844  21.125  67.243  1.00  0.00    -0.633 NA 
HETATM   18  H2  UNL     1      -7.103  21.289  66.563  1.00  0.00     0.000 HD 
HETATM   19  H1  UNL     1      -8.344  22.002  67.391  1.00  0.00     0.000 HD 
HETATM   20  C   UNL     1     -10.546  18.934  65.969  1.00  0.00    -0.470 A  
ENDBRANCH   9  12
ENDBRANCH   7   8
ENDBRANCH   6   7
ENDBRANCH   3   6
ENDBRANCH   2   3
TORSDOF 6
ENDMDL
MODEL       49
REMARK 921   NORMALIZED FREE ENERGY PREDICTED BY IDOCK:   -4.77 KCAL/MOL
REMARK 922        TOTAL FREE ENERGY PREDICTED BY IDOCK:   -6.92 KCAL/MOL
REMARK 923 INTER-LIGAND FREE ENERGY PREDICTED BY IDOCK:   -6.39 KCAL/MOL
REMARK 924 INTRA-LIGAND FREE ENERGY PREDICTED BY IDOCK:   -0.53 KCAL/MOL
REMARK 927      BINDING AFFINITY PREDICTED BY RF-SCORE:    0.00 PKD
ROOT
HETATM    1  C   UNL     1     -10.743  19.592  67.021  1.00  0.00    -0.575 C  
HETATM    2  C   UNL     1      -9.467  19.206  67.768  1.00  0.00    -0.303 C  
ENDROOT
BRANCH   2   3
HETATM    3  N   UNL     1      -8.248  19.190  66.939  1.00  0.00    -0.263 NA 
BRANCH   3   4
HETATM    4  C   UNL     1      -7.030  19.596  67.672  1.00  0.00    -0.240 C  
HETATM    5  C   UNL     1      -7.073  19.468  69.195  1.00  0.00    -0.392 C  
ENDBRANCH   3   4
BRANCH   3   6
HETATM    6  C   UNL     1      -8.049  17.869  66.292  1.00  0.00    -0.231 C  
BRANCH   6   7
HETATM    7  C   UNL     1      -8.410  16.639  67.144  1.00  0.00    -0.177 C  
BRANCH   7   8
HETATM    8  N   UNL     1      -9.108  15.622  66.384  1.00  0.00    -0.293 N  
HETATM    9  C   UNL     1     -10.447  15.379  66.601  1.00  0.00    -0.293 C  
HETATM   10  H   UNL     1      -8.603  15.082  65.681  1.00  0.00     0.000 HD 
HETATM   11  O   UNL     1     -11.103  15.959  67.461  1.00  0.00    -0.312 OA 
BRANCH   9  12
HETATM   12  C   UNL     1     -11.099  14.374  65.718  1.00  0.00    -0.316 A  
HETATM   13  C   UNL     1     -12.460  14.071  65.816  1.00  0.00    -0.523 A  
HETATM   14  C   UNL     1     -13.032  13.127  64.955  1.00  0.00    -0.213 A  
HETATM   15  C   UNL     1     -12.252  12.452  64.011  1.00  0.00    -0.490 A  
HETATM   16  C   UNL     1     -10.913  12.819  63.863  1.00  0.00    -0.458 A  
HETATM   17  N   UNL     1     -12.857  11.602  63.079  1.00  0.00    -0.889 NA 
HETATM   18  H2  UNL     1     -13.578  12.128  62.585  1.00  0.00     0.000 HD 
HETATM   19  H1  UNL     1     -12.289  11.109  62.390  1.00  0.00     0.000 HD 
HETATM   20  C   UNL     1     -10.333  13.761  64.719  1.00  0.00    -0.422 A  
ENDBRANCH   9  12
ENDBRANCH   7   8
ENDBRANCH   6   7
ENDBRANCH   3   6
ENDBRANCH   2   3
TORSDOF 6
ENDMDL
MODEL       50
REMARK 921   NORMALIZED FREE ENERGY PREDICTED BY IDOCK:   -4.74 KCAL/MOL
REMARK 922        TOTAL FREE ENERGY PREDICTED BY IDOCK:   -6.88 KCAL/MOL
REMARK 923 INTER-LIGAND FREE ENERGY PREDICTED BY IDOCK:   -6.31 KCAL/MOL
REMARK 924 INTRA-LIGAND FREE ENERGY PREDICTED BY IDOCK:   -0.57 KCAL/MOL
REMARK 927      BINDING AFFINITY PREDICTED BY RF-SCORE:    0.00 PKD
ROOT
HETATM    1  C   UNL     1     -10.663  16.699  68.905  1.00  0.00    -0.337 C  
HETATM    2  C   UNL     1      -9.642  15.728  68.314  1.00  0.00    -0.201 C  
ENDROOT
BRANCH   2   3
HETATM    3  N   UNL     1     -10.202  14.439  67.873  1.00  0.00    -0.230 NA 
BRANCH   3   4
HETATM    4  C   UNL     1     -11.370  14.576  66.978  1.00  0.00    -0.349 C  
HETATM    5  C   UNL     1     -12.150  13.298  66.669  1.00  0.00    -0.421 C  
ENDBRANCH   3   4
BRANCH   3   6
HETATM    6  C   UNL     1      -9.164  13.583  67.243  1.00  0.00    -0.233 C  
BRANCH   6   7
HETATM    7  C   UNL     1      -8.692  12.375  68.073  1.00  0.00    -0.186 C  
BRANCH   7   8
HETATM    8  N   UNL     1      -9.677  11.951  69.046  1.00  0.00    -0.407 N  
HETATM    9  C   UNL     1     -10.186  10.670  69.016  1.00  0.00    -0.215 C  
HETATM   10  H   UNL     1      -9.996  12.606  69.759  1.00  0.00     0.000 HD 
HETATM   11  O   UNL     1      -9.880   9.846  68.159  1.00  0.00    -0.143 OA 
BRANCH   9  12
HETATM   12  C   UNL     1     -11.131  10.298  70.104  1.00  0.00    -0.385 A  
HETATM   13  C   UNL     1     -12.308  11.015  70.341  1.00  0.00    -0.442 A  
HETATM   14  C   UNL     1     -13.174  10.620  71.368  1.00  0.00    -0.420 A  
HETATM   15  C   UNL     1     -12.864   9.532  72.190  1.00  0.00    -0.389 A  
HETATM   16  C   UNL     1     -11.729   8.772  71.895  1.00  0.00    -0.429 A  
HETATM   17  N   UNL     1     -13.792   9.076  73.132  1.00  0.00    -1.177 NA 
HETATM   18  H2  UNL     1     -14.668   8.876  72.649  1.00  0.00     0.000 HD 
HETATM   19  H1  UNL     1     -13.566   8.283  73.732  1.00  0.00     0.000 HD 
HETATM   20  C   UNL     1     -10.858   9.159  70.871  1.00  0.00    -0.345 A  
ENDBRANCH   9  12
ENDBRANCH   7   8
ENDBRANCH   6   7
ENDBRANCH   3   6
ENDBRANCH   2   3
TORSDOF 6
ENDMDL
MODEL       51
REMARK 921   NORMALIZED FREE ENERGY PREDICTED BY IDOCK:   -4.73 KCAL/MOL
REMARK 922        TOTAL FREE ENERGY PREDICTED BY IDOCK:   -6.86 KCAL/MOL
REMARK 923 INTER-LIGAND FREE ENERGY PREDICTED BY IDOCK:   -6.45 KCAL/MOL
REMARK 924 INTRA-LIGAND FREE ENERGY PREDICTED BY IDOCK:   -0.41 KCAL/MOL
REMARK 927      BINDING AFFINITY PREDICTED BY RF-SCORE:    0.00 PKD
ROOT
HETATM    1  C   UNL     1     -11.648  11.682  67.485  1.00  0.00    -0.345 C  
HETATM    2  C   UNL     1     -10.393  11.723  66.615  1.00  0.00    -0.218 C  
ENDROOT
BRANCH   2   3
HETATM    3  N   UNL     1     -10.637  12.042  65.197  1.00  0.00    -0.277 NA 
BRANCH   3   4
HETATM    4  C   UNL     1     -10.340  10.923  64.279  1.00  0.00    -0.368 C  
HETATM    5  C   UNL     1      -9.346   9.873  64.779  1.00  0.00    -0.339 C  
ENDBRANCH   3   4
BRANCH   3   6
HETATM    6  C   UNL     1     -12.020  12.537  64.981  1.00  0.00    -0.427 C  
BRANCH   6   7
HETATM    7  C   UNL     1     -12.151  14.012  64.561  1.00  0.00    -0.459 C  
BRANCH   7   8
HETATM    8  N   UNL     1     -11.330  14.894  65.365  1.00  0.00    -0.349 N  
HETATM    9  C   UNL     1     -11.116  16.200  64.979  1.00  0.00    -0.294 C  
HETATM   10  H   UNL     1     -10.907  14.545  66.225  1.00  0.00     0.000 HD 
HETATM   11  O   UNL     1     -11.556  16.671  63.934  1.00  0.00    -1.204 OA 
BRANCH   9  12
HETATM   12  C   UNL     1     -10.327  17.054  65.908  1.00  0.00    -0.310 A  
HETATM   13  C   UNL     1      -9.301  16.534  66.703  1.00  0.00    -0.279 A  
HETATM   14  C   UNL     1      -8.578  17.379  67.554  1.00  0.00    -0.221 A  
HETATM   15  C   UNL     1      -8.888  18.739  67.648  1.00  0.00    -0.280 A  
HETATM   16  C   UNL     1      -9.858  19.266  66.792  1.00  0.00    -0.430 A  
HETATM   17  N   UNL     1      -8.082  19.592  68.410  1.00  0.00    -0.338 NA 
HETATM   18  H2  UNL     1      -7.120  19.503  68.082  1.00  0.00     0.000 HD 
HETATM   19  H1  UNL     1      -8.308  20.584  68.479  1.00  0.00     0.000 HD 
HETATM   20  C   UNL     1     -10.586  18.429  65.939  1.00  0.00    -0.313 A  
ENDBRANCH   9  12
ENDBRANCH   7   8
ENDBRANCH   6   7
ENDBRANCH   3   6
ENDBRANCH   2   3
TORSDOF 6
ENDMDL
MODEL       52
REMARK 921   NORMALIZED FREE ENERGY PREDICTED BY IDOCK:   -4.72 KCAL/MOL
REMARK 922        TOTAL FREE ENERGY PREDICTED BY IDOCK:   -6.85 KCAL/MOL
REMARK 923 INTER-LIGAND FREE ENERGY PREDICTED BY IDOCK:   -6.53 KCAL/MOL
REMARK 924 INTRA-LIGAND FREE ENERGY PREDICTED BY IDOCK:   -0.32 KCAL/MOL
REMARK 927      BINDING AFFINITY PREDICTED BY RF-SCORE:    0.00 PKD
ROOT
HETATM    1  C   UNL     1     -10.739   5.831  69.760  1.00  0.00    -0.418 C  
HETATM    2  C   UNL     1     -10.111   7.178  70.118  1.00  0.00    -0.188 C  
ENDROOT
BRANCH   2   3
HETATM    3  N   UNL     1     -10.978   8.345  69.880  1.00  0.00    -0.212 NA 
BRANCH   3   4
HETATM    4  C   UNL     1     -11.229   9.152  71.092  1.00  0.00    -0.325 C  
HETATM    5  C   UNL     1     -12.675   9.214  71.587  1.00  0.00    -0.429 C  
ENDBRANCH   3   4
BRANCH   3   6
HETATM    6  C   UNL     1     -10.450   9.200  68.787  1.00  0.00    -0.212 C  
BRANCH   6   7
HETATM    7  C   UNL     1     -10.192  10.674  69.149  1.00  0.00    -0.220 C  
BRANCH   7   8
HETATM    8  N   UNL     1     -10.388  11.565  68.024  1.00  0.00    -0.184 N  
HETATM    9  C   UNL     1     -11.281  12.613  68.106  1.00  0.00    -0.269 C  
HETATM   10  H   UNL     1      -9.862  11.415  67.163  1.00  0.00     0.000 HD 
HETATM   11  O   UNL     1     -11.980  12.822  69.093  1.00  0.00    -0.291 OA 
BRANCH   9  12
HETATM   12  C   UNL     1     -11.357  13.522  66.931  1.00  0.00    -0.350 A  
HETATM   13  C   UNL     1     -12.260  13.310  65.884  1.00  0.00    -0.497 A  
HETATM   14  C   UNL     1     -12.303  14.200  64.805  1.00  0.00    -0.436 A  
HETATM   15  C   UNL     1     -11.430  15.290  64.737  1.00  0.00    -0.363 A  
HETATM   16  C   UNL     1     -10.589  15.542  65.824  1.00  0.00    -0.370 A  
HETATM   17  N   UNL     1     -11.565  16.236  63.716  1.00  0.00    -1.482 NA 
HETATM   18  H2  UNL     1     -12.522  16.591  63.731  1.00  0.00     0.000 HD 
HETATM   19  H1  UNL     1     -10.928  17.031  63.666  1.00  0.00     0.000 HD 
HETATM   20  C   UNL     1     -10.537  14.658  66.906  1.00  0.00    -0.281 A  
ENDBRANCH   9  12
ENDBRANCH   7   8
ENDBRANCH   6   7
ENDBRANCH   3   6
ENDBRANCH   2   3
TORSDOF 6
ENDMDL
MODEL       53
REMARK 921   NORMALIZED FREE ENERGY PREDICTED BY IDOCK:   -4.70 KCAL/MOL
REMARK 922        TOTAL FREE ENERGY PREDICTED BY IDOCK:   -6.83 KCAL/MOL
REMARK 923 INTER-LIGAND FREE ENERGY PREDICTED BY IDOCK:   -6.46 KCAL/MOL
REMARK 924 INTRA-LIGAND FREE ENERGY PREDICTED BY IDOCK:   -0.36 KCAL/MOL
REMARK 927      BINDING AFFINITY PREDICTED BY RF-SCORE:    0.00 PKD
ROOT
HETATM    1  C   UNL     1     -10.617  19.533  65.959  1.00  0.00    -0.589 C  
HETATM    2  C   UNL     1     -10.333  18.153  66.550  1.00  0.00    -0.386 C  
ENDROOT
BRANCH   2   3
HETATM    3  N   UNL     1      -9.704  17.200  65.617  1.00  0.00    -0.544 NA 
BRANCH   3   4
HETATM    4  C   UNL     1      -8.401  16.686  66.087  1.00  0.00    -0.270 C  
HETATM    5  C   UNL     1      -7.387  17.725  66.565  1.00  0.00    -0.283 C  
ENDBRANCH   3   4
BRANCH   3   6
HETATM    6  C   UNL     1     -10.618  16.077  65.290  1.00  0.00    -0.402 C  
BRANCH   6   7
HETATM    7  C   UNL     1     -10.266  14.716  65.917  1.00  0.00    -0.326 C  
BRANCH   7   8
HETATM    8  N   UNL     1     -10.910  14.511  67.198  1.00  0.00    -0.290 N  
HETATM    9  C   UNL     1     -11.144  13.237  67.669  1.00  0.00    -0.269 C  
HETATM   10  H   UNL     1     -11.192  15.317  67.756  1.00  0.00     0.000 HD 
HETATM   11  O   UNL     1     -10.873  12.225  67.030  1.00  0.00    -0.235 OA 
BRANCH   9  12
HETATM   12  C   UNL     1     -11.737  13.123  69.030  1.00  0.00    -0.367 A  
HETATM   13  C   UNL     1     -12.195  14.240  69.736  1.00  0.00    -0.390 A  
HETATM   14  C   UNL     1     -12.756  14.083  71.008  1.00  0.00    -0.431 A  
HETATM   15  C   UNL     1     -12.837  12.822  71.606  1.00  0.00    -0.261 A  
HETATM   16  C   UNL     1     -12.454  11.702  70.863  1.00  0.00    -0.440 A  
HETATM   17  N   UNL     1     -13.508  12.664  72.824  1.00  0.00    -0.573 NA 
HETATM   18  H2  UNL     1     -14.453  13.033  72.721  1.00  0.00     0.000 HD 
HETATM   19  H1  UNL     1     -13.567  11.743  73.260  1.00  0.00     0.000 HD 
HETATM   20  C   UNL     1     -11.892  11.850  69.591  1.00  0.00    -0.406 A  
ENDBRANCH   9  12
ENDBRANCH   7   8
ENDBRANCH   6   7
ENDBRANCH   3   6
ENDBRANCH   2   3
TORSDOF 6
ENDMDL
MODEL       54
REMARK 921   NORMALIZED FREE ENERGY PREDICTED BY IDOCK:   -4.63 KCAL/MOL
REMARK 922        TOTAL FREE ENERGY PREDICTED BY IDOCK:   -6.74 KCAL/MOL
REMARK 923 INTER-LIGAND FREE ENERGY PREDICTED BY IDOCK:   -6.40 KCAL/MOL
REMARK 924 INTRA-LIGAND FREE ENERGY PREDICTED BY IDOCK:   -0.34 KCAL/MOL
REMARK 927      BINDING AFFINITY PREDICTED BY RF-SCORE:    0.00 PKD
ROOT
HETATM    1  C   UNL     1      -6.707  19.392  69.379  1.00  0.00    -0.354 C  
HETATM    2  C   UNL     1      -7.835  19.003  68.425  1.00  0.00    -0.337 C  
ENDROOT
BRANCH   2   3
HETATM    3  N   UNL     1      -8.080  19.964  67.335  1.00  0.00    -0.302 NA 
BRANCH   3   4
HETATM    4  C   UNL     1      -6.918  20.828  67.037  1.00  0.00    -0.325 C  
HETATM    5  C   UNL     1      -6.083  20.453  65.811  1.00  0.00    -0.243 C  
ENDBRANCH   3   4
BRANCH   3   6
HETATM    6  C   UNL     1      -8.548  19.280  66.103  1.00  0.00    -0.257 C  
BRANCH   6   7
HETATM    7  C   UNL     1     -10.048  18.939  66.049  1.00  0.00    -0.329 C  
BRANCH   7   8
HETATM    8  N   UNL     1     -10.319  17.565  66.417  1.00  0.00    -0.349 N  
HETATM    9  C   UNL     1     -10.861  16.687  65.502  1.00  0.00    -0.163 C  
HETATM   10  H   UNL     1     -10.106  17.244  67.362  1.00  0.00     0.000 HD 
HETATM   11  O   UNL     1     -11.183  17.018  64.365  1.00  0.00    -1.167 OA 
BRANCH   9  12
HETATM   12  C   UNL     1     -11.029  15.276  65.944  1.00  0.00    -0.325 A  
HETATM   13  C   UNL     1     -11.759  14.938  67.089  1.00  0.00    -0.292 A  
HETATM   14  C   UNL     1     -11.900  13.596  67.458  1.00  0.00    -0.416 A  
HETATM   15  C   UNL     1     -11.291  12.579  66.716  1.00  0.00    -0.334 A  
HETATM   16  C   UNL     1     -10.634  12.917  65.531  1.00  0.00    -0.298 A  
HETATM   17  N   UNL     1     -11.539  11.238  67.027  1.00  0.00    -0.480 NA 
HETATM   18  H2  UNL     1     -12.548  11.086  67.014  1.00  0.00     0.000 HD 
HETATM   19  H1  UNL     1     -11.095  10.496  66.486  1.00  0.00     0.000 HD 
HETATM   20  C   UNL     1     -10.487  14.256  65.153  1.00  0.00    -0.432 A  
ENDBRANCH   9  12
ENDBRANCH   7   8
ENDBRANCH   6   7
ENDBRANCH   3   6
ENDBRANCH   2   3
TORSDOF 6
ENDMDL
MODEL       55
REMARK 921   NORMALIZED FREE ENERGY PREDICTED BY IDOCK:   -4.63 KCAL/MOL
REMARK 922        TOTAL FREE ENERGY PREDICTED BY IDOCK:   -6.73 KCAL/MOL
REMARK 923 INTER-LIGAND FREE ENERGY PREDICTED BY IDOCK:   -6.36 KCAL/MOL
REMARK 924 INTRA-LIGAND FREE ENERGY PREDICTED BY IDOCK:   -0.38 KCAL/MOL
REMARK 927      BINDING AFFINITY PREDICTED BY RF-SCORE:    0.00 PKD
ROOT
HETATM    1  C   UNL     1     -10.016  10.305  65.569  1.00  0.00    -0.364 C  
HETATM    2  C   UNL     1      -9.658  11.783  65.719  1.00  0.00    -0.233 C  
ENDROOT
BRANCH   2   3
HETATM    3  N   UNL     1     -10.411  12.692  64.838  1.00  0.00    -0.299 NA 
BRANCH   3   4
HETATM    4  C   UNL     1     -10.909  12.044  63.607  1.00  0.00    -0.446 C  
HETATM    5  C   UNL     1     -12.417  12.109  63.362  1.00  0.00    -0.625 C  
ENDBRANCH   3   4
BRANCH   3   6
HETATM    6  C   UNL     1     -11.525  13.353  65.564  1.00  0.00    -0.305 C  
BRANCH   6   7
HETATM    7  C   UNL     1     -11.169  13.971  66.929  1.00  0.00    -0.313 C  
BRANCH   7   8
HETATM    8  N   UNL     1     -10.525  15.262  66.802  1.00  0.00    -0.287 N  
HETATM    9  C   UNL     1     -10.772  16.262  67.719  1.00  0.00    -0.325 C  
HETATM   10  H   UNL     1      -9.883  15.432  66.029  1.00  0.00     0.000 HD 
HETATM   11  O   UNL     1     -11.568  16.140  68.645  1.00  0.00    -0.376 OA 
BRANCH   9  12
HETATM   12  C   UNL     1     -10.005  17.526  67.555  1.00  0.00    -0.315 A  
HETATM   13  C   UNL     1      -8.635  17.532  67.275  1.00  0.00    -0.234 A  
HETATM   14  C   UNL     1      -7.958  18.747  67.117  1.00  0.00    -0.254 A  
HETATM   15  C   UNL     1      -8.625  19.966  67.270  1.00  0.00    -0.325 A  
HETATM   16  C   UNL     1     -10.007  19.953  67.469  1.00  0.00    -0.552 A  
HETATM   17  N   UNL     1      -7.964  21.167  66.992  1.00  0.00    -0.655 NA 
HETATM   18  H2  UNL     1      -7.595  21.120  66.043  1.00  0.00     0.000 HD 
HETATM   19  H1  UNL     1      -8.451  22.058  67.104  1.00  0.00     0.000 HD 
HETATM   20  C   UNL     1     -10.693  18.744  67.628  1.00  0.00    -0.449 A  
ENDBRANCH   9  12
ENDBRANCH   7   8
ENDBRANCH   6   7
ENDBRANCH   3   6
ENDBRANCH   2   3
TORSDOF 6
ENDMDL
MODEL       56
REMARK 921   NORMALIZED FREE ENERGY PREDICTED BY IDOCK:   -4.60 KCAL/MOL
REMARK 922        TOTAL FREE ENERGY PREDICTED BY IDOCK:   -6.69 KCAL/MOL
REMARK 923 INTER-LIGAND FREE ENERGY PREDICTED BY IDOCK:   -6.36 KCAL/MOL
REMARK 924 INTRA-LIGAND FREE ENERGY PREDICTED BY IDOCK:   -0.33 KCAL/MOL
REMARK 927      BINDING AFFINITY PREDICTED BY RF-SCORE:    0.00 PKD
ROOT
HETATM    1  C   UNL     1     -10.988  14.974  65.075  1.00  0.00    -0.436 C  
HETATM    2  C   UNL     1     -10.929  15.191  66.586  1.00  0.00    -0.318 C  
ENDROOT
BRANCH   2   3
HETATM    3  N   UNL     1      -9.602  15.568  67.103  1.00  0.00    -0.219 NA 
BRANCH   3   4
HETATM    4  C   UNL     1      -9.513  16.979  67.531  1.00  0.00    -0.246 C  
HETATM    5  C   UNL     1     -10.221  18.008  66.648  1.00  0.00    -0.375 C  
ENDBRANCH   3   4
BRANCH   3   6
HETATM    6  C   UNL     1      -9.170  14.665  68.200  1.00  0.00    -0.192 C  
BRANCH   6   7
HETATM    7  C   UNL     1      -9.408  13.161  67.970  1.00  0.00    -0.219 C  
BRANCH   7   8
HETATM    8  N   UNL     1     -10.140  12.543  69.055  1.00  0.00    -0.421 N  
HETATM    9  C   UNL     1     -11.258  11.777  68.800  1.00  0.00    -0.251 C  
HETATM   10  H   UNL     1      -9.826  12.675  70.016  1.00  0.00     0.000 HD 
HETATM   11  O   UNL     1     -11.717  11.615  67.673  1.00  0.00    -0.513 OA 
BRANCH   9  12
HETATM   12  C   UNL     1     -11.899  11.115  69.969  1.00  0.00    -0.441 A  
HETATM   13  C   UNL     1     -12.682  11.822  70.886  1.00  0.00    -0.328 A  
HETATM   14  C   UNL     1     -13.275  11.154  71.963  1.00  0.00    -0.428 A  
HETATM   15  C   UNL     1     -13.069   9.785  72.160  1.00  0.00    -0.422 A  
HETATM   16  C   UNL     1     -12.354   9.070  71.196  1.00  0.00    -0.306 A  
HETATM   17  N   UNL     1     -13.763   9.109  73.169  1.00  0.00    -1.052 NA 
HETATM   18  H2  UNL     1     -14.761   9.268  73.035  1.00  0.00     0.000 HD 
HETATM   19  H1  UNL     1     -13.613   8.110  73.313  1.00  0.00     0.000 HD 
HETATM   20  C   UNL     1     -11.757   9.729  70.116  1.00  0.00    -0.190 A  
ENDBRANCH   9  12
ENDBRANCH   7   8
ENDBRANCH   6   7
ENDBRANCH   3   6
ENDBRANCH   2   3
TORSDOF 6
ENDMDL
MODEL       57
REMARK 921   NORMALIZED FREE ENERGY PREDICTED BY IDOCK:   -4.58 KCAL/MOL
REMARK 922        TOTAL FREE ENERGY PREDICTED BY IDOCK:   -6.67 KCAL/MOL
REMARK 923 INTER-LIGAND FREE ENERGY PREDICTED BY IDOCK:   -6.16 KCAL/MOL
REMARK 924 INTRA-LIGAND FREE ENERGY PREDICTED BY IDOCK:   -0.51 KCAL/MOL
REMARK 927      BINDING AFFINITY PREDICTED BY RF-SCORE:    0.00 PKD
ROOT
HETATM    1  C   UNL     1      -9.681  19.456  68.577  1.00  0.00    -0.497 C  
HETATM    2  C   UNL     1      -9.822  18.478  67.412  1.00  0.00    -0.312 C  
ENDROOT
BRANCH   2   3
HETATM    3  N   UNL     1      -8.898  17.331  67.456  1.00  0.00    -0.217 NA 
BRANCH   3   4
HETATM    4  C   UNL     1      -8.014  17.329  68.640  1.00  0.00    -0.267 C  
HETATM    5  C   UNL     1      -7.695  15.965  69.254  1.00  0.00    -0.222 C  
ENDBRANCH   3   4
BRANCH   3   6
HETATM    6  C   UNL     1      -9.626  16.041  67.350  1.00  0.00    -0.225 C  
BRANCH   6   7
HETATM    7  C   UNL     1     -11.110  16.069  67.761  1.00  0.00    -0.273 C  
BRANCH   7   8
HETATM    8  N   UNL     1     -11.523  14.853  68.430  1.00  0.00    -0.304 N  
HETATM    9  C   UNL     1     -11.571  14.790  69.807  1.00  0.00    -0.297 C  
HETATM   10  H   UNL     1     -11.781  14.035  67.877  1.00  0.00     0.000 HD 
HETATM   11  O   UNL     1     -11.230  15.720  70.532  1.00  0.00    -0.314 OA 
BRANCH   9  12
HETATM   12  C   UNL     1     -12.084  13.528  70.404  1.00  0.00    -0.415 A  
HETATM   13  C   UNL     1     -11.788  12.274  69.859  1.00  0.00    -0.383 A  
HETATM   14  C   UNL     1     -12.284  11.113  70.463  1.00  0.00    -0.475 A  
HETATM   15  C   UNL     1     -13.105  11.185  71.592  1.00  0.00    -0.424 A  
HETATM   16  C   UNL     1     -13.329  12.433  72.178  1.00  0.00    -0.508 A  
HETATM   17  N   UNL     1     -13.493  10.016  72.253  1.00  0.00    -0.596 NA 
HETATM   18  H2  UNL     1     -12.654   9.491  72.499  1.00  0.00     0.000 HD 
HETATM   19  H1  UNL     1     -14.093  10.068  73.078  1.00  0.00     0.000 HD 
HETATM   20  C   UNL     1     -12.838  13.600  71.581  1.00  0.00    -0.427 A  
ENDBRANCH   9  12
ENDBRANCH   7   8
ENDBRANCH   6   7
ENDBRANCH   3   6
ENDBRANCH   2   3
TORSDOF 6
ENDMDL
MODEL       58
REMARK 921   NORMALIZED FREE ENERGY PREDICTED BY IDOCK:   -4.58 KCAL/MOL
REMARK 922        TOTAL FREE ENERGY PREDICTED BY IDOCK:   -6.66 KCAL/MOL
REMARK 923 INTER-LIGAND FREE ENERGY PREDICTED BY IDOCK:   -6.38 KCAL/MOL
REMARK 924 INTRA-LIGAND FREE ENERGY PREDICTED BY IDOCK:   -0.28 KCAL/MOL
REMARK 927      BINDING AFFINITY PREDICTED BY RF-SCORE:    0.00 PKD
ROOT
HETATM    1  C   UNL     1      -7.355   6.670  66.599  1.00  0.00    -0.078 C  
HETATM    2  C   UNL     1      -8.147   7.619  67.496  1.00  0.00    -0.120 C  
ENDROOT
BRANCH   2   3
HETATM    3  N   UNL     1      -9.564   7.258  67.678  1.00  0.00    -0.133 NA 
BRANCH   3   4
HETATM    4  C   UNL     1      -9.951   7.078  69.092  1.00  0.00    -0.165 C  
HETATM    5  C   UNL     1     -10.819   5.860  69.415  1.00  0.00    -0.422 C  
ENDBRANCH   3   4
BRANCH   3   6
HETATM    6  C   UNL     1     -10.463   8.235  67.014  1.00  0.00    -0.314 C  
BRANCH   6   7
HETATM    7  C   UNL     1     -10.738   9.535  67.791  1.00  0.00    -0.242 C  
BRANCH   7   8
HETATM    8  N   UNL     1     -10.825  10.692  66.924  1.00  0.00    -0.238 N  
HETATM    9  C   UNL     1     -11.632  11.759  67.257  1.00  0.00    -0.269 C  
HETATM   10  H   UNL     1     -10.284  10.717  66.060  1.00  0.00     0.000 HD 
HETATM   11  O   UNL     1     -12.344  11.775  68.256  1.00  0.00    -0.379 OA 
BRANCH   9  12
HETATM   12  C   UNL     1     -11.596  12.937  66.348  1.00  0.00    -0.425 A  
HETATM   13  C   UNL     1     -12.462  13.061  65.257  1.00  0.00    -0.555 A  
HETATM   14  C   UNL     1     -12.399  14.193  64.438  1.00  0.00    -0.410 A  
HETATM   15  C   UNL     1     -11.454  15.197  64.671  1.00  0.00    -0.362 A  
HETATM   16  C   UNL     1     -10.649  15.107  65.809  1.00  0.00    -0.364 A  
HETATM   17  N   UNL     1     -11.482  16.376  63.919  1.00  0.00    -1.618 NA 
HETATM   18  H2  UNL     1     -12.413  16.786  63.997  1.00  0.00     0.000 HD 
HETATM   19  H1  UNL     1     -10.793  17.109  64.090  1.00  0.00     0.000 HD 
HETATM   20  C   UNL     1     -10.704  13.978  66.634  1.00  0.00    -0.281 A  
ENDBRANCH   9  12
ENDBRANCH   7   8
ENDBRANCH   6   7
ENDBRANCH   3   6
ENDBRANCH   2   3
TORSDOF 6
ENDMDL
MODEL       59
REMARK 921   NORMALIZED FREE ENERGY PREDICTED BY IDOCK:   -4.54 KCAL/MOL
REMARK 922        TOTAL FREE ENERGY PREDICTED BY IDOCK:   -6.60 KCAL/MOL
REMARK 923 INTER-LIGAND FREE ENERGY PREDICTED BY IDOCK:   -6.23 KCAL/MOL
REMARK 924 INTRA-LIGAND FREE ENERGY PREDICTED BY IDOCK:   -0.37 KCAL/MOL
REMARK 927      BINDING AFFINITY PREDICTED BY RF-SCORE:    0.00 PKD
ROOT
HETATM    1  C   UNL     1      -9.272  12.473  67.087  1.00  0.00    -0.205 C  
HETATM    2  C   UNL     1     -10.363  13.483  66.735  1.00  0.00    -0.264 C  
ENDROOT
BRANCH   2   3
HETATM    3  N   UNL     1     -10.664  14.460  67.797  1.00  0.00    -0.246 NA 
BRANCH   3   4
HETATM    4  C   UNL     1     -10.601  15.865  67.343  1.00  0.00    -0.315 C  
HETATM    5  C   UNL     1      -9.907  16.121  66.005  1.00  0.00    -0.375 C  
ENDBRANCH   3   4
BRANCH   3   6
HETATM    6  C   UNL     1     -11.975  14.179  68.437  1.00  0.00    -0.331 C  
BRANCH   6   7
HETATM    7  C   UNL     1     -11.943  13.918  69.954  1.00  0.00    -0.341 C  
BRANCH   7   8
HETATM    8  N   UNL     1     -11.873  12.507  70.273  1.00  0.00    -0.538 N  
HETATM    9  C   UNL     1     -12.663  11.973  71.268  1.00  0.00    -0.279 C  
HETATM   10  H   UNL     1     -11.232  11.904  69.756  1.00  0.00     0.000 HD 
HETATM   11  O   UNL     1     -13.420  12.648  71.959  1.00  0.00    -0.498 OA 
BRANCH   9  12
HETATM   12  C   UNL     1     -12.583  10.501  71.471  1.00  0.00    -0.529 A  
HETATM   13  C   UNL     1     -11.375   9.803  71.377  1.00  0.00    -0.407 A  
HETATM   14  C   UNL     1     -11.347   8.420  71.589  1.00  0.00    -0.349 A  
HETATM   15  C   UNL     1     -12.520   7.711  71.860  1.00  0.00    -0.308 A  
HETATM   16  C   UNL     1     -13.709   8.424  72.033  1.00  0.00    -0.415 A  
HETATM   17  N   UNL     1     -12.460   6.352  72.187  1.00  0.00    -0.524 NA 
HETATM   18  H2  UNL     1     -11.826   6.239  72.977  1.00  0.00     0.000 HD 
HETATM   19  H1  UNL     1     -13.317   5.834  72.385  1.00  0.00     0.000 HD 
HETATM   20  C   UNL     1     -13.747   9.807  71.823  1.00  0.00    -0.309 A  
ENDBRANCH   9  12
ENDBRANCH   7   8
ENDBRANCH   6   7
ENDBRANCH   3   6
ENDBRANCH   2   3
TORSDOF 6
ENDMDL
MODEL       60
REMARK 921   NORMALIZED FREE ENERGY PREDICTED BY IDOCK:   -4.51 KCAL/MOL
REMARK 922        TOTAL FREE ENERGY PREDICTED BY IDOCK:   -6.57 KCAL/MOL
REMARK 923 INTER-LIGAND FREE ENERGY PREDICTED BY IDOCK:   -6.46 KCAL/MOL
REMARK 924 INTRA-LIGAND FREE ENERGY PREDICTED BY IDOCK:   -0.11 KCAL/MOL
REMARK 927      BINDING AFFINITY PREDICTED BY RF-SCORE:    0.00 PKD
ROOT
HETATM    1  C   UNL     1     -13.425  13.384  72.313  1.00  0.00    -0.683 C  
HETATM    2  C   UNL     1     -13.780  14.669  71.565  1.00  0.00    -0.419 C  
ENDROOT
BRANCH   2   3
HETATM    3  N   UNL     1     -12.664  15.277  70.820  1.00  0.00    -0.405 NA 
BRANCH   3   4
HETATM    4  C   UNL     1     -11.665  15.936  71.687  1.00  0.00    -0.485 C  
HETATM    5  C   UNL     1     -12.150  16.402  73.060  1.00  0.00    -0.577 C  
ENDBRANCH   3   4
BRANCH   3   6
HETATM    6  C   UNL     1     -12.006  14.290  69.927  1.00  0.00    -0.339 C  
BRANCH   6   7
HETATM    7  C   UNL     1     -11.997  14.639  68.427  1.00  0.00    -0.254 C  
BRANCH   7   8
HETATM    8  N   UNL     1     -11.440  13.577  67.614  1.00  0.00    -0.300 N  
HETATM    9  C   UNL     1     -11.322  13.728  66.248  1.00  0.00    -0.321 C  
HETATM   10  H   UNL     1     -11.133  12.711  68.056  1.00  0.00     0.000 HD 
HETATM   11  O   UNL     1     -11.714  14.724  65.647  1.00  0.00    -0.335 OA 
BRANCH   9  12
HETATM   12  C   UNL     1     -10.664  12.619  65.505  1.00  0.00    -0.303 A  
HETATM   13  C   UNL     1      -9.763  11.745  66.121  1.00  0.00    -0.250 A  
HETATM   14  C   UNL     1      -9.178  10.709  65.384  1.00  0.00    -0.226 A  
HETATM   15  C   UNL     1      -9.456  10.550  64.023  1.00  0.00    -0.289 A  
HETATM   16  C   UNL     1     -10.418  11.375  63.435  1.00  0.00    -0.452 A  
HETATM   17  N   UNL     1      -8.959   9.441  63.330  1.00  0.00    -0.402 NA 
HETATM   18  H2  UNL     1      -9.256   8.597  63.819  1.00  0.00     0.000 HD 
HETATM   19  H1  UNL     1      -9.162   9.325  62.336  1.00  0.00     0.000 HD 
HETATM   20  C   UNL     1     -11.007  12.414  64.163  1.00  0.00    -0.416 A  
ENDBRANCH   9  12
ENDBRANCH   7   8
ENDBRANCH   6   7
ENDBRANCH   3   6
ENDBRANCH   2   3
TORSDOF 6
ENDMDL
MODEL       61
REMARK 921   NORMALIZED FREE ENERGY PREDICTED BY IDOCK:   -4.51 KCAL/MOL
REMARK 922        TOTAL FREE ENERGY PREDICTED BY IDOCK:   -6.57 KCAL/MOL
REMARK 923 INTER-LIGAND FREE ENERGY PREDICTED BY IDOCK:   -6.23 KCAL/MOL
REMARK 924 INTRA-LIGAND FREE ENERGY PREDICTED BY IDOCK:   -0.34 KCAL/MOL
REMARK 927      BINDING AFFINITY PREDICTED BY RF-SCORE:    0.00 PKD
ROOT
HETATM    1  C   UNL     1     -12.599  15.650  70.893  1.00  0.00    -0.503 C  
HETATM    2  C   UNL     1     -11.550  15.286  69.844  1.00  0.00    -0.311 C  
ENDROOT
BRANCH   2   3
HETATM    3  N   UNL     1     -11.557  16.139  68.642  1.00  0.00    -0.348 NA 
BRANCH   3   4
HETATM    4  C   UNL     1     -10.478  17.148  68.628  1.00  0.00    -0.366 C  
HETATM    5  C   UNL     1     -10.618  18.286  67.616  1.00  0.00    -0.427 C  
ENDBRANCH   3   4
BRANCH   3   6
HETATM    6  C   UNL     1     -11.524  15.327  67.399  1.00  0.00    -0.241 C  
BRANCH   6   7
HETATM    7  C   UNL     1     -12.023  13.876  67.528  1.00  0.00    -0.386 C  
BRANCH   7   8
HETATM    8  N   UNL     1     -11.220  12.944  66.765  1.00  0.00    -0.286 N  
HETATM    9  C   UNL     1     -11.683  12.432  65.571  1.00  0.00    -0.407 C  
HETATM   10  H   UNL     1     -10.303  12.663  67.114  1.00  0.00     0.000 HD 
HETATM   11  O   UNL     1     -12.793  12.690  65.116  1.00  0.00    -0.721 OA 
BRANCH   9  12
HETATM   12  C   UNL     1     -10.756  11.545  64.817  1.00  0.00    -0.366 A  
HETATM   13  C   UNL     1     -10.428  11.780  63.478  1.00  0.00    -0.500 A  
HETATM   14  C   UNL     1      -9.542  10.925  62.813  1.00  0.00    -0.339 A  
HETATM   15  C   UNL     1      -8.999   9.810  63.459  1.00  0.00    -0.244 A  
HETATM   16  C   UNL     1      -9.266   9.628  64.818  1.00  0.00    -0.298 A  
HETATM   17  N   UNL     1      -8.025   9.035  62.822  1.00  0.00    -0.134 NA 
HETATM   18  H2  UNL     1      -7.259   9.647  62.540  1.00  0.00     0.000 HD 
HETATM   19  H1  UNL     1      -7.628   8.221  63.293  1.00  0.00     0.000 HD 
HETATM   20  C   UNL     1     -10.152  10.477  65.491  1.00  0.00    -0.349 A  
ENDBRANCH   9  12
ENDBRANCH   7   8
ENDBRANCH   6   7
ENDBRANCH   3   6
ENDBRANCH   2   3
TORSDOF 6
ENDMDL
MODEL       62
REMARK 921   NORMALIZED FREE ENERGY PREDICTED BY IDOCK:   -4.49 KCAL/MOL
REMARK 922        TOTAL FREE ENERGY PREDICTED BY IDOCK:   -6.55 KCAL/MOL
REMARK 923 INTER-LIGAND FREE ENERGY PREDICTED BY IDOCK:   -6.19 KCAL/MOL
REMARK 924 INTRA-LIGAND FREE ENERGY PREDICTED BY IDOCK:   -0.36 KCAL/MOL
REMARK 927      BINDING AFFINITY PREDICTED BY RF-SCORE:    0.00 PKD
ROOT
HETATM    1  C   UNL     1     -10.422   8.254  72.394  1.00  0.00    -0.404 C  
HETATM    2  C   UNL     1     -11.440   8.009  71.281  1.00  0.00    -0.269 C  
ENDROOT
BRANCH   2   3
HETATM    3  N   UNL     1     -11.164   8.727  70.024  1.00  0.00    -0.169 NA 
BRANCH   3   4
HETATM    4  C   UNL     1     -10.834  10.154  70.220  1.00  0.00    -0.310 C  
HETATM    5  C   UNL     1     -12.013  11.111  70.401  1.00  0.00    -0.469 C  
ENDBRANCH   3   4
BRANCH   3   6
HETATM    6  C   UNL     1     -10.103   8.053  69.234  1.00  0.00    -0.198 C  
BRANCH   6   7
HETATM    7  C   UNL     1     -10.352   7.951  67.719  1.00  0.00    -0.226 C  
BRANCH   7   8
HETATM    8  N   UNL     1     -10.823   9.197  67.149  1.00  0.00    -0.326 N  
HETATM    9  C   UNL     1     -10.026   9.919  66.286  1.00  0.00    -0.256 C  
HETATM   10  H   UNL     1     -11.752   9.543  67.389  1.00  0.00     0.000 HD 
HETATM   11  O   UNL     1      -8.883   9.585  65.991  1.00  0.00    -0.143 OA 
BRANCH   9  12
HETATM   12  C   UNL     1     -10.624  11.143  65.687  1.00  0.00    -0.286 A  
HETATM   13  C   UNL     1     -10.479  11.453  64.331  1.00  0.00    -0.388 A  
HETATM   14  C   UNL     1     -11.070  12.610  63.810  1.00  0.00    -0.504 A  
HETATM   15  C   UNL     1     -11.781  13.487  64.634  1.00  0.00    -0.381 A  
HETATM   16  C   UNL     1     -11.991  13.129  65.968  1.00  0.00    -0.488 A  
HETATM   17  N   UNL     1     -12.465  14.573  64.079  1.00  0.00    -0.959 NA 
HETATM   18  H2  UNL     1     -13.099  14.222  63.362  1.00  0.00     0.000 HD 
HETATM   19  H1  UNL     1     -12.985  15.213  64.681  1.00  0.00     0.000 HD 
HETATM   20  C   UNL     1     -11.404  11.975  66.498  1.00  0.00    -0.413 A  
ENDBRANCH   9  12
ENDBRANCH   7   8
ENDBRANCH   6   7
ENDBRANCH   3   6
ENDBRANCH   2   3
TORSDOF 6
ENDMDL
MODEL       63
REMARK 921   NORMALIZED FREE ENERGY PREDICTED BY IDOCK:   -4.49 KCAL/MOL
REMARK 922        TOTAL FREE ENERGY PREDICTED BY IDOCK:   -6.55 KCAL/MOL
REMARK 923 INTER-LIGAND FREE ENERGY PREDICTED BY IDOCK:   -6.18 KCAL/MOL
REMARK 924 INTRA-LIGAND FREE ENERGY PREDICTED BY IDOCK:   -0.37 KCAL/MOL
REMARK 927      BINDING AFFINITY PREDICTED BY RF-SCORE:    0.00 PKD
ROOT
HETATM    1  C   UNL     1     -11.676   6.517  70.478  1.00  0.00    -0.438 C  
HETATM    2  C   UNL     1     -12.592   7.255  71.454  1.00  0.00    -0.388 C  
ENDROOT
BRANCH   2   3
HETATM    3  N   UNL     1     -11.899   8.180  72.369  1.00  0.00    -0.375 NA 
BRANCH   3   4
HETATM    4  C   UNL     1     -10.686   7.604  72.985  1.00  0.00    -0.391 C  
HETATM    5  C   UNL     1      -9.382   8.379  72.783  1.00  0.00    -0.312 C  
ENDBRANCH   3   4
BRANCH   3   6
HETATM    6  C   UNL     1     -11.582   9.468  71.701  1.00  0.00    -0.381 C  
BRANCH   6   7
HETATM    7  C   UNL     1     -12.787  10.352  71.334  1.00  0.00    -0.452 C  
BRANCH   7   8
HETATM    8  N   UNL     1     -12.402  11.712  71.018  1.00  0.00    -0.342 N  
HETATM    9  C   UNL     1     -12.218  12.103  69.709  1.00  0.00    -0.144 C  
HETATM   10  H   UNL     1     -12.265  12.386  71.772  1.00  0.00     0.000 HD 
HETATM   11  O   UNL     1     -12.319  11.334  68.759  1.00  0.00    -0.518 OA 
BRANCH   9  12
HETATM   12  C   UNL     1     -11.902  13.539  69.476  1.00  0.00    -0.392 A  
HETATM   13  C   UNL     1     -11.814  14.460  70.524  1.00  0.00    -0.367 A  
HETATM   14  C   UNL     1     -11.502  15.798  70.257  1.00  0.00    -0.369 A  
HETATM   15  C   UNL     1     -11.308  16.242  68.946  1.00  0.00    -0.317 A  
HETATM   16  C   UNL     1     -11.315  15.302  67.913  1.00  0.00    -0.339 A  
HETATM   17  N   UNL     1     -10.880  17.551  68.704  1.00  0.00    -0.282 NA 
HETATM   18  H2  UNL     1     -10.020  17.711  69.229  1.00  0.00     0.000 HD 
HETATM   19  H1  UNL     1     -10.737  17.876  67.747  1.00  0.00     0.000 HD 
HETATM   20  C   UNL     1     -11.627  13.962  68.170  1.00  0.00    -0.370 A  
ENDBRANCH   9  12
ENDBRANCH   7   8
ENDBRANCH   6   7
ENDBRANCH   3   6
ENDBRANCH   2   3
TORSDOF 6
ENDMDL
MODEL       64
REMARK 921   NORMALIZED FREE ENERGY PREDICTED BY IDOCK:   -4.49 KCAL/MOL
REMARK 922        TOTAL FREE ENERGY PREDICTED BY IDOCK:   -6.54 KCAL/MOL
REMARK 923 INTER-LIGAND FREE ENERGY PREDICTED BY IDOCK:   -6.25 KCAL/MOL
REMARK 924 INTRA-LIGAND FREE ENERGY PREDICTED BY IDOCK:   -0.29 KCAL/MOL
REMARK 927      BINDING AFFINITY PREDICTED BY RF-SCORE:    0.00 PKD
ROOT
HETATM    1  C   UNL     1     -11.206  16.071  68.101  1.00  0.00    -0.325 C  
HETATM    2  C   UNL     1     -10.978  14.903  67.143  1.00  0.00    -0.323 C  
ENDROOT
BRANCH   2   3
HETATM    3  N   UNL     1     -12.142  14.016  66.966  1.00  0.00    -0.439 NA 
BRANCH   3   4
HETATM    4  C   UNL     1     -12.572  13.879  65.559  1.00  0.00    -0.526 C  
HETATM    5  C   UNL     1     -11.880  14.786  64.541  1.00  0.00    -0.428 C  
ENDBRANCH   3   4
BRANCH   3   6
HETATM    6  C   UNL     1     -11.902  12.680  67.568  1.00  0.00    -0.334 C  
BRANCH   6   7
HETATM    7  C   UNL     1     -10.590  12.520  68.357  1.00  0.00    -0.242 C  
BRANCH   7   8
HETATM    8  N   UNL     1     -10.732  11.642  69.500  1.00  0.00    -0.449 N  
HETATM    9  C   UNL     1     -10.539  10.283  69.369  1.00  0.00    -0.237 C  
HETATM   10  H   UNL     1     -10.978  12.033  70.410  1.00  0.00     0.000 HD 
HETATM   11  O   UNL     1     -10.289   9.742  68.297  1.00  0.00    -0.179 OA 
BRANCH   9  12
HETATM   12  C   UNL     1     -10.627   9.471  70.613  1.00  0.00    -0.374 A  
HETATM   13  C   UNL     1     -11.854   9.098  71.171  1.00  0.00    -0.374 A  
HETATM   14  C   UNL     1     -11.886   8.322  72.336  1.00  0.00    -0.461 A  
HETATM   15  C   UNL     1     -10.704   7.937  72.975  1.00  0.00    -0.342 A  
HETATM   16  C   UNL     1      -9.484   8.242  72.367  1.00  0.00    -0.357 A  
HETATM   17  N   UNL     1     -10.749   7.064  74.067  1.00  0.00    -0.508 NA 
HETATM   18  H2  UNL     1     -11.251   6.222  73.785  1.00  0.00     0.000 HD 
HETATM   19  H1  UNL     1      -9.886   6.782  74.534  1.00  0.00     0.000 HD 
HETATM   20  C   UNL     1      -9.441   9.018  71.204  1.00  0.00    -0.348 A  
ENDBRANCH   9  12
ENDBRANCH   7   8
ENDBRANCH   6   7
ENDBRANCH   3   6
ENDBRANCH   2   3
TORSDOF 6
ENDMDL
MODEL       65
REMARK 921   NORMALIZED FREE ENERGY PREDICTED BY IDOCK:   -4.45 KCAL/MOL
REMARK 922        TOTAL FREE ENERGY PREDICTED BY IDOCK:   -6.49 KCAL/MOL
REMARK 923 INTER-LIGAND FREE ENERGY PREDICTED BY IDOCK:   -6.22 KCAL/MOL
REMARK 924 INTRA-LIGAND FREE ENERGY PREDICTED BY IDOCK:   -0.28 KCAL/MOL
REMARK 927      BINDING AFFINITY PREDICTED BY RF-SCORE:    0.00 PKD
ROOT
HETATM    1  C   UNL     1     -10.594  11.274  64.666  1.00  0.00    -0.392 C  
HETATM    2  C   UNL     1     -10.252  11.182  66.153  1.00  0.00    -0.244 C  
ENDROOT
BRANCH   2   3
HETATM    3  N   UNL     1     -11.220  11.839  67.049  1.00  0.00    -0.307 NA 
BRANCH   3   4
HETATM    4  C   UNL     1     -11.487  11.080  68.289  1.00  0.00    -0.304 C  
HETATM    5  C   UNL     1     -11.828  11.899  69.534  1.00  0.00    -0.395 C  
ENDBRANCH   3   4
BRANCH   3   6
HETATM    6  C   UNL     1     -10.805  13.228  67.371  1.00  0.00    -0.267 C  
BRANCH   6   7
HETATM    7  C   UNL     1     -11.626  14.348  66.707  1.00  0.00    -0.385 C  
BRANCH   7   8
HETATM    8  N   UNL     1     -10.906  15.603  66.647  1.00  0.00    -0.299 N  
HETATM    9  C   UNL     1     -10.870  16.445  67.739  1.00  0.00    -0.306 C  
HETATM   10  H   UNL     1     -10.422  15.867  65.789  1.00  0.00     0.000 HD 
HETATM   11  O   UNL     1     -11.468  16.211  68.785  1.00  0.00    -0.362 OA 
BRANCH   9  12
HETATM   12  C   UNL     1     -10.039  17.673  67.612  1.00  0.00    -0.339 A  
HETATM   13  C   UNL     1      -9.075  18.018  68.565  1.00  0.00    -0.293 A  
HETATM   14  C   UNL     1      -8.308  19.177  68.397  1.00  0.00    -0.384 A  
HETATM   15  C   UNL     1      -8.514  20.021  67.302  1.00  0.00    -0.334 A  
HETATM   16  C   UNL     1      -9.420  19.628  66.314  1.00  0.00    -0.474 A  
HETATM   17  N   UNL     1      -7.662  21.109  67.084  1.00  0.00    -0.694 NA 
HETATM   18  H2  UNL     1      -6.703  20.765  67.049  1.00  0.00     0.000 HD 
HETATM   19  H1  UNL     1      -7.812  21.726  66.285  1.00  0.00     0.000 HD 
HETATM   20  C   UNL     1     -10.191  18.472  66.473  1.00  0.00    -0.440 A  
ENDBRANCH   9  12
ENDBRANCH   7   8
ENDBRANCH   6   7
ENDBRANCH   3   6
ENDBRANCH   2   3
TORSDOF 6
ENDMDL
MODEL       66
REMARK 921   NORMALIZED FREE ENERGY PREDICTED BY IDOCK:   -4.44 KCAL/MOL
REMARK 922        TOTAL FREE ENERGY PREDICTED BY IDOCK:   -6.47 KCAL/MOL
REMARK 923 INTER-LIGAND FREE ENERGY PREDICTED BY IDOCK:   -5.92 KCAL/MOL
REMARK 924 INTRA-LIGAND FREE ENERGY PREDICTED BY IDOCK:   -0.55 KCAL/MOL
REMARK 927      BINDING AFFINITY PREDICTED BY RF-SCORE:    0.00 PKD
ROOT
HETATM    1  C   UNL     1      -9.229  14.787  65.970  1.00  0.00    -0.175 C  
HETATM    2  C   UNL     1     -10.281  13.720  66.267  1.00  0.00    -0.297 C  
ENDROOT
BRANCH   2   3
HETATM    3  N   UNL     1     -11.601  14.246  66.657  1.00  0.00    -0.368 NA 
BRANCH   3   4
HETATM    4  C   UNL     1     -12.658  13.992  65.655  1.00  0.00    -0.512 C  
HETATM    5  C   UNL     1     -12.343  14.388  64.212  1.00  0.00    -0.402 C  
ENDBRANCH   3   4
BRANCH   3   6
HETATM    6  C   UNL     1     -12.016  13.740  67.989  1.00  0.00    -0.355 C  
BRANCH   6   7
HETATM    7  C   UNL     1     -11.611  14.606  69.196  1.00  0.00    -0.301 C  
BRANCH   7   8
HETATM    8  N   UNL     1     -11.042  15.878  68.801  1.00  0.00    -0.306 N  
HETATM    9  C   UNL     1      -9.720  16.168  69.066  1.00  0.00    -0.248 C  
HETATM   10  H   UNL     1     -11.624  16.565  68.322  1.00  0.00     0.000 HD 
HETATM   11  O   UNL     1      -8.976  15.407  69.678  1.00  0.00    -0.263 OA 
BRANCH   9  12
HETATM   12  C   UNL     1      -9.201  17.464  68.551  1.00  0.00    -0.277 A  
HETATM   13  C   UNL     1      -7.834  17.758  68.523  1.00  0.00    -0.290 A  
HETATM   14  C   UNL     1      -7.392  18.986  68.018  1.00  0.00    -0.282 A  
HETATM   15  C   UNL     1      -8.303  19.947  67.568  1.00  0.00    -0.324 A  
HETATM   16  C   UNL     1      -9.659  19.615  67.522  1.00  0.00    -0.446 A  
HETATM   17  N   UNL     1      -7.843  21.118  66.956  1.00  0.00    -0.685 NA 
HETATM   18  H2  UNL     1      -7.238  20.858  66.177  1.00  0.00     0.000 HD 
HETATM   19  H1  UNL     1      -8.507  21.819  66.627  1.00  0.00     0.000 HD 
HETATM   20  C   UNL     1     -10.110  18.390  68.025  1.00  0.00    -0.392 A  
ENDBRANCH   9  12
ENDBRANCH   7   8
ENDBRANCH   6   7
ENDBRANCH   3   6
ENDBRANCH   2   3
TORSDOF 6
ENDMDL
MODEL       67
REMARK 921   NORMALIZED FREE ENERGY PREDICTED BY IDOCK:   -4.43 KCAL/MOL
REMARK 922        TOTAL FREE ENERGY PREDICTED BY IDOCK:   -6.46 KCAL/MOL
REMARK 923 INTER-LIGAND FREE ENERGY PREDICTED BY IDOCK:   -6.28 KCAL/MOL
REMARK 924 INTRA-LIGAND FREE ENERGY PREDICTED BY IDOCK:   -0.18 KCAL/MOL
REMARK 927      BINDING AFFINITY PREDICTED BY RF-SCORE:    0.00 PKD
ROOT
HETATM    1  C   UNL     1     -11.215  10.244  68.726  1.00  0.00    -0.260 C  
HETATM    2  C   UNL     1     -11.371  10.683  70.181  1.00  0.00    -0.323 C  
ENDROOT
BRANCH   2   3
HETATM    3  N   UNL     1     -12.409  11.704  70.409  1.00  0.00    -0.312 NA 
BRANCH   3   4
HETATM    4  C   UNL     1     -13.042  11.615  71.741  1.00  0.00    -0.382 C  
HETATM    5  C   UNL     1     -13.579  12.919  72.332  1.00  0.00    -0.577 C  
ENDBRANCH   3   4
BRANCH   3   6
HETATM    6  C   UNL     1     -11.885  13.073  70.174  1.00  0.00    -0.252 C  
BRANCH   6   7
HETATM    7  C   UNL     1     -12.000  13.601  68.732  1.00  0.00    -0.359 C  
BRANCH   7   8
HETATM    8  N   UNL     1     -11.543  14.969  68.603  1.00  0.00    -0.312 N  
HETATM    9  C   UNL     1     -11.025  15.427  67.410  1.00  0.00    -0.312 C  
HETATM   10  H   UNL     1     -11.606  15.599  69.403  1.00  0.00     0.000 HD 
HETATM   11  O   UNL     1     -10.879  14.711  66.424  1.00  0.00    -0.303 OA 
BRANCH   9  12
HETATM   12  C   UNL     1     -10.658  16.868  67.348  1.00  0.00    -0.294 A  
HETATM   13  C   UNL     1     -10.275  17.587  68.484  1.00  0.00    -0.378 A  
HETATM   14  C   UNL     1      -9.926  18.938  68.374  1.00  0.00    -0.447 A  
HETATM   15  C   UNL     1      -9.986  19.596  67.143  1.00  0.00    -0.387 A  
HETATM   16  C   UNL     1     -10.289  18.853  65.999  1.00  0.00    -0.485 A  
HETATM   17  N   UNL     1      -9.520  20.910  67.026  1.00  0.00    -0.690 NA 
HETATM   18  H2  UNL     1      -8.557  20.942  67.361  1.00  0.00     0.000 HD 
HETATM   19  H1  UNL     1      -9.563  21.392  66.127  1.00  0.00     0.000 HD 
HETATM   20  C   UNL     1     -10.640  17.502  66.100  1.00  0.00    -0.211 A  
ENDBRANCH   9  12
ENDBRANCH   7   8
ENDBRANCH   6   7
ENDBRANCH   3   6
ENDBRANCH   2   3
TORSDOF 6
ENDMDL
MODEL       68
REMARK 921   NORMALIZED FREE ENERGY PREDICTED BY IDOCK:   -4.42 KCAL/MOL
REMARK 922        TOTAL FREE ENERGY PREDICTED BY IDOCK:   -6.44 KCAL/MOL
REMARK 923 INTER-LIGAND FREE ENERGY PREDICTED BY IDOCK:   -6.12 KCAL/MOL
REMARK 924 INTRA-LIGAND FREE ENERGY PREDICTED BY IDOCK:   -0.32 KCAL/MOL
REMARK 927      BINDING AFFINITY PREDICTED BY RF-SCORE:    0.00 PKD
ROOT
HETATM    1  C   UNL     1      -9.846   6.683  74.080  1.00  0.00    -0.335 C  
HETATM    2  C   UNL     1      -9.685   6.437  72.581  1.00  0.00    -0.161 C  
ENDROOT
BRANCH   2   3
HETATM    3  N   UNL     1     -10.732   7.043  71.740  1.00  0.00    -0.216 NA 
BRANCH   3   4
HETATM    4  C   UNL     1     -11.390   6.082  70.831  1.00  0.00    -0.229 C  
HETATM    5  C   UNL     1     -11.187   6.308  69.332  1.00  0.00    -0.489 C  
ENDBRANCH   3   4
BRANCH   3   6
HETATM    6  C   UNL     1     -11.743   7.756  72.562  1.00  0.00    -0.339 C  
BRANCH   6   7
HETATM    7  C   UNL     1     -12.833   8.513  71.782  1.00  0.00    -0.348 C  
BRANCH   7   8
HETATM    8  N   UNL     1     -12.760   9.947  71.975  1.00  0.00    -0.387 N  
HETATM    9  C   UNL     1     -12.629  10.794  70.895  1.00  0.00    -0.401 C  
HETATM   10  H   UNL     1     -12.805  10.332  72.918  1.00  0.00     0.000 HD 
HETATM   11  O   UNL     1     -12.523  10.396  69.739  1.00  0.00    -0.163 OA 
BRANCH   9  12
HETATM   12  C   UNL     1     -12.644  12.254  71.183  1.00  0.00    -0.353 A  
HETATM   13  C   UNL     1     -13.296  12.785  72.301  1.00  0.00    -0.563 A  
HETATM   14  C   UNL     1     -13.272  14.164  72.537  1.00  0.00    -0.596 A  
HETATM   15  C   UNL     1     -12.630  15.033  71.650  1.00  0.00    -0.339 A  
HETATM   16  C   UNL     1     -11.911  14.490  70.582  1.00  0.00    -0.387 A  
HETATM   17  N   UNL     1     -12.511  16.392  71.961  1.00  0.00    -0.475 NA 
HETATM   18  H2  UNL     1     -12.063  16.475  72.873  1.00  0.00     0.000 HD 
HETATM   19  H1  UNL     1     -12.042  17.026  71.314  1.00  0.00     0.000 HD 
HETATM   20  C   UNL     1     -11.930  13.112  70.337  1.00  0.00    -0.343 A  
ENDBRANCH   9  12
ENDBRANCH   7   8
ENDBRANCH   6   7
ENDBRANCH   3   6
ENDBRANCH   2   3
TORSDOF 6
ENDMDL
MODEL       69
REMARK 921   NORMALIZED FREE ENERGY PREDICTED BY IDOCK:   -4.40 KCAL/MOL
REMARK 922        TOTAL FREE ENERGY PREDICTED BY IDOCK:   -6.42 KCAL/MOL
REMARK 923 INTER-LIGAND FREE ENERGY PREDICTED BY IDOCK:   -6.09 KCAL/MOL
REMARK 924 INTRA-LIGAND FREE ENERGY PREDICTED BY IDOCK:   -0.33 KCAL/MOL
REMARK 927      BINDING AFFINITY PREDICTED BY RF-SCORE:    0.00 PKD
ROOT
HETATM    1  C   UNL     1     -10.737  19.404  67.287  1.00  0.00    -0.603 C  
HETATM    2  C   UNL     1      -9.831  19.799  66.121  1.00  0.00    -0.448 C  
ENDROOT
BRANCH   2   3
HETATM    3  N   UNL     1      -8.639  18.949  65.952  1.00  0.00    -0.435 NA 
BRANCH   3   4
HETATM    4  C   UNL     1      -7.365  19.688  66.076  1.00  0.00    -0.298 C  
HETATM    5  C   UNL     1      -7.378  20.933  66.962  1.00  0.00    -0.325 C  
ENDBRANCH   3   4
BRANCH   3   6
HETATM    6  C   UNL     1      -8.660  17.792  66.883  1.00  0.00    -0.244 C  
BRANCH   6   7
HETATM    7  C   UNL     1      -8.473  16.406  66.240  1.00  0.00    -0.337 C  
BRANCH   7   8
HETATM    8  N   UNL     1      -9.215  15.370  66.928  1.00  0.00    -0.219 N  
HETATM    9  C   UNL     1      -9.945  14.441  66.218  1.00  0.00    -0.306 C  
HETATM   10  H   UNL     1      -9.197  15.328  67.947  1.00  0.00     0.000 HD 
HETATM   11  O   UNL     1     -10.048  14.461  64.995  1.00  0.00    -0.390 OA 
BRANCH   9  12
HETATM   12  C   UNL     1     -10.609  13.366  67.005  1.00  0.00    -0.264 A  
HETATM   13  C   UNL     1     -10.549  12.022  66.624  1.00  0.00    -0.266 A  
HETATM   14  C   UNL     1     -11.179  11.044  67.403  1.00  0.00    -0.355 A  
HETATM   15  C   UNL     1     -11.902  11.394  68.546  1.00  0.00    -0.294 A  
HETATM   16  C   UNL     1     -11.889  12.726  68.966  1.00  0.00    -0.344 A  
HETATM   17  N   UNL     1     -12.424  10.398  69.379  1.00  0.00    -0.656 NA 
HETATM   18  H2  UNL     1     -11.662   9.779  69.657  1.00  0.00     0.000 HD 
HETATM   19  H1  UNL     1     -12.952  10.652  70.214  1.00  0.00     0.000 HD 
HETATM   20  C   UNL     1     -11.263  13.710  68.194  1.00  0.00    -0.303 A  
ENDBRANCH   9  12
ENDBRANCH   7   8
ENDBRANCH   6   7
ENDBRANCH   3   6
ENDBRANCH   2   3
TORSDOF 6
ENDMDL
MODEL       70
REMARK 921   NORMALIZED FREE ENERGY PREDICTED BY IDOCK:   -4.39 KCAL/MOL
REMARK 922        TOTAL FREE ENERGY PREDICTED BY IDOCK:   -6.41 KCAL/MOL
REMARK 923 INTER-LIGAND FREE ENERGY PREDICTED BY IDOCK:   -6.07 KCAL/MOL
REMARK 924 INTRA-LIGAND FREE ENERGY PREDICTED BY IDOCK:   -0.34 KCAL/MOL
REMARK 927      BINDING AFFINITY PREDICTED BY RF-SCORE:    0.00 PKD
ROOT
HETATM    1  C   UNL     1     -11.406   8.574  72.057  1.00  0.00    -0.425 C  
HETATM    2  C   UNL     1     -11.072   7.302  71.278  1.00  0.00    -0.247 C  
ENDROOT
BRANCH   2   3
HETATM    3  N   UNL     1      -9.850   7.385  70.458  1.00  0.00    -0.180 NA 
BRANCH   3   4
HETATM    4  C   UNL     1      -9.577   6.158  69.680  1.00  0.00    -0.148 C  
HETATM    5  C   UNL     1     -10.128   4.850  70.249  1.00  0.00    -0.322 C  
ENDBRANCH   3   4
BRANCH   3   6
HETATM    6  C   UNL     1      -9.875   8.571  69.564  1.00  0.00    -0.187 C  
BRANCH   6   7
HETATM    7  C   UNL     1     -10.246   8.301  68.095  1.00  0.00    -0.210 C  
BRANCH   7   8
HETATM    8  N   UNL     1     -10.712   9.490  67.412  1.00  0.00    -0.324 N  
HETATM    9  C   UNL     1     -10.189   9.846  66.187  1.00  0.00    -0.207 C  
HETATM   10  H   UNL     1     -11.433  10.070  67.843  1.00  0.00     0.000 HD 
HETATM   11  O   UNL     1      -9.289   9.221  65.635  1.00  0.00    -0.217 OA 
BRANCH   9  12
HETATM   12  C   UNL     1     -10.785  11.037  65.524  1.00  0.00    -0.218 A  
HETATM   13  C   UNL     1     -11.391  12.067  66.252  1.00  0.00    -0.415 A  
HETATM   14  C   UNL     1     -11.927  13.174  65.584  1.00  0.00    -0.462 A  
HETATM   15  C   UNL     1     -11.898  13.255  64.189  1.00  0.00    -0.443 A  
HETATM   16  C   UNL     1     -11.220  12.265  63.475  1.00  0.00    -0.535 A  
HETATM   17  N   UNL     1     -12.328  14.420  63.544  1.00  0.00    -1.114 NA 
HETATM   18  H2  UNL     1     -11.806  15.209  63.923  1.00  0.00     0.000 HD 
HETATM   19  H1  UNL     1     -12.307  14.479  62.526  1.00  0.00     0.000 HD 
HETATM   20  C   UNL     1     -10.682  11.154  64.132  1.00  0.00    -0.415 A  
ENDBRANCH   9  12
ENDBRANCH   7   8
ENDBRANCH   6   7
ENDBRANCH   3   6
ENDBRANCH   2   3
TORSDOF 6
ENDMDL
MODEL       71
REMARK 921   NORMALIZED FREE ENERGY PREDICTED BY IDOCK:   -4.37 KCAL/MOL
REMARK 922        TOTAL FREE ENERGY PREDICTED BY IDOCK:   -6.38 KCAL/MOL
REMARK 923 INTER-LIGAND FREE ENERGY PREDICTED BY IDOCK:   -6.16 KCAL/MOL
REMARK 924 INTRA-LIGAND FREE ENERGY PREDICTED BY IDOCK:   -0.22 KCAL/MOL
REMARK 927      BINDING AFFINITY PREDICTED BY RF-SCORE:    0.00 PKD
ROOT
HETATM    1  C   UNL     1      -8.019   7.613  74.561  1.00  0.00    -0.246 C  
HETATM    2  C   UNL     1      -9.242   6.708  74.421  1.00  0.00    -0.209 C  
ENDROOT
BRANCH   2   3
HETATM    3  N   UNL     1      -9.816   6.652  73.065  1.00  0.00    -0.163 NA 
BRANCH   3   4
HETATM    4  C   UNL     1     -10.605   5.430  72.807  1.00  0.00    -0.229 C  
HETATM    5  C   UNL     1      -9.818   4.129  72.641  1.00  0.00    -0.205 C  
ENDBRANCH   3   4
BRANCH   3   6
HETATM    6  C   UNL     1     -10.622   7.863  72.765  1.00  0.00    -0.353 C  
BRANCH   6   7
HETATM    7  C   UNL     1     -10.711   8.264  71.281  1.00  0.00    -0.227 C  
BRANCH   7   8
HETATM    8  N   UNL     1     -11.032   9.665  71.103  1.00  0.00    -0.360 N  
HETATM    9  C   UNL     1     -12.327  10.113  71.260  1.00  0.00    -0.400 C  
HETATM   10  H   UNL     1     -10.294  10.325  70.860  1.00  0.00     0.000 HD 
HETATM   11  O   UNL     1     -13.269   9.366  71.506  1.00  0.00    -0.355 OA 
BRANCH   9  12
HETATM   12  C   UNL     1     -12.549  11.579  71.137  1.00  0.00    -0.463 A  
HETATM   13  C   UNL     1     -12.008  12.327  70.087  1.00  0.00    -0.377 A  
HETATM   14  C   UNL     1     -12.255  13.702  70.007  1.00  0.00    -0.395 A  
HETATM   15  C   UNL     1     -13.011  14.354  70.985  1.00  0.00    -0.349 A  
HETATM   16  C   UNL     1     -13.615  13.589  71.985  1.00  0.00    -0.589 A  
HETATM   17  N   UNL     1     -13.348  15.703  70.828  1.00  0.00    -0.771 NA 
HETATM   18  H2  UNL     1     -13.819  15.815  69.931  1.00  0.00     0.000 HD 
HETATM   19  H1  UNL     1     -13.900  16.179  71.542  1.00  0.00     0.000 HD 
HETATM   20  C   UNL     1     -13.374  12.214  72.074  1.00  0.00    -0.470 A  
ENDBRANCH   9  12
ENDBRANCH   7   8
ENDBRANCH   6   7
ENDBRANCH   3   6
ENDBRANCH   2   3
TORSDOF 6
ENDMDL
MODEL       72
REMARK 921   NORMALIZED FREE ENERGY PREDICTED BY IDOCK:   -4.37 KCAL/MOL
REMARK 922        TOTAL FREE ENERGY PREDICTED BY IDOCK:   -6.37 KCAL/MOL
REMARK 923 INTER-LIGAND FREE ENERGY PREDICTED BY IDOCK:   -6.06 KCAL/MOL
REMARK 924 INTRA-LIGAND FREE ENERGY PREDICTED BY IDOCK:   -0.31 KCAL/MOL
REMARK 927      BINDING AFFINITY PREDICTED BY RF-SCORE:    0.00 PKD
ROOT
HETATM    1  C   UNL     1      -9.483   8.011  72.997  1.00  0.00    -0.345 C  
HETATM    2  C   UNL     1     -10.998   7.820  72.938  1.00  0.00    -0.407 C  
ENDROOT
BRANCH   2   3
HETATM    3  N   UNL     1     -11.597   8.052  71.612  1.00  0.00    -0.264 NA 
BRANCH   3   4
HETATM    4  C   UNL     1     -12.965   7.508  71.478  1.00  0.00    -0.359 C  
HETATM    5  C   UNL     1     -14.109   8.412  71.941  1.00  0.00    -0.516 C  
ENDBRANCH   3   4
BRANCH   3   6
HETATM    6  C   UNL     1     -11.573   9.491  71.248  1.00  0.00    -0.374 C  
BRANCH   6   7
HETATM    7  C   UNL     1     -11.062   9.822  69.834  1.00  0.00    -0.254 C  
BRANCH   7   8
HETATM    8  N   UNL     1     -10.855  11.241  69.636  1.00  0.00    -0.445 N  
HETATM    9  C   UNL     1     -11.517  11.913  68.631  1.00  0.00    -0.294 C  
HETATM   10  H   UNL     1     -10.213  11.748  70.247  1.00  0.00     0.000 HD 
HETATM   11  O   UNL     1     -12.265  11.357  67.833  1.00  0.00    -0.592 OA 
BRANCH   9  12
HETATM   12  C   UNL     1     -11.305  13.384  68.554  1.00  0.00    -0.324 A  
HETATM   13  C   UNL     1     -10.626  13.982  67.487  1.00  0.00    -0.260 A  
HETATM   14  C   UNL     1     -10.462  15.372  67.452  1.00  0.00    -0.277 A  
HETATM   15  C   UNL     1     -10.939  16.177  68.490  1.00  0.00    -0.338 A  
HETATM   16  C   UNL     1     -11.686  15.583  69.510  1.00  0.00    -0.380 A  
HETATM   17  N   UNL     1     -10.874  17.571  68.384  1.00  0.00    -0.264 NA 
HETATM   18  H2  UNL     1     -11.339  17.850  67.521  1.00  0.00     0.000 HD 
HETATM   19  H1  UNL     1     -11.222  18.159  69.142  1.00  0.00     0.000 HD 
HETATM   20  C   UNL     1     -11.855  14.195  69.554  1.00  0.00    -0.373 A  
ENDBRANCH   9  12
ENDBRANCH   7   8
ENDBRANCH   6   7
ENDBRANCH   3   6
ENDBRANCH   2   3
TORSDOF 6
ENDMDL
MODEL       73
REMARK 921   NORMALIZED FREE ENERGY PREDICTED BY IDOCK:   -4.36 KCAL/MOL
REMARK 922        TOTAL FREE ENERGY PREDICTED BY IDOCK:   -6.36 KCAL/MOL
REMARK 923 INTER-LIGAND FREE ENERGY PREDICTED BY IDOCK:   -5.86 KCAL/MOL
REMARK 924 INTRA-LIGAND FREE ENERGY PREDICTED BY IDOCK:   -0.51 KCAL/MOL
REMARK 927      BINDING AFFINITY PREDICTED BY RF-SCORE:    0.00 PKD
ROOT
HETATM    1  C   UNL     1     -11.948  11.201  68.845  1.00  0.00    -0.367 C  
HETATM    2  C   UNL     1     -11.763  12.475  68.022  1.00  0.00    -0.355 C  
ENDROOT
BRANCH   2   3
HETATM    3  N   UNL     1     -11.166  12.269  66.691  1.00  0.00    -0.298 NA 
BRANCH   3   4
HETATM    4  C   UNL     1     -12.107  12.511  65.577  1.00  0.00    -0.419 C  
HETATM    5  C   UNL     1     -12.756  13.894  65.518  1.00  0.00    -0.536 C  
ENDBRANCH   3   4
BRANCH   3   6
HETATM    6  C   UNL     1      -9.935  13.080  66.516  1.00  0.00    -0.262 C  
BRANCH   6   7
HETATM    7  C   UNL     1      -9.413  13.794  67.776  1.00  0.00    -0.216 C  
BRANCH   7   8
HETATM    8  N   UNL     1      -8.949  15.138  67.501  1.00  0.00    -0.176 N  
HETATM    9  C   UNL     1      -9.789  16.218  67.670  1.00  0.00    -0.238 C  
HETATM   10  H   UNL     1      -7.993  15.286  67.178  1.00  0.00     0.000 HD 
HETATM   11  O   UNL     1     -10.963  16.108  68.010  1.00  0.00    -0.331 OA 
BRANCH   9  12
HETATM   12  C   UNL     1      -9.202  17.567  67.441  1.00  0.00    -0.238 A  
HETATM   13  C   UNL     1      -9.593  18.683  68.187  1.00  0.00    -0.364 A  
HETATM   14  C   UNL     1      -9.004  19.929  67.944  1.00  0.00    -0.381 A  
HETATM   15  C   UNL     1      -8.047  20.087  66.937  1.00  0.00    -0.321 A  
HETATM   16  C   UNL     1      -7.602  18.953  66.253  1.00  0.00    -0.293 A  
HETATM   17  N   UNL     1      -7.381  21.308  66.786  1.00  0.00    -0.755 NA 
HETATM   18  H2  UNL     1      -6.953  21.553  67.679  1.00  0.00     0.000 HD 
HETATM   19  H1  UNL     1      -6.682  21.423  66.052  1.00  0.00     0.000 HD 
HETATM   20  C   UNL     1      -8.185  17.703  66.488  1.00  0.00    -0.307 A  
ENDBRANCH   9  12
ENDBRANCH   7   8
ENDBRANCH   6   7
ENDBRANCH   3   6
ENDBRANCH   2   3
TORSDOF 6
ENDMDL
MODEL       74
REMARK 921   NORMALIZED FREE ENERGY PREDICTED BY IDOCK:   -4.35 KCAL/MOL
REMARK 922        TOTAL FREE ENERGY PREDICTED BY IDOCK:   -6.35 KCAL/MOL
REMARK 923 INTER-LIGAND FREE ENERGY PREDICTED BY IDOCK:   -5.95 KCAL/MOL
REMARK 924 INTRA-LIGAND FREE ENERGY PREDICTED BY IDOCK:   -0.40 KCAL/MOL
REMARK 927      BINDING AFFINITY PREDICTED BY RF-SCORE:    0.00 PKD
ROOT
HETATM    1  C   UNL     1     -10.365   5.902  66.527  1.00  0.00    -0.237 C  
HETATM    2  C   UNL     1     -10.234   7.339  67.031  1.00  0.00    -0.278 C  
ENDROOT
BRANCH   2   3
HETATM    3  N   UNL     1     -10.742   7.562  68.397  1.00  0.00    -0.123 NA 
BRANCH   3   4
HETATM    4  C   UNL     1     -11.095   6.314  69.106  1.00  0.00    -0.390 C  
HETATM    5  C   UNL     1     -11.535   6.457  70.564  1.00  0.00    -0.444 C  
ENDBRANCH   3   4
BRANCH   3   6
HETATM    6  C   UNL     1      -9.792   8.367  69.205  1.00  0.00    -0.186 C  
BRANCH   6   7
HETATM    7  C   UNL     1     -10.278   9.769  69.618  1.00  0.00    -0.233 C  
BRANCH   7   8
HETATM    8  N   UNL     1     -10.855  10.505  68.512  1.00  0.00    -0.217 N  
HETATM    9  C   UNL     1     -10.046  11.170  67.615  1.00  0.00    -0.179 C  
HETATM   10  H   UNL     1     -11.868  10.531  68.397  1.00  0.00     0.000 HD 
HETATM   11  O   UNL     1      -8.825  11.218  67.721  1.00  0.00    -0.135 OA 
BRANCH   9  12
HETATM   12  C   UNL     1     -10.722  11.831  66.465  1.00  0.00    -0.304 A  
HETATM   13  C   UNL     1     -11.729  12.784  66.644  1.00  0.00    -0.459 A  
HETATM   14  C   UNL     1     -12.327  13.388  65.532  1.00  0.00    -0.528 A  
HETATM   15  C   UNL     1     -11.957  13.028  64.233  1.00  0.00    -0.402 A  
HETATM   16  C   UNL     1     -10.895  12.136  64.063  1.00  0.00    -0.436 A  
HETATM   17  N   UNL     1     -12.476  13.724  63.136  1.00  0.00    -1.074 NA 
HETATM   18  H2  UNL     1     -12.280  14.717  63.263  1.00  0.00     0.000 HD 
HETATM   19  H1  UNL     1     -12.205  13.461  62.188  1.00  0.00     0.000 HD 
HETATM   20  C   UNL     1     -10.291  11.527  65.168  1.00  0.00    -0.329 A  
ENDBRANCH   9  12
ENDBRANCH   7   8
ENDBRANCH   6   7
ENDBRANCH   3   6
ENDBRANCH   2   3
TORSDOF 6
ENDMDL
MODEL       75
REMARK 921   NORMALIZED FREE ENERGY PREDICTED BY IDOCK:   -4.34 KCAL/MOL
REMARK 922        TOTAL FREE ENERGY PREDICTED BY IDOCK:   -6.35 KCAL/MOL
REMARK 923 INTER-LIGAND FREE ENERGY PREDICTED BY IDOCK:   -6.03 KCAL/MOL
REMARK 924 INTRA-LIGAND FREE ENERGY PREDICTED BY IDOCK:   -0.31 KCAL/MOL
REMARK 927      BINDING AFFINITY PREDICTED BY RF-SCORE:    0.00 PKD
ROOT
HETATM    1  C   UNL     1     -10.891   6.043  69.183  1.00  0.00    -0.422 C  
HETATM    2  C   UNL     1     -10.823   5.719  70.674  1.00  0.00    -0.267 C  
ENDROOT
BRANCH   2   3
HETATM    3  N   UNL     1      -9.707   6.358  71.394  1.00  0.00    -0.173 NA 
BRANCH   3   4
HETATM    4  C   UNL     1      -8.377   6.011  70.851  1.00  0.00    -0.126 C  
HETATM    5  C   UNL     1      -7.325   7.120  70.856  1.00  0.00    -0.075 C  
ENDBRANCH   3   4
BRANCH   3   6
HETATM    6  C   UNL     1      -9.874   7.833  71.454  1.00  0.00    -0.167 C  
BRANCH   6   7
HETATM    7  C   UNL     1     -11.248   8.337  71.930  1.00  0.00    -0.300 C  
BRANCH   7   8
HETATM    8  N   UNL     1     -11.490   9.717  71.563  1.00  0.00    -0.366 N  
HETATM    9  C   UNL     1     -12.728  10.290  71.765  1.00  0.00    -0.433 C  
HETATM   10  H   UNL     1     -10.738  10.270  71.151  1.00  0.00     0.000 HD 
HETATM   11  O   UNL     1     -13.689   9.671  72.212  1.00  0.00    -0.417 OA 
BRANCH   9  12
HETATM   12  C   UNL     1     -12.861  11.735  71.433  1.00  0.00    -0.440 A  
HETATM   13  C   UNL     1     -13.632  12.607  72.209  1.00  0.00    -0.508 A  
HETATM   14  C   UNL     1     -13.717  13.961  71.864  1.00  0.00    -0.521 A  
HETATM   15  C   UNL     1     -13.067  14.456  70.730  1.00  0.00    -0.285 A  
HETATM   16  C   UNL     1     -12.233  13.598  70.008  1.00  0.00    -0.395 A  
HETATM   17  N   UNL     1     -13.062  15.829  70.466  1.00  0.00    -0.753 NA 
HETATM   18  H2  UNL     1     -12.694  16.313  71.285  1.00  0.00     0.000 HD 
HETATM   19  H1  UNL     1     -12.588  16.191  69.638  1.00  0.00     0.000 HD 
HETATM   20  C   UNL     1     -12.142  12.243  70.344  1.00  0.00    -0.385 A  
ENDBRANCH   9  12
ENDBRANCH   7   8
ENDBRANCH   6   7
ENDBRANCH   3   6
ENDBRANCH   2   3
TORSDOF 6
ENDMDL
MODEL       76
REMARK 921   NORMALIZED FREE ENERGY PREDICTED BY IDOCK:   -4.34 KCAL/MOL
REMARK 922        TOTAL FREE ENERGY PREDICTED BY IDOCK:   -6.33 KCAL/MOL
REMARK 923 INTER-LIGAND FREE ENERGY PREDICTED BY IDOCK:   -5.67 KCAL/MOL
REMARK 924 INTRA-LIGAND FREE ENERGY PREDICTED BY IDOCK:   -0.66 KCAL/MOL
REMARK 927      BINDING AFFINITY PREDICTED BY RF-SCORE:    0.00 PKD
ROOT
HETATM    1  C   UNL     1     -12.090  13.827  64.441  1.00  0.00    -0.474 C  
HETATM    2  C   UNL     1     -10.666  13.290  64.585  1.00  0.00    -0.400 C  
ENDROOT
BRANCH   2   3
HETATM    3  N   UNL     1     -10.423  12.510  65.811  1.00  0.00    -0.265 NA 
BRANCH   3   4
HETATM    4  C   UNL     1      -9.482  11.386  65.618  1.00  0.00    -0.230 C  
HETATM    5  C   UNL     1      -9.955  10.010  66.088  1.00  0.00    -0.322 C  
ENDBRANCH   3   4
BRANCH   3   6
HETATM    6  C   UNL     1      -9.972  13.379  66.927  1.00  0.00    -0.252 C  
BRANCH   6   7
HETATM    7  C   UNL     1     -10.882  13.409  68.168  1.00  0.00    -0.255 C  
BRANCH   7   8
HETATM    8  N   UNL     1     -10.534  12.390  69.137  1.00  0.00    -0.432 N  
HETATM    9  C   UNL     1     -11.300  11.251  69.262  1.00  0.00    -0.287 C  
HETATM   10  H   UNL     1      -9.715  12.517  69.731  1.00  0.00     0.000 HD 
HETATM   11  O   UNL     1     -12.323  11.055  68.613  1.00  0.00    -0.539 OA 
BRANCH   9  12
HETATM   12  C   UNL     1     -10.821  10.223  70.226  1.00  0.00    -0.349 A  
HETATM   13  C   UNL     1      -9.529   9.691  70.163  1.00  0.00    -0.298 A  
HETATM   14  C   UNL     1      -9.119   8.735  71.099  1.00  0.00    -0.285 A  
HETATM   15  C   UNL     1      -9.995   8.273  72.085  1.00  0.00    -0.273 A  
HETATM   16  C   UNL     1     -11.255   8.867  72.192  1.00  0.00    -0.362 A  
HETATM   17  N   UNL     1      -9.536   7.408  73.084  1.00  0.00    -0.180 NA 
HETATM   18  H2  UNL     1      -8.737   7.844  73.544  1.00  0.00     0.000 HD 
HETATM   19  H1  UNL     1     -10.176   7.071  73.804  1.00  0.00     0.000 HD 
HETATM   20  C   UNL     1     -11.674   9.823  71.261  1.00  0.00    -0.472 A  
ENDBRANCH   9  12
ENDBRANCH   7   8
ENDBRANCH   6   7
ENDBRANCH   3   6
ENDBRANCH   2   3
TORSDOF 6
ENDMDL
MODEL       77
REMARK 921   NORMALIZED FREE ENERGY PREDICTED BY IDOCK:   -4.33 KCAL/MOL
REMARK 922        TOTAL FREE ENERGY PREDICTED BY IDOCK:   -6.33 KCAL/MOL
REMARK 923 INTER-LIGAND FREE ENERGY PREDICTED BY IDOCK:   -5.94 KCAL/MOL
REMARK 924 INTRA-LIGAND FREE ENERGY PREDICTED BY IDOCK:   -0.39 KCAL/MOL
REMARK 927      BINDING AFFINITY PREDICTED BY RF-SCORE:    0.00 PKD
ROOT
HETATM    1  C   UNL     1     -12.279   7.106  71.155  1.00  0.00    -0.405 C  
HETATM    2  C   UNL     1     -11.928   8.161  72.202  1.00  0.00    -0.359 C  
ENDROOT
BRANCH   2   3
HETATM    3  N   UNL     1     -11.166   9.312  71.687  1.00  0.00    -0.370 NA 
BRANCH   3   4
HETATM    4  C   UNL     1      -9.792   8.969  71.263  1.00  0.00    -0.306 C  
HETATM    5  C   UNL     1      -9.389   9.381  69.846  1.00  0.00    -0.234 C  
ENDBRANCH   3   4
BRANCH   3   6
HETATM    6  C   UNL     1     -11.892   9.996  70.587  1.00  0.00    -0.325 C  
BRANCH   6   7
HETATM    7  C   UNL     1     -12.311  11.453  70.860  1.00  0.00    -0.381 C  
BRANCH   7   8
HETATM    8  N   UNL     1     -11.909  12.353  69.799  1.00  0.00    -0.364 N  
HETATM    9  C   UNL     1     -12.243  13.690  69.849  1.00  0.00    -0.304 C  
HETATM   10  H   UNL     1     -11.373  11.995  69.008  1.00  0.00     0.000 HD 
HETATM   11  O   UNL     1     -12.924  14.177  70.746  1.00  0.00    -0.329 OA 
BRANCH   9  12
HETATM   12  C   UNL     1     -11.718  14.555  68.758  1.00  0.00    -0.362 A  
HETATM   13  C   UNL     1     -11.405  15.902  68.963  1.00  0.00    -0.371 A  
HETATM   14  C   UNL     1     -10.901  16.672  67.909  1.00  0.00    -0.321 A  
HETATM   15  C   UNL     1     -10.736  16.124  66.634  1.00  0.00    -0.226 A  
HETATM   16  C   UNL     1     -10.973  14.759  66.456  1.00  0.00    -0.325 A  
HETATM   17  N   UNL     1     -10.121  16.870  65.623  1.00  0.00    -0.586 NA 
HETATM   18  H2  UNL     1      -9.210  17.180  65.960  1.00  0.00     0.000 HD 
HETATM   19  H1  UNL     1     -10.000  16.470  64.692  1.00  0.00     0.000 HD 
HETATM   20  C   UNL     1     -11.477  13.980  67.504  1.00  0.00    -0.369 A  
ENDBRANCH   9  12
ENDBRANCH   7   8
ENDBRANCH   6   7
ENDBRANCH   3   6
ENDBRANCH   2   3
TORSDOF 6
ENDMDL
MODEL       78
REMARK 921   NORMALIZED FREE ENERGY PREDICTED BY IDOCK:   -4.30 KCAL/MOL
REMARK 922        TOTAL FREE ENERGY PREDICTED BY IDOCK:   -6.29 KCAL/MOL
REMARK 923 INTER-LIGAND FREE ENERGY PREDICTED BY IDOCK:   -6.03 KCAL/MOL
REMARK 924 INTRA-LIGAND FREE ENERGY PREDICTED BY IDOCK:   -0.26 KCAL/MOL
REMARK 927      BINDING AFFINITY PREDICTED BY RF-SCORE:    0.00 PKD
ROOT
HETATM    1  C   UNL     1     -10.622   7.354  69.482  1.00  0.00    -0.244 C  
HETATM    2  C   UNL     1     -10.494   8.236  70.723  1.00  0.00    -0.196 C  
ENDROOT
BRANCH   2   3
HETATM    3  N   UNL     1      -9.363   9.180  70.694  1.00  0.00    -0.237 NA 
BRANCH   3   4
HETATM    4  C   UNL     1      -8.046   8.520  70.563  1.00  0.00    -0.112 C  
HETATM    5  C   UNL     1      -6.845   9.271  71.139  1.00  0.00    -0.069 C  
ENDBRANCH   3   4
BRANCH   3   6
HETATM    6  C   UNL     1      -9.537  10.205  69.635  1.00  0.00    -0.210 C  
BRANCH   6   7
HETATM    7  C   UNL     1     -10.718  11.175  69.823  1.00  0.00    -0.010 C  
BRANCH   7   8
HETATM    8  N   UNL     1     -10.730  12.233  68.834  1.00  0.00    -0.344 N  
HETATM    9  C   UNL     1     -11.284  12.024  67.589  1.00  0.00    -0.282 C  
HETATM   10  H   UNL     1     -10.323  13.141  69.061  1.00  0.00     0.000 HD 
HETATM   11  O   UNL     1     -11.747  10.945  67.234  1.00  0.00    -0.458 OA 
BRANCH   9  12
HETATM   12  C   UNL     1     -11.324  13.192  66.668  1.00  0.00    -0.361 A  
HETATM   13  C   UNL     1     -10.377  14.220  66.730  1.00  0.00    -0.274 A  
HETATM   14  C   UNL     1     -10.448  15.292  65.833  1.00  0.00    -0.345 A  
HETATM   15  C   UNL     1     -11.476  15.374  64.891  1.00  0.00    -0.311 A  
HETATM   16  C   UNL     1     -12.369  14.305  64.780  1.00  0.00    -0.440 A  
HETATM   17  N   UNL     1     -11.466  16.386  63.926  1.00  0.00    -1.618 NA 
HETATM   18  H2  UNL     1     -10.576  16.348  63.428  1.00  0.00     0.000 HD 
HETATM   19  H1  UNL     1     -12.217  16.446  63.237  1.00  0.00     0.000 HD 
HETATM   20  C   UNL     1     -12.307  13.229  65.672  1.00  0.00    -0.521 A  
ENDBRANCH   9  12
ENDBRANCH   7   8
ENDBRANCH   6   7
ENDBRANCH   3   6
ENDBRANCH   2   3
TORSDOF 6
ENDMDL
MODEL       79
REMARK 921   NORMALIZED FREE ENERGY PREDICTED BY IDOCK:   -4.30 KCAL/MOL
REMARK 922        TOTAL FREE ENERGY PREDICTED BY IDOCK:   -6.29 KCAL/MOL
REMARK 923 INTER-LIGAND FREE ENERGY PREDICTED BY IDOCK:   -5.64 KCAL/MOL
REMARK 924 INTRA-LIGAND FREE ENERGY PREDICTED BY IDOCK:   -0.65 KCAL/MOL
REMARK 927      BINDING AFFINITY PREDICTED BY RF-SCORE:    0.00 PKD
ROOT
HETATM    1  C   UNL     1      -7.454   8.180  70.735  1.00  0.00    -0.066 C  
HETATM    2  C   UNL     1      -8.866   7.646  70.502  1.00  0.00    -0.149 C  
ENDROOT
BRANCH   2   3
HETATM    3  N   UNL     1      -9.618   8.334  69.438  1.00  0.00    -0.169 NA 
BRANCH   3   4
HETATM    4  C   UNL     1      -9.879   7.485  68.256  1.00  0.00    -0.163 C  
HETATM    5  C   UNL     1     -10.178   8.212  66.944  1.00  0.00    -0.387 C  
ENDBRANCH   3   4
BRANCH   3   6
HETATM    6  C   UNL     1     -10.886   8.910  69.953  1.00  0.00    -0.211 C  
BRANCH   6   7
HETATM    7  C   UNL     1     -10.914  10.441  70.116  1.00  0.00    -0.300 C  
BRANCH   7   8
HETATM    8  N   UNL     1     -11.390  11.117  68.928  1.00  0.00    -0.250 N  
HETATM    9  C   UNL     1     -10.506  11.747  68.078  1.00  0.00    -0.199 C  
HETATM   10  H   UNL     1     -12.388  11.127  68.718  1.00  0.00     0.000 HD 
HETATM   11  O   UNL     1      -9.300  11.814  68.294  1.00  0.00    -0.184 OA 
BRANCH   9  12
HETATM   12  C   UNL     1     -11.076  12.346  66.840  1.00  0.00    -0.335 A  
HETATM   13  C   UNL     1     -11.909  13.468  66.874  1.00  0.00    -0.452 A  
HETATM   14  C   UNL     1     -12.412  14.003  65.682  1.00  0.00    -0.531 A  
HETATM   15  C   UNL     1     -12.120  13.411  64.450  1.00  0.00    -0.416 A  
HETATM   16  C   UNL     1     -11.222  12.342  64.417  1.00  0.00    -0.389 A  
HETATM   17  N   UNL     1     -12.529  14.025  63.261  1.00  0.00    -1.112 NA 
HETATM   18  H2  UNL     1     -12.171  14.980  63.252  1.00  0.00     0.000 HD 
HETATM   19  H1  UNL     1     -12.317  13.593  62.361  1.00  0.00     0.000 HD 
HETATM   20  C   UNL     1     -10.715  11.799  65.602  1.00  0.00    -0.328 A  
ENDBRANCH   9  12
ENDBRANCH   7   8
ENDBRANCH   6   7
ENDBRANCH   3   6
ENDBRANCH   2   3
TORSDOF 6
ENDMDL
MODEL       80
REMARK 921   NORMALIZED FREE ENERGY PREDICTED BY IDOCK:   -4.28 KCAL/MOL
REMARK 922        TOTAL FREE ENERGY PREDICTED BY IDOCK:   -6.25 KCAL/MOL
REMARK 923 INTER-LIGAND FREE ENERGY PREDICTED BY IDOCK:   -5.90 KCAL/MOL
REMARK 924 INTRA-LIGAND FREE ENERGY PREDICTED BY IDOCK:   -0.35 KCAL/MOL
REMARK 927      BINDING AFFINITY PREDICTED BY RF-SCORE:    0.00 PKD
ROOT
HETATM    1  C   UNL     1      -6.155  19.255  69.203  1.00  0.00    -0.287 C  
HETATM    2  C   UNL     1      -7.585  19.504  68.728  1.00  0.00    -0.351 C  
ENDROOT
BRANCH   2   3
HETATM    3  N   UNL     1      -7.748  19.561  67.264  1.00  0.00    -0.250 NA 
BRANCH   3   4
HETATM    4  C   UNL     1      -6.467  19.549  66.527  1.00  0.00    -0.183 C  
HETATM    5  C   UNL     1      -6.513  20.006  65.068  1.00  0.00    -0.329 C  
ENDBRANCH   3   4
BRANCH   3   6
HETATM    6  C   UNL     1      -8.639  18.480  66.775  1.00  0.00    -0.284 C  
BRANCH   6   7
HETATM    7  C   UNL     1      -8.155  17.040  67.026  1.00  0.00    -0.205 C  
BRANCH   7   8
HETATM    8  N   UNL     1      -8.835  16.071  66.192  1.00  0.00    -0.338 N  
HETATM    9  C   UNL     1      -9.675  15.131  66.750  1.00  0.00    -0.242 C  
HETATM   10  H   UNL     1      -8.691  16.085  65.182  1.00  0.00     0.000 HD 
HETATM   11  O   UNL     1      -9.857  15.028  67.959  1.00  0.00    -0.214 OA 
BRANCH   9  12
HETATM   12  C   UNL     1     -10.393  14.230  65.808  1.00  0.00    -0.341 A  
HETATM   13  C   UNL     1     -11.321  14.712  64.880  1.00  0.00    -0.403 A  
HETATM   14  C   UNL     1     -11.963  13.827  64.006  1.00  0.00    -0.451 A  
HETATM   15  C   UNL     1     -11.715  12.453  64.066  1.00  0.00    -0.420 A  
HETATM   16  C   UNL     1     -10.727  11.988  64.938  1.00  0.00    -0.346 A  
HETATM   17  N   UNL     1     -12.271  11.597  63.110  1.00  0.00    -0.966 NA 
HETATM   18  H2  UNL     1     -12.004  11.931  62.184  1.00  0.00     0.000 HD 
HETATM   19  H1  UNL     1     -12.090  10.593  63.153  1.00  0.00     0.000 HD 
HETATM   20  C   UNL     1     -10.081  12.865  65.816  1.00  0.00    -0.294 A  
ENDBRANCH   9  12
ENDBRANCH   7   8
ENDBRANCH   6   7
ENDBRANCH   3   6
ENDBRANCH   2   3
TORSDOF 6
ENDMDL
MODEL       81
REMARK 921   NORMALIZED FREE ENERGY PREDICTED BY IDOCK:   -4.27 KCAL/MOL
REMARK 922        TOTAL FREE ENERGY PREDICTED BY IDOCK:   -6.25 KCAL/MOL
REMARK 923 INTER-LIGAND FREE ENERGY PREDICTED BY IDOCK:   -5.83 KCAL/MOL
REMARK 924 INTRA-LIGAND FREE ENERGY PREDICTED BY IDOCK:   -0.42 KCAL/MOL
REMARK 927      BINDING AFFINITY PREDICTED BY RF-SCORE:    0.00 PKD
ROOT
HETATM    1  C   UNL     1      -6.404   9.073  71.215  1.00  0.00    -0.075 C  
HETATM    2  C   UNL     1      -7.809   9.151  70.620  1.00  0.00    -0.146 C  
ENDROOT
BRANCH   2   3
HETATM    3  N   UNL     1      -7.974  10.160  69.558  1.00  0.00    -0.152 NA 
BRANCH   3   4
HETATM    4  C   UNL     1      -6.733  10.901  69.250  1.00  0.00    -0.086 C  
HETATM    5  C   UNL     1      -6.897  12.354  68.804  1.00  0.00    -0.092 C  
ENDBRANCH   3   4
BRANCH   3   6
HETATM    6  C   UNL     1      -8.542   9.561  68.324  1.00  0.00    -0.120 C  
BRANCH   6   7
HETATM    7  C   UNL     1     -10.016   9.892  68.030  1.00  0.00    -0.152 C  
BRANCH   7   8
HETATM    8  N   UNL     1     -10.165  11.056  67.180  1.00  0.00    -0.199 N  
HETATM    9  C   UNL     1     -11.315  11.815  67.225  1.00  0.00    -0.315 C  
HETATM   10  H   UNL     1      -9.412  11.316  66.543  1.00  0.00     0.000 HD 
HETATM   11  O   UNL     1     -12.278  11.532  67.932  1.00  0.00    -0.586 OA 
BRANCH   9  12
HETATM   12  C   UNL     1     -11.346  13.037  66.377  1.00  0.00    -0.355 A  
HETATM   13  C   UNL     1     -10.574  14.165  66.671  1.00  0.00    -0.278 A  
HETATM   14  C   UNL     1     -10.627  15.287  65.837  1.00  0.00    -0.345 A  
HETATM   15  C   UNL     1     -11.470  15.314  64.722  1.00  0.00    -0.363 A  
HETATM   16  C   UNL     1     -12.176  14.156  64.388  1.00  0.00    -0.466 A  
HETATM   17  N   UNL     1     -11.424  16.393  63.832  1.00  0.00    -1.618 NA 
HETATM   18  H2  UNL     1     -10.462  16.503  63.511  1.00  0.00     0.000 HD 
HETATM   19  H1  UNL     1     -12.039  16.413  63.018  1.00  0.00     0.000 HD 
HETATM   20  C   UNL     1     -12.130  13.029  65.216  1.00  0.00    -0.484 A  
ENDBRANCH   9  12
ENDBRANCH   7   8
ENDBRANCH   6   7
ENDBRANCH   3   6
ENDBRANCH   2   3
TORSDOF 6
ENDMDL
MODEL       82
REMARK 921   NORMALIZED FREE ENERGY PREDICTED BY IDOCK:   -4.26 KCAL/MOL
REMARK 922        TOTAL FREE ENERGY PREDICTED BY IDOCK:   -6.23 KCAL/MOL
REMARK 923 INTER-LIGAND FREE ENERGY PREDICTED BY IDOCK:   -5.91 KCAL/MOL
REMARK 924 INTRA-LIGAND FREE ENERGY PREDICTED BY IDOCK:   -0.32 KCAL/MOL
REMARK 927      BINDING AFFINITY PREDICTED BY RF-SCORE:    0.00 PKD
ROOT
HETATM    1  C   UNL     1     -13.578   8.734  72.519  1.00  0.00    -0.416 C  
HETATM    2  C   UNL     1     -13.021   9.886  71.682  1.00  0.00    -0.434 C  
ENDROOT
BRANCH   2   3
HETATM    3  N   UNL     1     -11.574   9.809  71.416  1.00  0.00    -0.382 NA 
BRANCH   3   4
HETATM    4  C   UNL     1     -11.092   8.436  71.160  1.00  0.00    -0.256 C  
HETATM    5  C   UNL     1      -9.796   8.024  71.860  1.00  0.00    -0.251 C  
ENDBRANCH   3   4
BRANCH   3   6
HETATM    6  C   UNL     1     -11.177  10.714  70.307  1.00  0.00    -0.285 C  
BRANCH   6   7
HETATM    7  C   UNL     1     -12.061  11.958  70.102  1.00  0.00    -0.302 C  
BRANCH   7   8
HETATM    8  N   UNL     1     -11.347  13.047  69.468  1.00  0.00    -0.443 N  
HETATM    9  C   UNL     1     -11.441  13.250  68.108  1.00  0.00    -0.312 C  
HETATM   10  H   UNL     1     -10.770  13.670  70.034  1.00  0.00     0.000 HD 
HETATM   11  O   UNL     1     -12.078  12.512  67.362  1.00  0.00    -0.466 OA 
BRANCH   9  12
HETATM   12  C   UNL     1     -10.739  14.441  67.557  1.00  0.00    -0.271 A  
HETATM   13  C   UNL     1      -9.809  14.339  66.518  1.00  0.00    -0.299 A  
HETATM   14  C   UNL     1      -9.183  15.490  66.023  1.00  0.00    -0.361 A  
HETATM   15  C   UNL     1      -9.448  16.746  66.577  1.00  0.00    -0.266 A  
HETATM   16  C   UNL     1     -10.438  16.850  67.557  1.00  0.00    -0.328 A  
HETATM   17  N   UNL     1      -8.908  17.898  65.996  1.00  0.00    -0.507 NA 
HETATM   18  H2  UNL     1      -9.175  17.917  65.012  1.00  0.00     0.000 HD 
HETATM   19  H1  UNL     1      -9.101  18.815  66.399  1.00  0.00     0.000 HD 
HETATM   20  C   UNL     1     -11.068  15.706  68.058  1.00  0.00    -0.335 A  
ENDBRANCH   9  12
ENDBRANCH   7   8
ENDBRANCH   6   7
ENDBRANCH   3   6
ENDBRANCH   2   3
TORSDOF 6
ENDMDL
MODEL       83
REMARK 921   NORMALIZED FREE ENERGY PREDICTED BY IDOCK:   -4.25 KCAL/MOL
REMARK 922        TOTAL FREE ENERGY PREDICTED BY IDOCK:   -6.22 KCAL/MOL
REMARK 923 INTER-LIGAND FREE ENERGY PREDICTED BY IDOCK:   -5.55 KCAL/MOL
REMARK 924 INTRA-LIGAND FREE ENERGY PREDICTED BY IDOCK:   -0.67 KCAL/MOL
REMARK 927      BINDING AFFINITY PREDICTED BY RF-SCORE:    0.00 PKD
ROOT
HETATM    1  C   UNL     1      -8.710   5.429  68.601  1.00  0.00    -0.097 C  
HETATM    2  C   UNL     1     -10.039   5.998  68.107  1.00  0.00    -0.160 C  
ENDROOT
BRANCH   2   3
HETATM    3  N   UNL     1     -10.601   7.070  68.947  1.00  0.00    -0.213 NA 
BRANCH   3   4
HETATM    4  C   UNL     1     -11.538   6.580  69.980  1.00  0.00    -0.390 C  
HETATM    5  C   UNL     1     -11.809   7.518  71.158  1.00  0.00    -0.324 C  
ENDBRANCH   3   4
BRANCH   3   6
HETATM    6  C   UNL     1      -9.531   7.894  69.565  1.00  0.00    -0.160 C  
BRANCH   6   7
HETATM    7  C   UNL     1      -9.336   9.301  68.972  1.00  0.00    -0.151 C  
BRANCH   7   8
HETATM    8  N   UNL     1     -10.030  10.323  69.729  1.00  0.00    -0.361 N  
HETATM    9  C   UNL     1     -11.302  10.718  69.372  1.00  0.00    -0.285 C  
HETATM   10  H   UNL     1      -9.573  10.754  70.533  1.00  0.00     0.000 HD 
HETATM   11  O   UNL     1     -11.891  10.276  68.391  1.00  0.00    -0.215 OA 
BRANCH   9  12
HETATM   12  C   UNL     1     -11.967  11.715  70.255  1.00  0.00    -0.445 A  
HETATM   13  C   UNL     1     -11.916  13.088  69.995  1.00  0.00    -0.383 A  
HETATM   14  C   UNL     1     -12.569  13.986  70.847  1.00  0.00    -0.431 A  
HETATM   15  C   UNL     1     -13.248  13.535  71.983  1.00  0.00    -0.439 A  
HETATM   16  C   UNL     1     -13.364  12.158  72.190  1.00  0.00    -0.438 A  
HETATM   17  N   UNL     1     -13.994  14.430  72.757  1.00  0.00    -0.556 NA 
HETATM   18  H2  UNL     1     -14.663  14.902  72.148  1.00  0.00     0.000 HD 
HETATM   19  H1  UNL     1     -14.490  14.101  73.585  1.00  0.00     0.000 HD 
HETATM   20  C   UNL     1     -12.715  11.253  71.345  1.00  0.00    -0.501 A  
ENDBRANCH   9  12
ENDBRANCH   7   8
ENDBRANCH   6   7
ENDBRANCH   3   6
ENDBRANCH   2   3
TORSDOF 6
ENDMDL
MODEL       84
REMARK 921   NORMALIZED FREE ENERGY PREDICTED BY IDOCK:   -4.25 KCAL/MOL
REMARK 922        TOTAL FREE ENERGY PREDICTED BY IDOCK:   -6.22 KCAL/MOL
REMARK 923 INTER-LIGAND FREE ENERGY PREDICTED BY IDOCK:   -5.81 KCAL/MOL
REMARK 924 INTRA-LIGAND FREE ENERGY PREDICTED BY IDOCK:   -0.41 KCAL/MOL
REMARK 927      BINDING AFFINITY PREDICTED BY RF-SCORE:    0.00 PKD
ROOT
HETATM    1  C   UNL     1     -10.321  16.937  69.016  1.00  0.00    -0.333 C  
HETATM    2  C   UNL     1     -11.342  16.507  67.964  1.00  0.00    -0.107 C  
ENDROOT
BRANCH   2   3
HETATM    3  N   UNL     1     -11.930  15.174  68.184  1.00  0.00    -0.222 NA 
BRANCH   3   4
HETATM    4  C   UNL     1     -11.933  14.322  66.976  1.00  0.00    -0.433 C  
HETATM    5  C   UNL     1     -10.839  13.257  66.887  1.00  0.00    -0.286 C  
ENDBRANCH   3   4
BRANCH   3   6
HETATM    6  C   UNL     1     -11.272  14.470  69.314  1.00  0.00    -0.281 C  
BRANCH   6   7
HETATM    7  C   UNL     1     -12.203  13.677  70.249  1.00  0.00    -0.353 C  
BRANCH   7   8
HETATM    8  N   UNL     1     -11.885  12.264  70.281  1.00  0.00    -0.524 N  
HETATM    9  C   UNL     1     -12.511  11.424  71.178  1.00  0.00    -0.360 C  
HETATM   10  H   UNL     1     -11.192  11.887  69.634  1.00  0.00     0.000 HD 
HETATM   11  O   UNL     1     -13.319  11.818  72.013  1.00  0.00    -0.487 OA 
BRANCH   9  12
HETATM   12  C   UNL     1     -12.182   9.976  71.083  1.00  0.00    -0.477 A  
HETATM   13  C   UNL     1     -13.013   8.989  71.622  1.00  0.00    -0.418 A  
HETATM   14  C   UNL     1     -12.667   7.638  71.498  1.00  0.00    -0.373 A  
HETATM   15  C   UNL     1     -11.479   7.256  70.869  1.00  0.00    -0.292 A  
HETATM   16  C   UNL     1     -10.696   8.241  70.261  1.00  0.00    -0.237 A  
HETATM   17  N   UNL     1     -11.206   5.902  70.646  1.00  0.00    -0.269 NA 
HETATM   18  H2  UNL     1     -11.987   5.497  70.132  1.00  0.00     0.000 HD 
HETATM   19  H1  UNL     1     -10.339   5.623  70.187  1.00  0.00     0.000 HD 
HETATM   20  C   UNL     1     -11.033   9.593  70.381  1.00  0.00    -0.356 A  
ENDBRANCH   9  12
ENDBRANCH   7   8
ENDBRANCH   6   7
ENDBRANCH   3   6
ENDBRANCH   2   3
TORSDOF 6
ENDMDL
MODEL       85
REMARK 921   NORMALIZED FREE ENERGY PREDICTED BY IDOCK:   -4.25 KCAL/MOL
REMARK 922        TOTAL FREE ENERGY PREDICTED BY IDOCK:   -6.21 KCAL/MOL
REMARK 923 INTER-LIGAND FREE ENERGY PREDICTED BY IDOCK:   -5.78 KCAL/MOL
REMARK 924 INTRA-LIGAND FREE ENERGY PREDICTED BY IDOCK:   -0.43 KCAL/MOL
REMARK 927      BINDING AFFINITY PREDICTED BY RF-SCORE:    0.00 PKD
ROOT
HETATM    1  C   UNL     1      -9.824  15.371  69.166  1.00  0.00    -0.247 C  
HETATM    2  C   UNL     1      -8.822  15.455  68.015  1.00  0.00    -0.165 C  
ENDROOT
BRANCH   2   3
HETATM    3  N   UNL     1      -8.056  14.219  67.773  1.00  0.00    -0.155 NA 
BRANCH   3   4
HETATM    4  C   UNL     1      -7.112  13.888  68.860  1.00  0.00    -0.110 C  
HETATM    5  C   UNL     1      -5.899  14.806  69.017  1.00  0.00    -0.092 C  
ENDBRANCH   3   4
BRANCH   3   6
HETATM    6  C   UNL     1      -8.953  13.069  67.496  1.00  0.00    -0.193 C  
BRANCH   6   7
HETATM    7  C   UNL     1      -8.671  11.785  68.298  1.00  0.00    -0.167 C  
BRANCH   7   8
HETATM    8  N   UNL     1      -9.775  11.416  69.160  1.00  0.00    -0.415 N  
HETATM    9  C   UNL     1      -9.870  10.137  69.668  1.00  0.00    -0.225 C  
HETATM   10  H   UNL     1     -10.488  12.107  69.393  1.00  0.00     0.000 HD 
HETATM   11  O   UNL     1      -9.075   9.245  69.392  1.00  0.00    -0.141 OA 
BRANCH   9  12
HETATM   12  C   UNL     1     -10.992   9.872  70.609  1.00  0.00    -0.405 A  
HETATM   13  C   UNL     1     -12.086  10.735  70.723  1.00  0.00    -0.473 A  
HETATM   14  C   UNL     1     -13.125  10.437  71.613  1.00  0.00    -0.553 A  
HETATM   15  C   UNL     1     -13.071   9.298  72.422  1.00  0.00    -0.406 A  
HETATM   16  C   UNL     1     -12.017   8.399  72.245  1.00  0.00    -0.455 A  
HETATM   17  N   UNL     1     -14.168   8.950  73.218  1.00  0.00    -1.237 NA 
HETATM   18  H2  UNL     1     -14.991   8.881  72.619  1.00  0.00     0.000 HD 
HETATM   19  H1  UNL     1     -14.130   8.119  73.809  1.00  0.00     0.000 HD 
HETATM   20  C   UNL     1     -10.975   8.689  71.358  1.00  0.00    -0.341 A  
ENDBRANCH   9  12
ENDBRANCH   7   8
ENDBRANCH   6   7
ENDBRANCH   3   6
ENDBRANCH   2   3
TORSDOF 6
ENDMDL
MODEL       86
REMARK 921   NORMALIZED FREE ENERGY PREDICTED BY IDOCK:   -4.24 KCAL/MOL
REMARK 922        TOTAL FREE ENERGY PREDICTED BY IDOCK:   -6.21 KCAL/MOL
REMARK 923 INTER-LIGAND FREE ENERGY PREDICTED BY IDOCK:   -5.65 KCAL/MOL
REMARK 924 INTRA-LIGAND FREE ENERGY PREDICTED BY IDOCK:   -0.56 KCAL/MOL
REMARK 927      BINDING AFFINITY PREDICTED BY RF-SCORE:    0.00 PKD
ROOT
HETATM    1  C   UNL     1     -10.240  15.467  65.405  1.00  0.00    -0.408 C  
HETATM    2  C   UNL     1     -10.602  16.938  65.604  1.00  0.00    -0.221 C  
ENDROOT
BRANCH   2   3
HETATM    3  N   UNL     1      -9.878  17.609  66.698  1.00  0.00    -0.295 NA 
BRANCH   3   4
HETATM    4  C   UNL     1      -9.245  18.881  66.293  1.00  0.00    -0.268 C  
HETATM    5  C   UNL     1      -9.641  20.126  67.088  1.00  0.00    -0.554 C  
ENDBRANCH   3   4
BRANCH   3   6
HETATM    6  C   UNL     1     -10.750  17.816  67.881  1.00  0.00    -0.319 C  
BRANCH   6   7
HETATM    7  C   UNL     1     -10.327  17.085  69.168  1.00  0.00    -0.313 C  
BRANCH   7   8
HETATM    8  N   UNL     1     -10.348  15.644  69.020  1.00  0.00    -0.213 N  
HETATM    9  C   UNL     1     -11.465  14.918  69.377  1.00  0.00    -0.299 C  
HETATM   10  H   UNL     1      -9.530  15.162  68.648  1.00  0.00     0.000 HD 
HETATM   11  O   UNL     1     -12.465  15.428  69.873  1.00  0.00    -0.325 OA 
BRANCH   9  12
HETATM   12  C   UNL     1     -11.426  13.454  69.114  1.00  0.00    -0.351 A  
HETATM   13  C   UNL     1     -10.842  12.922  67.960  1.00  0.00    -0.261 A  
HETATM   14  C   UNL     1     -10.818  11.537  67.763  1.00  0.00    -0.270 A  
HETATM   15  C   UNL     1     -11.402  10.669  68.690  1.00  0.00    -0.281 A  
HETATM   16  C   UNL     1     -11.910  11.201  69.878  1.00  0.00    -0.439 A  
HETATM   17  N   UNL     1     -11.265   9.285  68.539  1.00  0.00    -0.450 NA 
HETATM   18  H2  UNL     1     -10.271   9.065  68.474  1.00  0.00     0.000 HD 
HETATM   19  H1  UNL     1     -11.691   8.651  69.216  1.00  0.00     0.000 HD 
HETATM   20  C   UNL     1     -11.939  12.584  70.084  1.00  0.00    -0.377 A  
ENDBRANCH   9  12
ENDBRANCH   7   8
ENDBRANCH   6   7
ENDBRANCH   3   6
ENDBRANCH   2   3
TORSDOF 6
ENDMDL
MODEL       87
REMARK 921   NORMALIZED FREE ENERGY PREDICTED BY IDOCK:   -4.24 KCAL/MOL
REMARK 922        TOTAL FREE ENERGY PREDICTED BY IDOCK:   -6.21 KCAL/MOL
REMARK 923 INTER-LIGAND FREE ENERGY PREDICTED BY IDOCK:   -5.85 KCAL/MOL
REMARK 924 INTRA-LIGAND FREE ENERGY PREDICTED BY IDOCK:   -0.36 KCAL/MOL
REMARK 927      BINDING AFFINITY PREDICTED BY RF-SCORE:    0.00 PKD
ROOT
HETATM    1  C   UNL     1      -9.133   5.804  70.284  1.00  0.00    -0.160 C  
HETATM    2  C   UNL     1      -9.605   6.038  71.719  1.00  0.00    -0.151 C  
ENDROOT
BRANCH   2   3
HETATM    3  N   UNL     1     -11.048   5.835  71.934  1.00  0.00    -0.262 NA 
BRANCH   3   4
HETATM    4  C   UNL     1     -11.370   5.212  73.235  1.00  0.00    -0.290 C  
HETATM    5  C   UNL     1     -10.251   5.189  74.278  1.00  0.00    -0.291 C  
ENDBRANCH   3   4
BRANCH   3   6
HETATM    6  C   UNL     1     -11.807   7.100  71.762  1.00  0.00    -0.303 C  
BRANCH   6   7
HETATM    7  C   UNL     1     -11.226   8.336  72.472  1.00  0.00    -0.376 C  
BRANCH   7   8
HETATM    8  N   UNL     1     -11.298   9.530  71.656  1.00  0.00    -0.382 N  
HETATM    9  C   UNL     1     -12.434  10.312  71.656  1.00  0.00    -0.392 C  
HETATM   10  H   UNL     1     -10.502   9.795  71.076  1.00  0.00     0.000 HD 
HETATM   11  O   UNL     1     -13.443  10.028  72.294  1.00  0.00    -0.417 OA 
BRANCH   9  12
HETATM   12  C   UNL     1     -12.388  11.562  70.850  1.00  0.00    -0.460 A  
HETATM   13  C   UNL     1     -12.730  12.807  71.389  1.00  0.00    -0.353 A  
HETATM   14  C   UNL     1     -12.659  13.957  70.595  1.00  0.00    -0.405 A  
HETATM   15  C   UNL     1     -12.281  13.880  69.252  1.00  0.00    -0.277 A  
HETATM   16  C   UNL     1     -11.862  12.648  68.743  1.00  0.00    -0.341 A  
HETATM   17  N   UNL     1     -12.099  15.049  68.505  1.00  0.00    -0.584 NA 
HETATM   18  H2  UNL     1     -11.429  15.643  68.995  1.00  0.00     0.000 HD 
HETATM   19  H1  UNL     1     -11.823  14.994  67.525  1.00  0.00     0.000 HD 
HETATM   20  C   UNL     1     -11.930  11.493  69.529  1.00  0.00    -0.402 A  
ENDBRANCH   9  12
ENDBRANCH   7   8
ENDBRANCH   6   7
ENDBRANCH   3   6
ENDBRANCH   2   3
TORSDOF 6
ENDMDL
MODEL       88
REMARK 921   NORMALIZED FREE ENERGY PREDICTED BY IDOCK:   -4.23 KCAL/MOL
REMARK 922        TOTAL FREE ENERGY PREDICTED BY IDOCK:   -6.19 KCAL/MOL
REMARK 923 INTER-LIGAND FREE ENERGY PREDICTED BY IDOCK:   -5.84 KCAL/MOL
REMARK 924 INTRA-LIGAND FREE ENERGY PREDICTED BY IDOCK:   -0.35 KCAL/MOL
REMARK 927      BINDING AFFINITY PREDICTED BY RF-SCORE:    0.00 PKD
ROOT
HETATM    1  C   UNL     1     -10.005  19.621  68.820  1.00  0.00    -0.542 C  
HETATM    2  C   UNL     1     -10.516  18.900  67.574  1.00  0.00    -0.450 C  
ENDROOT
BRANCH   2   3
HETATM    3  N   UNL     1      -9.527  18.764  66.491  1.00  0.00    -0.329 NA 
BRANCH   3   4
HETATM    4  C   UNL     1      -8.216  19.367  66.809  1.00  0.00    -0.292 C  
HETATM    5  C   UNL     1      -7.500  20.091  65.668  1.00  0.00    -0.275 C  
ENDBRANCH   3   4
BRANCH   3   6
HETATM    6  C   UNL     1      -9.361  17.346  66.082  1.00  0.00    -0.149 C  
BRANCH   6   7
HETATM    7  C   UNL     1     -10.511  16.396  66.460  1.00  0.00    -0.282 C  
BRANCH   7   8
HETATM    8  N   UNL     1     -10.207  15.011  66.165  1.00  0.00    -0.281 N  
HETATM    9  C   UNL     1     -10.854  14.353  65.140  1.00  0.00    -0.386 C  
HETATM   10  H   UNL     1      -9.508  14.518  66.721  1.00  0.00     0.000 HD 
HETATM   11  O   UNL     1     -11.737  14.871  64.463  1.00  0.00    -0.412 OA 
BRANCH   9  12
HETATM   12  C   UNL     1     -10.418  12.959  64.857  1.00  0.00    -0.351 A  
HETATM   13  C   UNL     1     -10.414  12.430  63.563  1.00  0.00    -0.430 A  
HETATM   14  C   UNL     1      -9.984  11.116  63.344  1.00  0.00    -0.430 A  
HETATM   15  C   UNL     1      -9.587  10.304  64.410  1.00  0.00    -0.316 A  
HETATM   16  C   UNL     1      -9.516  10.864  65.688  1.00  0.00    -0.252 A  
HETATM   17  N   UNL     1      -9.048   9.037  64.165  1.00  0.00    -0.397 NA 
HETATM   18  H2  UNL     1      -8.258   9.141  63.528  1.00  0.00     0.000 HD 
HETATM   19  H1  UNL     1      -8.757   8.443  64.943  1.00  0.00     0.000 HD 
HETATM   20  C   UNL     1      -9.944  12.176  65.917  1.00  0.00    -0.267 A  
ENDBRANCH   9  12
ENDBRANCH   7   8
ENDBRANCH   6   7
ENDBRANCH   3   6
ENDBRANCH   2   3
TORSDOF 6
ENDMDL
MODEL       89
REMARK 921   NORMALIZED FREE ENERGY PREDICTED BY IDOCK:   -4.23 KCAL/MOL
REMARK 922        TOTAL FREE ENERGY PREDICTED BY IDOCK:   -6.19 KCAL/MOL
REMARK 923 INTER-LIGAND FREE ENERGY PREDICTED BY IDOCK:   -5.68 KCAL/MOL
REMARK 924 INTRA-LIGAND FREE ENERGY PREDICTED BY IDOCK:   -0.51 KCAL/MOL
REMARK 927      BINDING AFFINITY PREDICTED BY RF-SCORE:    0.00 PKD
ROOT
HETATM    1  C   UNL     1      -9.701  20.111  66.866  1.00  0.00    -0.582 C  
HETATM    2  C   UNL     1      -8.466  19.663  66.086  1.00  0.00    -0.334 C  
ENDROOT
BRANCH   2   3
HETATM    3  N   UNL     1      -7.250  19.495  66.900  1.00  0.00    -0.211 NA 
BRANCH   3   4
HETATM    4  C   UNL     1      -7.324  20.160  68.218  1.00  0.00    -0.219 C  
HETATM    5  C   UNL     1      -6.821  19.358  69.419  1.00  0.00    -0.342 C  
ENDBRANCH   3   4
BRANCH   3   6
HETATM    6  C   UNL     1      -6.898  18.061  67.062  1.00  0.00    -0.188 C  
BRANCH   6   7
HETATM    7  C   UNL     1      -7.402  17.114  65.958  1.00  0.00    -0.135 C  
BRANCH   7   8
HETATM    8  N   UNL     1      -8.152  15.993  66.487  1.00  0.00    -0.280 N  
HETATM    9  C   UNL     1      -9.476  15.812  66.147  1.00  0.00    -0.340 C  
HETATM   10  H   UNL     1      -7.696  15.333  67.117  1.00  0.00     0.000 HD 
HETATM   11  O   UNL     1     -10.098  16.592  65.433  1.00  0.00    -0.578 OA 
BRANCH   9  12
HETATM   12  C   UNL     1     -10.142  14.590  66.673  1.00  0.00    -0.275 A  
HETATM   13  C   UNL     1     -10.403  14.414  68.036  1.00  0.00    -0.227 A  
HETATM   14  C   UNL     1     -11.044  13.253  68.482  1.00  0.00    -0.294 A  
HETATM   15  C   UNL     1     -11.401  12.240  67.587  1.00  0.00    -0.311 A  
HETATM   16  C   UNL     1     -11.212  12.458  66.220  1.00  0.00    -0.361 A  
HETATM   17  N   UNL     1     -12.146  11.142  68.030  1.00  0.00    -0.711 NA 
HETATM   18  H2  UNL     1     -12.993  11.488  68.479  1.00  0.00     0.000 HD 
HETATM   19  H1  UNL     1     -12.407  10.403  67.377  1.00  0.00     0.000 HD 
HETATM   20  C   UNL     1     -10.572  13.615  65.764  1.00  0.00    -0.285 A  
ENDBRANCH   9  12
ENDBRANCH   7   8
ENDBRANCH   6   7
ENDBRANCH   3   6
ENDBRANCH   2   3
TORSDOF 6
ENDMDL
MODEL       90
REMARK 921   NORMALIZED FREE ENERGY PREDICTED BY IDOCK:   -4.18 KCAL/MOL
REMARK 922        TOTAL FREE ENERGY PREDICTED BY IDOCK:   -6.13 KCAL/MOL
REMARK 923 INTER-LIGAND FREE ENERGY PREDICTED BY IDOCK:   -5.77 KCAL/MOL
REMARK 924 INTRA-LIGAND FREE ENERGY PREDICTED BY IDOCK:   -0.35 KCAL/MOL
REMARK 927      BINDING AFFINITY PREDICTED BY RF-SCORE:    0.00 PKD
ROOT
HETATM    1  C   UNL     1     -11.523   6.269  70.850  1.00  0.00    -0.377 C  
HETATM    2  C   UNL     1     -12.194   7.408  71.616  1.00  0.00    -0.330 C  
ENDROOT
BRANCH   2   3
HETATM    3  N   UNL     1     -11.266   8.412  72.166  1.00  0.00    -0.335 NA 
BRANCH   3   4
HETATM    4  C   UNL     1      -9.941   7.860  72.519  1.00  0.00    -0.249 C  
HETATM    5  C   UNL     1      -8.732   8.484  71.820  1.00  0.00    -0.266 C  
ENDBRANCH   3   4
BRANCH   3   6
HETATM    6  C   UNL     1     -11.119   9.573  71.253  1.00  0.00    -0.379 C  
BRANCH   6   7
HETATM    7  C   UNL     1     -12.428  10.178  70.715  1.00  0.00    -0.326 C  
BRANCH   7   8
HETATM    8  N   UNL     1     -12.242  10.874  69.458  1.00  0.00    -0.454 N  
HETATM    9  C   UNL     1     -11.859  12.198  69.439  1.00  0.00    -0.309 C  
HETATM   10  H   UNL     1     -12.397  10.380  68.579  1.00  0.00     0.000 HD 
HETATM   11  O   UNL     1     -11.701  12.865  70.457  1.00  0.00    -0.165 OA 
BRANCH   9  12
HETATM   12  C   UNL     1     -11.614  12.807  68.103  1.00  0.00    -0.380 A  
HETATM   13  C   UNL     1     -11.036  12.086  67.053  1.00  0.00    -0.351 A  
HETATM   14  C   UNL     1     -10.837  12.697  65.810  1.00  0.00    -0.304 A  
HETATM   15  C   UNL     1     -11.176  14.038  65.607  1.00  0.00    -0.310 A  
HETATM   16  C   UNL     1     -11.826  14.727  66.633  1.00  0.00    -0.255 A  
HETATM   17  N   UNL     1     -11.082  14.600  64.329  1.00  0.00    -0.605 NA 
HETATM   18  H2  UNL     1     -11.629  14.029  63.686  1.00  0.00     0.000 HD 
HETATM   19  H1  UNL     1     -11.330  15.579  64.180  1.00  0.00     0.000 HD 
HETATM   20  C   UNL     1     -12.030  14.125  67.879  1.00  0.00    -0.378 A  
ENDBRANCH   9  12
ENDBRANCH   7   8
ENDBRANCH   6   7
ENDBRANCH   3   6
ENDBRANCH   2   3
TORSDOF 6
ENDMDL
MODEL       91
REMARK 921   NORMALIZED FREE ENERGY PREDICTED BY IDOCK:   -4.18 KCAL/MOL
REMARK 922        TOTAL FREE ENERGY PREDICTED BY IDOCK:   -6.13 KCAL/MOL
REMARK 923 INTER-LIGAND FREE ENERGY PREDICTED BY IDOCK:   -5.77 KCAL/MOL
REMARK 924 INTRA-LIGAND FREE ENERGY PREDICTED BY IDOCK:   -0.36 KCAL/MOL
REMARK 927      BINDING AFFINITY PREDICTED BY RF-SCORE:    0.00 PKD
ROOT
HETATM    1  C   UNL     1      -8.447   7.050  70.299  1.00  0.00    -0.138 C  
HETATM    2  C   UNL     1      -7.448   7.381  69.191  1.00  0.00    -0.099 C  
ENDROOT
BRANCH   2   3
HETATM    3  N   UNL     1      -8.013   8.130  68.055  1.00  0.00    -0.125 NA 
BRANCH   3   4
HETATM    4  C   UNL     1      -9.086   7.405  67.343  1.00  0.00    -0.122 C  
HETATM    5  C   UNL     1      -8.831   7.075  65.872  1.00  0.00    -0.126 C  
ENDBRANCH   3   4
BRANCH   3   6
HETATM    6  C   UNL     1      -8.484   9.475  68.472  1.00  0.00    -0.119 C  
BRANCH   6   7
HETATM    7  C   UNL     1      -9.970   9.781  68.208  1.00  0.00    -0.153 C  
BRANCH   7   8
HETATM    8  N   UNL     1     -10.154  10.885  67.288  1.00  0.00    -0.185 N  
HETATM    9  C   UNL     1     -11.320  11.621  67.300  1.00  0.00    -0.305 C  
HETATM   10  H   UNL     1      -9.414  11.119  66.626  1.00  0.00     0.000 HD 
HETATM   11  O   UNL     1     -12.267  11.365  68.037  1.00  0.00    -0.607 OA 
BRANCH   9  12
HETATM   12  C   UNL     1     -11.388  12.785  66.376  1.00  0.00    -0.369 A  
HETATM   13  C   UNL     1     -12.156  12.763  65.208  1.00  0.00    -0.505 A  
HETATM   14  C   UNL     1     -12.199  13.888  64.376  1.00  0.00    -0.449 A  
HETATM   15  C   UNL     1     -11.454  15.032  64.676  1.00  0.00    -0.381 A  
HETATM   16  C   UNL     1     -10.754  15.077  65.884  1.00  0.00    -0.337 A  
HETATM   17  N   UNL     1     -11.599  16.188  63.902  1.00  0.00    -1.469 NA 
HETATM   18  H2  UNL     1     -12.587  16.442  63.886  1.00  0.00     0.000 HD 
HETATM   19  H1  UNL     1     -11.056  17.023  64.120  1.00  0.00     0.000 HD 
HETATM   20  C   UNL     1     -10.705  13.958  66.722  1.00  0.00    -0.281 A  
ENDBRANCH   9  12
ENDBRANCH   7   8
ENDBRANCH   6   7
ENDBRANCH   3   6
ENDBRANCH   2   3
TORSDOF 6
ENDMDL
MODEL       92
REMARK 921   NORMALIZED FREE ENERGY PREDICTED BY IDOCK:   -4.15 KCAL/MOL
REMARK 922        TOTAL FREE ENERGY PREDICTED BY IDOCK:   -6.09 KCAL/MOL
REMARK 923 INTER-LIGAND FREE ENERGY PREDICTED BY IDOCK:   -5.59 KCAL/MOL
REMARK 924 INTRA-LIGAND FREE ENERGY PREDICTED BY IDOCK:   -0.50 KCAL/MOL
REMARK 927      BINDING AFFINITY PREDICTED BY RF-SCORE:    0.00 PKD
ROOT
HETATM    1  C   UNL     1      -9.144  10.627  62.367  1.00  0.00    -0.322 C  
HETATM    2  C   UNL     1      -9.477  10.192  63.794  1.00  0.00    -0.275 C  
ENDROOT
BRANCH   2   3
HETATM    3  N   UNL     1     -10.189  11.203  64.596  1.00  0.00    -0.293 NA 
BRANCH   3   4
HETATM    4  C   UNL     1      -9.562  11.464  65.908  1.00  0.00    -0.227 C  
HETATM    5  C   UNL     1     -10.377  11.084  67.145  1.00  0.00    -0.259 C  
ENDBRANCH   3   4
BRANCH   3   6
HETATM    6  C   UNL     1     -10.363  12.471  63.843  1.00  0.00    -0.409 C  
BRANCH   6   7
HETATM    7  C   UNL     1     -11.443  13.430  64.376  1.00  0.00    -0.384 C  
BRANCH   7   8
HETATM    8  N   UNL     1     -10.878  14.598  65.020  1.00  0.00    -0.390 N  
HETATM    9  C   UNL     1     -11.157  14.874  66.342  1.00  0.00    -0.342 C  
HETATM   10  H   UNL     1     -10.269  15.222  64.491  1.00  0.00     0.000 HD 
HETATM   11  O   UNL     1     -11.918  14.193  67.023  1.00  0.00    -0.408 OA 
BRANCH   9  12
HETATM   12  C   UNL     1     -10.469  16.049  66.942  1.00  0.00    -0.306 A  
HETATM   13  C   UNL     1     -10.880  16.611  68.155  1.00  0.00    -0.348 A  
HETATM   14  C   UNL     1     -10.193  17.709  68.686  1.00  0.00    -0.377 A  
HETATM   15  C   UNL     1      -9.115  18.280  68.004  1.00  0.00    -0.290 A  
HETATM   16  C   UNL     1      -8.659  17.664  66.836  1.00  0.00    -0.260 A  
HETATM   17  N   UNL     1      -8.366  19.298  68.603  1.00  0.00    -0.368 NA 
HETATM   18  H2  UNL     1      -8.033  18.964  69.507  1.00  0.00     0.000 HD 
HETATM   19  H1  UNL     1      -7.578  19.716  68.105  1.00  0.00     0.000 HD 
HETATM   20  C   UNL     1      -9.339  16.567  66.297  1.00  0.00    -0.334 A  
ENDBRANCH   9  12
ENDBRANCH   7   8
ENDBRANCH   6   7
ENDBRANCH   3   6
ENDBRANCH   2   3
TORSDOF 6
ENDMDL
MODEL       93
REMARK 921   NORMALIZED FREE ENERGY PREDICTED BY IDOCK:   -4.15 KCAL/MOL
REMARK 922        TOTAL FREE ENERGY PREDICTED BY IDOCK:   -6.08 KCAL/MOL
REMARK 923 INTER-LIGAND FREE ENERGY PREDICTED BY IDOCK:   -5.62 KCAL/MOL
REMARK 924 INTRA-LIGAND FREE ENERGY PREDICTED BY IDOCK:   -0.46 KCAL/MOL
REMARK 927      BINDING AFFINITY PREDICTED BY RF-SCORE:    0.00 PKD
ROOT
HETATM    1  C   UNL     1      -9.094   8.378  72.734  1.00  0.00    -0.299 C  
HETATM    2  C   UNL     1     -10.396   7.678  73.121  1.00  0.00    -0.352 C  
ENDROOT
BRANCH   2   3
HETATM    3  N   UNL     1     -11.425   7.663  72.066  1.00  0.00    -0.270 NA 
BRANCH   3   4
HETATM    4  C   UNL     1     -12.065   6.344  71.884  1.00  0.00    -0.310 C  
HETATM    5  C   UNL     1     -11.590   5.219  72.805  1.00  0.00    -0.270 C  
ENDBRANCH   3   4
BRANCH   3   6
HETATM    6  C   UNL     1     -12.451   8.712  72.293  1.00  0.00    -0.395 C  
BRANCH   6   7
HETATM    7  C   UNL     1     -12.308   9.990  71.447  1.00  0.00    -0.415 C  
BRANCH   7   8
HETATM    8  N   UNL     1     -11.755   9.728  70.134  1.00  0.00    -0.417 N  
HETATM    9  C   UNL     1     -11.759  10.707  69.163  1.00  0.00    -0.253 C  
HETATM   10  H   UNL     1     -11.360   8.811  69.927  1.00  0.00     0.000 HD 
HETATM   11  O   UNL     1     -12.259  11.815  69.330  1.00  0.00    -0.256 OA 
BRANCH   9  12
HETATM   12  C   UNL     1     -11.098  10.374  67.872  1.00  0.00    -0.363 A  
HETATM   13  C   UNL     1     -10.530   9.119  67.631  1.00  0.00    -0.323 A  
HETATM   14  C   UNL     1      -9.930   8.847  66.396  1.00  0.00    -0.354 A  
HETATM   15  C   UNL     1      -9.856   9.828  65.403  1.00  0.00    -0.295 A  
HETATM   16  C   UNL     1     -10.497  11.051  65.620  1.00  0.00    -0.293 A  
HETATM   17  N   UNL     1      -9.362   9.507  64.134  1.00  0.00    -0.418 NA 
HETATM   18  H2  UNL     1      -9.898   8.719  63.770  1.00  0.00     0.000 HD 
HETATM   19  H1  UNL     1      -9.308  10.222  63.408  1.00  0.00     0.000 HD 
HETATM   20  C   UNL     1     -11.099  11.331  66.851  1.00  0.00    -0.339 A  
ENDBRANCH   9  12
ENDBRANCH   7   8
ENDBRANCH   6   7
ENDBRANCH   3   6
ENDBRANCH   2   3
TORSDOF 6
ENDMDL
MODEL       94
REMARK 921   NORMALIZED FREE ENERGY PREDICTED BY IDOCK:   -4.14 KCAL/MOL
REMARK 922        TOTAL FREE ENERGY PREDICTED BY IDOCK:   -6.07 KCAL/MOL
REMARK 923 INTER-LIGAND FREE ENERGY PREDICTED BY IDOCK:   -5.47 KCAL/MOL
REMARK 924 INTRA-LIGAND FREE ENERGY PREDICTED BY IDOCK:   -0.60 KCAL/MOL
REMARK 927      BINDING AFFINITY PREDICTED BY RF-SCORE:    0.00 PKD
ROOT
HETATM    1  C   UNL     1      -8.845   5.011  72.005  1.00  0.00    -0.139 C  
HETATM    2  C   UNL     1      -8.402   6.473  71.992  1.00  0.00    -0.107 C  
ENDROOT
BRANCH   2   3
HETATM    3  N   UNL     1      -9.139   7.333  71.049  1.00  0.00    -0.153 NA 
BRANCH   3   4
HETATM    4  C   UNL     1      -8.262   8.113  70.152  1.00  0.00    -0.119 C  
HETATM    5  C   UNL     1      -8.238   9.627  70.365  1.00  0.00    -0.194 C  
ENDBRANCH   3   4
BRANCH   3   6
HETATM    6  C   UNL     1     -10.126   6.552  70.261  1.00  0.00    -0.179 C  
BRANCH   6   7
HETATM    7  C   UNL     1     -11.600   6.967  70.425  1.00  0.00    -0.335 C  
BRANCH   7   8
HETATM    8  N   UNL     1     -11.797   8.392  70.263  1.00  0.00    -0.461 N  
HETATM    9  C   UNL     1     -12.230   9.165  71.320  1.00  0.00    -0.327 C  
HETATM   10  H   UNL     1     -11.613   8.828  69.359  1.00  0.00     0.000 HD 
HETATM   11  O   UNL     1     -12.513   8.700  72.419  1.00  0.00    -0.382 OA 
BRANCH   9  12
HETATM   12  C   UNL     1     -12.326  10.631  71.083  1.00  0.00    -0.505 A  
HETATM   13  C   UNL     1     -11.694  11.252  70.001  1.00  0.00    -0.428 A  
HETATM   14  C   UNL     1     -11.824  12.633  69.813  1.00  0.00    -0.379 A  
HETATM   15  C   UNL     1     -12.552  13.415  70.713  1.00  0.00    -0.294 A  
HETATM   16  C   UNL     1     -13.247  12.778  71.744  1.00  0.00    -0.471 A  
HETATM   17  N   UNL     1     -12.772  14.771  70.447  1.00  0.00    -0.488 NA 
HETATM   18  H2  UNL     1     -13.205  14.852  69.527  1.00  0.00     0.000 HD 
HETATM   19  H1  UNL     1     -13.304  15.343  71.104  1.00  0.00     0.000 HD 
HETATM   20  C   UNL     1     -13.124  11.399  71.941  1.00  0.00    -0.505 A  
ENDBRANCH   9  12
ENDBRANCH   7   8
ENDBRANCH   6   7
ENDBRANCH   3   6
ENDBRANCH   2   3
TORSDOF 6
ENDMDL
MODEL       95
REMARK 921   NORMALIZED FREE ENERGY PREDICTED BY IDOCK:   -4.13 KCAL/MOL
REMARK 922        TOTAL FREE ENERGY PREDICTED BY IDOCK:   -6.06 KCAL/MOL
REMARK 923 INTER-LIGAND FREE ENERGY PREDICTED BY IDOCK:   -5.90 KCAL/MOL
REMARK 924 INTRA-LIGAND FREE ENERGY PREDICTED BY IDOCK:   -0.16 KCAL/MOL
REMARK 927      BINDING AFFINITY PREDICTED BY RF-SCORE:    0.00 PKD
ROOT
HETATM    1  C   UNL     1     -10.418   6.157  72.358  1.00  0.00    -0.228 C  
HETATM    2  C   UNL     1     -10.760   6.577  70.929  1.00  0.00    -0.242 C  
ENDROOT
BRANCH   2   3
HETATM    3  N   UNL     1     -11.893   7.512  70.816  1.00  0.00    -0.265 NA 
BRANCH   3   4
HETATM    4  C   UNL     1     -12.893   7.362  71.893  1.00  0.00    -0.272 C  
HETATM    5  C   UNL     1     -14.349   7.196  71.458  1.00  0.00    -0.503 C  
ENDBRANCH   3   4
BRANCH   3   6
HETATM    6  C   UNL     1     -11.429   8.920  70.731  1.00  0.00    -0.275 C  
BRANCH   6   7
HETATM    7  C   UNL     1     -12.470   9.996  71.088  1.00  0.00    -0.379 C  
BRANCH   7   8
HETATM    8  N   UNL     1     -12.113  11.305  70.581  1.00  0.00    -0.377 N  
HETATM    9  C   UNL     1     -12.627  12.446  71.159  1.00  0.00    -0.251 C  
HETATM   10  H   UNL     1     -11.476  11.382  69.788  1.00  0.00     0.000 HD 
HETATM   11  O   UNL     1     -13.434  12.424  72.083  1.00  0.00    -0.525 OA 
BRANCH   9  12
HETATM   12  C   UNL     1     -12.141  13.747  70.623  1.00  0.00    -0.405 A  
HETATM   13  C   UNL     1     -11.960  13.965  69.254  1.00  0.00    -0.402 A  
HETATM   14  C   UNL     1     -11.513  15.210  68.796  1.00  0.00    -0.335 A  
HETATM   15  C   UNL     1     -11.209  16.238  69.693  1.00  0.00    -0.311 A  
HETATM   16  C   UNL     1     -11.471  16.041  71.052  1.00  0.00    -0.460 A  
HETATM   17  N   UNL     1     -10.880  17.511  69.217  1.00  0.00    -0.252 NA 
HETATM   18  H2  UNL     1     -11.630  17.830  68.604  1.00  0.00     0.000 HD 
HETATM   19  H1  UNL     1     -10.658  18.262  69.871  1.00  0.00     0.000 HD 
HETATM   20  C   UNL     1     -11.917  14.800  71.519  1.00  0.00    -0.415 A  
ENDBRANCH   9  12
ENDBRANCH   7   8
ENDBRANCH   6   7
ENDBRANCH   3   6
ENDBRANCH   2   3
TORSDOF 6
ENDMDL
MODEL       96
REMARK 921   NORMALIZED FREE ENERGY PREDICTED BY IDOCK:   -4.13 KCAL/MOL
REMARK 922        TOTAL FREE ENERGY PREDICTED BY IDOCK:   -6.05 KCAL/MOL
REMARK 923 INTER-LIGAND FREE ENERGY PREDICTED BY IDOCK:   -5.75 KCAL/MOL
REMARK 924 INTRA-LIGAND FREE ENERGY PREDICTED BY IDOCK:   -0.31 KCAL/MOL
REMARK 927      BINDING AFFINITY PREDICTED BY RF-SCORE:    0.00 PKD
ROOT
HETATM    1  C   UNL     1     -10.547  19.432  65.956  1.00  0.00    -0.573 C  
HETATM    2  C   UNL     1     -10.350  18.072  66.624  1.00  0.00    -0.371 C  
ENDROOT
BRANCH   2   3
HETATM    3  N   UNL     1      -9.820  17.020  65.737  1.00  0.00    -0.559 NA 
BRANCH   3   4
HETATM    4  C   UNL     1      -8.575  16.399  66.235  1.00  0.00    -0.340 C  
HETATM    5  C   UNL     1      -7.427  17.348  66.579  1.00  0.00    -0.315 C  
ENDBRANCH   3   4
BRANCH   3   6
HETATM    6  C   UNL     1     -10.843  15.981  65.457  1.00  0.00    -0.292 C  
BRANCH   6   7
HETATM    7  C   UNL     1     -10.304  14.583  65.102  1.00  0.00    -0.411 C  
BRANCH   7   8
HETATM    8  N   UNL     1     -10.620  13.593  66.111  1.00  0.00    -0.287 N  
HETATM    9  C   UNL     1     -10.352  12.258  65.893  1.00  0.00    -0.252 C  
HETATM   10  H   UNL     1     -11.044  13.887  66.991  1.00  0.00     0.000 HD 
HETATM   11  O   UNL     1      -9.886  11.831  64.841  1.00  0.00    -0.249 OA 
BRANCH   9  12
HETATM   12  C   UNL     1     -10.634  11.325  67.017  1.00  0.00    -0.287 A  
HETATM   13  C   UNL     1     -11.408  11.703  68.119  1.00  0.00    -0.358 A  
HETATM   14  C   UNL     1     -11.658  10.785  69.146  1.00  0.00    -0.376 A  
HETATM   15  C   UNL     1     -11.115   9.498  69.107  1.00  0.00    -0.053 A  
HETATM   16  C   UNL     1     -10.413   9.102  67.967  1.00  0.00    -0.276 A  
HETATM   17  N   UNL     1     -11.471   8.556  70.079  1.00  0.00    -0.459 NA 
HETATM   18  H2  UNL     1     -12.487   8.476  70.093  1.00  0.00     0.000 HD 
HETATM   19  H1  UNL     1     -11.075   7.616  70.051  1.00  0.00     0.000 HD 
HETATM   20  C   UNL     1     -10.158  10.011  66.935  1.00  0.00    -0.287 A  
ENDBRANCH   9  12
ENDBRANCH   7   8
ENDBRANCH   6   7
ENDBRANCH   3   6
ENDBRANCH   2   3
TORSDOF 6
ENDMDL
MODEL       97
REMARK 921   NORMALIZED FREE ENERGY PREDICTED BY IDOCK:   -4.11 KCAL/MOL
REMARK 922        TOTAL FREE ENERGY PREDICTED BY IDOCK:   -6.03 KCAL/MOL
REMARK 923 INTER-LIGAND FREE ENERGY PREDICTED BY IDOCK:   -5.73 KCAL/MOL
REMARK 924 INTRA-LIGAND FREE ENERGY PREDICTED BY IDOCK:   -0.30 KCAL/MOL
REMARK 927      BINDING AFFINITY PREDICTED BY RF-SCORE:    0.00 PKD
ROOT
HETATM    1  C   UNL     1     -11.545   8.475  71.994  1.00  0.00    -0.432 C  
HETATM    2  C   UNL     1     -12.916   9.060  71.659  1.00  0.00    -0.361 C  
ENDROOT
BRANCH   2   3
HETATM    3  N   UNL     1     -12.880  10.387  71.020  1.00  0.00    -0.377 NA 
BRANCH   3   4
HETATM    4  C   UNL     1     -13.243  11.492  71.931  1.00  0.00    -0.374 C  
HETATM    5  C   UNL     1     -12.899  12.906  71.464  1.00  0.00    -0.380 C  
ENDBRANCH   3   4
BRANCH   3   6
HETATM    6  C   UNL     1     -11.563  10.649  70.385  1.00  0.00    -0.351 C  
BRANCH   6   7
HETATM    7  C   UNL     1     -11.579  10.854  68.859  1.00  0.00    -0.309 C  
BRANCH   7   8
HETATM    8  N   UNL     1     -11.349  12.234  68.483  1.00  0.00    -0.261 N  
HETATM    9  C   UNL     1     -10.922  12.552  67.211  1.00  0.00    -0.261 C  
HETATM   10  H   UNL     1     -11.504  12.976  69.165  1.00  0.00     0.000 HD 
HETATM   11  O   UNL     1     -10.671  11.707  66.357  1.00  0.00    -0.251 OA 
BRANCH   9  12
HETATM   12  C   UNL     1     -10.791  13.999  66.889  1.00  0.00    -0.290 A  
HETATM   13  C   UNL     1     -11.074  14.996  67.828  1.00  0.00    -0.312 A  
HETATM   14  C   UNL     1     -10.924  16.345  67.483  1.00  0.00    -0.184 A  
HETATM   15  C   UNL     1     -10.525  16.717  66.196  1.00  0.00    -0.285 A  
HETATM   16  C   UNL     1     -10.165  15.716  65.291  1.00  0.00    -0.358 A  
HETATM   17  N   UNL     1     -10.264  18.060  65.903  1.00  0.00    -0.588 NA 
HETATM   18  H2  UNL     1      -9.571  18.405  66.567  1.00  0.00     0.000 HD 
HETATM   19  H1  UNL     1      -9.972  18.332  64.963  1.00  0.00     0.000 HD 
HETATM   20  C   UNL     1     -10.312  14.365  65.626  1.00  0.00    -0.360 A  
ENDBRANCH   9  12
ENDBRANCH   7   8
ENDBRANCH   6   7
ENDBRANCH   3   6
ENDBRANCH   2   3
TORSDOF 6
ENDMDL
MODEL       98
REMARK 921   NORMALIZED FREE ENERGY PREDICTED BY IDOCK:   -4.11 KCAL/MOL
REMARK 922        TOTAL FREE ENERGY PREDICTED BY IDOCK:   -6.03 KCAL/MOL
REMARK 923 INTER-LIGAND FREE ENERGY PREDICTED BY IDOCK:   -5.73 KCAL/MOL
REMARK 924 INTRA-LIGAND FREE ENERGY PREDICTED BY IDOCK:   -0.30 KCAL/MOL
REMARK 927      BINDING AFFINITY PREDICTED BY RF-SCORE:    0.00 PKD
ROOT
HETATM    1  C   UNL     1      -8.420   6.693  65.525  1.00  0.00    -0.135 C  
HETATM    2  C   UNL     1      -9.363   7.395  66.501  1.00  0.00    -0.173 C  
ENDROOT
BRANCH   2   3
HETATM    3  N   UNL     1      -9.216   8.860  66.554  1.00  0.00    -0.169 NA 
BRANCH   3   4
HETATM    4  C   UNL     1      -8.724   9.451  65.292  1.00  0.00    -0.175 C  
HETATM    5  C   UNL     1      -9.702  10.342  64.525  1.00  0.00    -0.395 C  
ENDBRANCH   3   4
BRANCH   3   6
HETATM    6  C   UNL     1     -10.478   9.518  66.977  1.00  0.00    -0.232 C  
BRANCH   6   7
HETATM    7  C   UNL     1     -10.857   9.361  68.461  1.00  0.00    -0.105 C  
BRANCH   7   8
HETATM    8  N   UNL     1     -11.537  10.526  68.987  1.00  0.00    -0.439 N  
HETATM    9  C   UNL     1     -11.678  10.702  70.347  1.00  0.00    -0.353 C  
HETATM   10  H   UNL     1     -11.915  11.223  68.345  1.00  0.00     0.000 HD 
HETATM   11  O   UNL     1     -11.288   9.882  71.173  1.00  0.00    -0.357 OA 
BRANCH   9  12
HETATM   12  C   UNL     1     -12.319  11.967  70.798  1.00  0.00    -0.403 A  
HETATM   13  C   UNL     1     -13.175  12.014  71.902  1.00  0.00    -0.469 A  
HETATM   14  C   UNL     1     -13.744  13.230  72.296  1.00  0.00    -0.686 A  
HETATM   15  C   UNL     1     -13.498  14.404  71.579  1.00  0.00    -0.368 A  
HETATM   16  C   UNL     1     -12.578  14.366  70.528  1.00  0.00    -0.417 A  
HETATM   17  N   UNL     1     -13.976  15.630  72.053  1.00  0.00    -0.470 NA 
HETATM   18  H2  UNL     1     -13.639  15.760  73.007  1.00  0.00     0.000 HD 
HETATM   19  H1  UNL     1     -13.796  16.488  71.530  1.00  0.00     0.000 HD 
HETATM   20  C   UNL     1     -12.004  13.155  70.126  1.00  0.00    -0.381 A  
ENDBRANCH   9  12
ENDBRANCH   7   8
ENDBRANCH   6   7
ENDBRANCH   3   6
ENDBRANCH   2   3
TORSDOF 6
ENDMDL
MODEL       99
REMARK 921   NORMALIZED FREE ENERGY PREDICTED BY IDOCK:   -4.10 KCAL/MOL
REMARK 922        TOTAL FREE ENERGY PREDICTED BY IDOCK:   -6.02 KCAL/MOL
REMARK 923 INTER-LIGAND FREE ENERGY PREDICTED BY IDOCK:   -5.68 KCAL/MOL
REMARK 924 INTRA-LIGAND FREE ENERGY PREDICTED BY IDOCK:   -0.34 KCAL/MOL
REMARK 927      BINDING AFFINITY PREDICTED BY RF-SCORE:    0.00 PKD
ROOT
HETATM    1  C   UNL     1     -10.184  19.025  68.434  1.00  0.00    -0.450 C  
HETATM    2  C   UNL     1     -10.725  18.579  67.076  1.00  0.00    -0.317 C  
ENDROOT
BRANCH   2   3
HETATM    3  N   UNL     1      -9.695  18.166  66.107  1.00  0.00    -0.500 NA 
BRANCH   3   4
HETATM    4  C   UNL     1      -8.319  18.509  66.526  1.00  0.00    -0.281 C  
HETATM    5  C   UNL     1      -7.216  17.532  66.118  1.00  0.00    -0.343 C  
ENDBRANCH   3   4
BRANCH   3   6
HETATM    6  C   UNL     1      -9.795  16.719  65.791  1.00  0.00    -0.180 C  
BRANCH   6   7
HETATM    7  C   UNL     1     -10.624  15.870  66.772  1.00  0.00    -0.309 C  
BRANCH   7   8
HETATM    8  N   UNL     1     -10.302  14.460  66.695  1.00  0.00    -0.271 N  
HETATM    9  C   UNL     1     -11.289  13.506  66.834  1.00  0.00    -0.326 C  
HETATM   10  H   UNL     1      -9.337  14.170  66.536  1.00  0.00     0.000 HD 
HETATM   11  O   UNL     1     -12.460  13.784  67.074  1.00  0.00    -0.315 OA 
BRANCH   9  12
HETATM   12  C   UNL     1     -10.879  12.086  66.660  1.00  0.00    -0.311 A  
HETATM   13  C   UNL     1     -11.045  11.136  67.672  1.00  0.00    -0.348 A  
HETATM   14  C   UNL     1     -10.656   9.809  67.457  1.00  0.00    -0.335 A  
HETATM   15  C   UNL     1     -10.068   9.419  66.250  1.00  0.00    -0.258 A  
HETATM   16  C   UNL     1      -9.981  10.354  65.215  1.00  0.00    -0.376 A  
HETATM   17  N   UNL     1      -9.795   8.069  66.005  1.00  0.00    -0.449 NA 
HETATM   18  H2  UNL     1     -10.658   7.539  66.128  1.00  0.00     0.000 HD 
HETATM   19  H1  UNL     1      -9.366   7.785  65.123  1.00  0.00     0.000 HD 
HETATM   20  C   UNL     1     -10.367  11.683  65.421  1.00  0.00    -0.313 A  
ENDBRANCH   9  12
ENDBRANCH   7   8
ENDBRANCH   6   7
ENDBRANCH   3   6
ENDBRANCH   2   3
TORSDOF 6
ENDMDL
MODEL      100
REMARK 921   NORMALIZED FREE ENERGY PREDICTED BY IDOCK:   -4.09 KCAL/MOL
REMARK 922        TOTAL FREE ENERGY PREDICTED BY IDOCK:   -6.00 KCAL/MOL
REMARK 923 INTER-LIGAND FREE ENERGY PREDICTED BY IDOCK:   -5.57 KCAL/MOL
REMARK 924 INTRA-LIGAND FREE ENERGY PREDICTED BY IDOCK:   -0.43 KCAL/MOL
REMARK 927      BINDING AFFINITY PREDICTED BY RF-SCORE:    0.00 PKD
ROOT
HETATM    1  C   UNL     1      -8.283   5.828  64.551  1.00  0.00    -0.122 C  
HETATM    2  C   UNL     1      -8.558   6.104  66.029  1.00  0.00    -0.145 C  
ENDROOT
BRANCH   2   3
HETATM    3  N   UNL     1      -9.729   5.398  66.580  1.00  0.00    -0.149 NA 
BRANCH   3   4
HETATM    4  C   UNL     1      -9.406   4.525  67.728  1.00  0.00    -0.147 C  
HETATM    5  C   UNL     1      -9.396   3.019  67.461  1.00  0.00    -0.229 C  
ENDBRANCH   3   4
BRANCH   3   6
HETATM    6  C   UNL     1     -10.815   6.346  66.938  1.00  0.00    -0.357 C  
BRANCH   6   7
HETATM    7  C   UNL     1     -10.369   7.671  67.582  1.00  0.00    -0.237 C  
BRANCH   7   8
HETATM    8  N   UNL     1     -10.852   8.830  66.858  1.00  0.00    -0.249 N  
HETATM    9  C   UNL     1      -9.967   9.745  66.329  1.00  0.00    -0.262 C  
HETATM   10  H   UNL     1     -11.855   8.969  66.740  1.00  0.00     0.000 HD 
HETATM   11  O   UNL     1      -8.751   9.664  66.474  1.00  0.00    -0.132 OA 
BRANCH   9  12
HETATM   12  C   UNL     1     -10.550  10.859  65.533  1.00  0.00    -0.240 A  
HETATM   13  C   UNL     1     -10.353  10.968  64.153  1.00  0.00    -0.434 A  
HETATM   14  C   UNL     1     -10.932  12.027  63.444  1.00  0.00    -0.475 A  
HETATM   15  C   UNL     1     -11.684  13.005  64.101  1.00  0.00    -0.412 A  
HETATM   16  C   UNL     1     -11.945  12.845  65.464  1.00  0.00    -0.482 A  
HETATM   17  N   UNL     1     -12.355  13.988  63.366  1.00  0.00    -1.154 NA 
HETATM   18  H2  UNL     1     -12.956  13.525  62.684  1.00  0.00     0.000 HD 
HETATM   19  H1  UNL     1     -12.904  14.702  63.845  1.00  0.00     0.000 HD 
HETATM   20  C   UNL     1     -11.370  11.791  66.182  1.00  0.00    -0.342 A  
ENDBRANCH   9  12
ENDBRANCH   7   8
ENDBRANCH   6   7
ENDBRANCH   3   6
ENDBRANCH   2   3
TORSDOF 6
ENDMDL
MODEL      101
REMARK 921   NORMALIZED FREE ENERGY PREDICTED BY IDOCK:   -4.08 KCAL/MOL
REMARK 922        TOTAL FREE ENERGY PREDICTED BY IDOCK:   -5.98 KCAL/MOL
REMARK 923 INTER-LIGAND FREE ENERGY PREDICTED BY IDOCK:   -5.64 KCAL/MOL
REMARK 924 INTRA-LIGAND FREE ENERGY PREDICTED BY IDOCK:   -0.34 KCAL/MOL
REMARK 927      BINDING AFFINITY PREDICTED BY RF-SCORE:    0.00 PKD
ROOT
HETATM    1  C   UNL     1      -9.357  19.354  68.479  1.00  0.00    -0.446 C  
HETATM    2  C   UNL     1     -10.105  18.970  67.203  1.00  0.00    -0.364 C  
ENDROOT
BRANCH   2   3
HETATM    3  N   UNL     1      -9.333  18.141  66.261  1.00  0.00    -0.457 NA 
BRANCH   3   4
HETATM    4  C   UNL     1      -7.917  17.973  66.646  1.00  0.00    -0.251 C  
HETATM    5  C   UNL     1      -6.872  18.470  65.647  1.00  0.00    -0.279 C  
ENDBRANCH   3   4
BRANCH   3   6
HETATM    6  C   UNL     1      -9.974  16.818  66.050  1.00  0.00    -0.313 C  
BRANCH   6   7
HETATM    7  C   UNL     1     -10.878  16.317  67.191  1.00  0.00    -0.190 C  
BRANCH   7   8
HETATM    8  N   UNL     1     -10.724  14.898  67.439  1.00  0.00    -0.285 N  
HETATM    9  C   UNL     1     -11.587  13.988  66.866  1.00  0.00    -0.386 C  
HETATM   10  H   UNL     1      -9.970  14.570  68.042  1.00  0.00     0.000 HD 
HETATM   11  O   UNL     1     -12.542  14.317  66.169  1.00  0.00    -0.436 OA 
BRANCH   9  12
HETATM   12  C   UNL     1     -11.303  12.548  67.111  1.00  0.00    -0.381 A  
HETATM   13  C   UNL     1     -10.687  11.739  66.151  1.00  0.00    -0.320 A  
HETATM   14  C   UNL     1     -10.429  10.393  66.432  1.00  0.00    -0.246 A  
HETATM   15  C   UNL     1     -10.809   9.828  67.652  1.00  0.00    -0.239 A  
HETATM   16  C   UNL     1     -11.348  10.660  68.636  1.00  0.00    -0.345 A  
HETATM   17  N   UNL     1     -10.438   8.515  67.965  1.00  0.00    -0.332 NA 
HETATM   18  H2  UNL     1      -9.424   8.438  67.876  1.00  0.00     0.000 HD 
HETATM   19  H1  UNL     1     -10.715   8.103  68.856  1.00  0.00     0.000 HD 
HETATM   20  C   UNL     1     -11.611  12.007  68.365  1.00  0.00    -0.368 A  
ENDBRANCH   9  12
ENDBRANCH   7   8
ENDBRANCH   6   7
ENDBRANCH   3   6
ENDBRANCH   2   3
TORSDOF 6
ENDMDL
MODEL      102
REMARK 921   NORMALIZED FREE ENERGY PREDICTED BY IDOCK:   -4.07 KCAL/MOL
REMARK 922        TOTAL FREE ENERGY PREDICTED BY IDOCK:   -5.98 KCAL/MOL
REMARK 923 INTER-LIGAND FREE ENERGY PREDICTED BY IDOCK:   -5.57 KCAL/MOL
REMARK 924 INTRA-LIGAND FREE ENERGY PREDICTED BY IDOCK:   -0.41 KCAL/MOL
REMARK 927      BINDING AFFINITY PREDICTED BY RF-SCORE:    0.00 PKD
ROOT
HETATM    1  C   UNL     1      -6.864  19.364  69.351  1.00  0.00    -0.342 C  
HETATM    2  C   UNL     1      -8.021  19.623  68.388  1.00  0.00    -0.322 C  
ENDROOT
BRANCH   2   3
HETATM    3  N   UNL     1      -7.715  19.357  66.971  1.00  0.00    -0.242 NA 
BRANCH   3   4
HETATM    4  C   UNL     1      -6.291  19.049  66.722  1.00  0.00    -0.186 C  
HETATM    5  C   UNL     1      -5.973  17.642  66.215  1.00  0.00    -0.255 C  
ENDBRANCH   3   4
BRANCH   3   6
HETATM    6  C   UNL     1      -8.582  18.285  66.420  1.00  0.00    -0.242 C  
BRANCH   6   7
HETATM    7  C   UNL     1      -9.923  18.063  67.143  1.00  0.00    -0.325 C  
BRANCH   7   8
HETATM    8  N   UNL     1     -10.255  16.660  67.280  1.00  0.00    -0.284 N  
HETATM    9  C   UNL     1     -10.797  16.178  68.452  1.00  0.00    -0.318 C  
HETATM   10  H   UNL     1     -10.085  16.023  66.501  1.00  0.00     0.000 HD 
HETATM   11  O   UNL     1     -10.984  16.879  69.442  1.00  0.00    -0.256 OA 
BRANCH   9  12
HETATM   12  C   UNL     1     -11.181  14.741  68.473  1.00  0.00    -0.291 A  
HETATM   13  C   UNL     1     -11.203  13.961  67.312  1.00  0.00    -0.329 A  
HETATM   14  C   UNL     1     -11.559  12.609  67.383  1.00  0.00    -0.421 A  
HETATM   15  C   UNL     1     -11.929  12.027  68.599  1.00  0.00    -0.235 A  
HETATM   16  C   UNL     1     -11.825  12.789  69.765  1.00  0.00    -0.380 A  
HETATM   17  N   UNL     1     -12.165  10.650  68.675  1.00  0.00    -0.814 NA 
HETATM   18  H2  UNL     1     -11.342  10.162  68.321  1.00  0.00     0.000 HD 
HETATM   19  H1  UNL     1     -12.435  10.225  69.562  1.00  0.00     0.000 HD 
HETATM   20  C   UNL     1     -11.471  14.141  69.704  1.00  0.00    -0.329 A  
ENDBRANCH   9  12
ENDBRANCH   7   8
ENDBRANCH   6   7
ENDBRANCH   3   6
ENDBRANCH   2   3
TORSDOF 6
ENDMDL
MODEL      103
REMARK 921   NORMALIZED FREE ENERGY PREDICTED BY IDOCK:   -4.03 KCAL/MOL
REMARK 922        TOTAL FREE ENERGY PREDICTED BY IDOCK:   -5.93 KCAL/MOL
REMARK 923 INTER-LIGAND FREE ENERGY PREDICTED BY IDOCK:   -5.48 KCAL/MOL
REMARK 924 INTRA-LIGAND FREE ENERGY PREDICTED BY IDOCK:   -0.44 KCAL/MOL
REMARK 927      BINDING AFFINITY PREDICTED BY RF-SCORE:    0.00 PKD
ROOT
HETATM    1  C   UNL     1      -8.608   6.735  71.329  1.00  0.00    -0.125 C  
HETATM    2  C   UNL     1      -9.853   6.282  70.567  1.00  0.00    -0.177 C  
ENDROOT
BRANCH   2   3
HETATM    3  N   UNL     1      -9.991   6.855  69.215  1.00  0.00    -0.157 NA 
BRANCH   3   4
HETATM    4  C   UNL     1     -11.195   6.389  68.497  1.00  0.00    -0.228 C  
HETATM    5  C   UNL     1     -11.017   6.038  67.019  1.00  0.00    -0.364 C  
ENDBRANCH   3   4
BRANCH   3   6
HETATM    6  C   UNL     1      -9.947   8.338  69.247  1.00  0.00    -0.192 C  
BRANCH   6   7
HETATM    7  C   UNL     1      -8.922   9.003  68.309  1.00  0.00    -0.133 C  
BRANCH   7   8
HETATM    8  N   UNL     1      -9.499  10.081  67.532  1.00  0.00    -0.147 N  
HETATM    9  C   UNL     1      -9.737   9.924  66.183  1.00  0.00    -0.236 C  
HETATM   10  H   UNL     1      -9.730  10.964  67.987  1.00  0.00     0.000 HD 
HETATM   11  O   UNL     1      -9.441   8.906  65.564  1.00  0.00    -0.202 OA 
BRANCH   9  12
HETATM   12  C   UNL     1     -10.406  11.054  65.484  1.00  0.00    -0.321 A  
HETATM   13  C   UNL     1     -10.494  11.117  64.089  1.00  0.00    -0.442 A  
HETATM   14  C   UNL     1     -11.144  12.195  63.477  1.00  0.00    -0.525 A  
HETATM   15  C   UNL     1     -11.682  13.236  64.239  1.00  0.00    -0.407 A  
HETATM   16  C   UNL     1     -11.663  13.126  65.631  1.00  0.00    -0.402 A  
HETATM   17  N   UNL     1     -12.432  14.243  63.621  1.00  0.00    -1.083 NA 
HETATM   18  H2  UNL     1     -13.188  13.805  63.095  1.00  0.00     0.000 HD 
HETATM   19  H1  UNL     1     -12.825  15.003  64.177  1.00  0.00     0.000 HD 
HETATM   20  C   UNL     1     -11.016  12.053  66.253  1.00  0.00    -0.340 A  
ENDBRANCH   9  12
ENDBRANCH   7   8
ENDBRANCH   6   7
ENDBRANCH   3   6
ENDBRANCH   2   3
TORSDOF 6
ENDMDL
MODEL      104
REMARK 921   NORMALIZED FREE ENERGY PREDICTED BY IDOCK:   -4.02 KCAL/MOL
REMARK 922        TOTAL FREE ENERGY PREDICTED BY IDOCK:   -5.91 KCAL/MOL
REMARK 923 INTER-LIGAND FREE ENERGY PREDICTED BY IDOCK:   -5.50 KCAL/MOL
REMARK 924 INTRA-LIGAND FREE ENERGY PREDICTED BY IDOCK:   -0.41 KCAL/MOL
REMARK 927      BINDING AFFINITY PREDICTED BY RF-SCORE:    0.00 PKD
ROOT
HETATM    1  C   UNL     1     -14.400  14.224  72.077  1.00  0.00    -0.629 C  
HETATM    2  C   UNL     1     -13.114  13.534  71.623  1.00  0.00    -0.374 C  
ENDROOT
BRANCH   2   3
HETATM    3  N   UNL     1     -12.500  14.109  70.412  1.00  0.00    -0.349 NA 
BRANCH   3   4
HETATM    4  C   UNL     1     -11.863  15.423  70.640  1.00  0.00    -0.351 C  
HETATM    5  C   UNL     1     -10.690  15.782  69.728  1.00  0.00    -0.317 C  
ENDBRANCH   3   4
BRANCH   3   6
HETATM    6  C   UNL     1     -11.536  13.165  69.792  1.00  0.00    -0.221 C  
BRANCH   6   7
HETATM    7  C   UNL     1     -12.106  11.798  69.372  1.00  0.00    -0.238 C  
BRANCH   7   8
HETATM    8  N   UNL     1     -11.474  10.696  70.068  1.00  0.00    -0.299 N  
HETATM    9  C   UNL     1     -12.214   9.864  70.882  1.00  0.00    -0.328 C  
HETATM   10  H   UNL     1     -10.473  10.535  69.956  1.00  0.00     0.000 HD 
HETATM   11  O   UNL     1     -13.411  10.028  71.098  1.00  0.00    -0.380 OA 
BRANCH   9  12
HETATM   12  C   UNL     1     -11.497   8.711  71.492  1.00  0.00    -0.363 A  
HETATM   13  C   UNL     1     -10.161   8.798  71.898  1.00  0.00    -0.415 A  
HETATM   14  C   UNL     1      -9.533   7.691  72.479  1.00  0.00    -0.222 A  
HETATM   15  C   UNL     1     -10.211   6.478  72.631  1.00  0.00    -0.186 A  
HETATM   16  C   UNL     1     -11.567   6.423  72.300  1.00  0.00    -0.341 A  
HETATM   17  N   UNL     1      -9.610   5.419  73.320  1.00  0.00    -0.142 NA 
HETATM   18  H2  UNL     1      -9.334   5.752  74.244  1.00  0.00     0.000 HD 
HETATM   19  H1  UNL     1     -10.105   4.534  73.432  1.00  0.00     0.000 HD 
HETATM   20  C   UNL     1     -12.204   7.524  71.718  1.00  0.00    -0.345 A  
ENDBRANCH   9  12
ENDBRANCH   7   8
ENDBRANCH   6   7
ENDBRANCH   3   6
ENDBRANCH   2   3
TORSDOF 6
ENDMDL
MODEL      105
REMARK 921   NORMALIZED FREE ENERGY PREDICTED BY IDOCK:   -4.02 KCAL/MOL
REMARK 922        TOTAL FREE ENERGY PREDICTED BY IDOCK:   -5.91 KCAL/MOL
REMARK 923 INTER-LIGAND FREE ENERGY PREDICTED BY IDOCK:   -5.62 KCAL/MOL
REMARK 924 INTRA-LIGAND FREE ENERGY PREDICTED BY IDOCK:   -0.29 KCAL/MOL
REMARK 927      BINDING AFFINITY PREDICTED BY RF-SCORE:    0.00 PKD
ROOT
HETATM    1  C   UNL     1     -11.854  15.506  69.758  1.00  0.00    -0.376 C  
HETATM    2  C   UNL     1     -11.226  14.247  69.163  1.00  0.00    -0.270 C  
ENDROOT
BRANCH   2   3
HETATM    3  N   UNL     1     -12.008  13.619  68.084  1.00  0.00    -0.369 NA 
BRANCH   3   4
HETATM    4  C   UNL     1     -11.688  14.143  66.739  1.00  0.00    -0.410 C  
HETATM    5  C   UNL     1     -12.642  13.756  65.609  1.00  0.00    -0.551 C  
ENDBRANCH   3   4
BRANCH   3   6
HETATM    6  C   UNL     1     -11.877  12.140  68.108  1.00  0.00    -0.299 C  
BRANCH   6   7
HETATM    7  C   UNL     1     -10.668  11.582  68.880  1.00  0.00    -0.207 C  
BRANCH   7   8
HETATM    8  N   UNL     1     -10.991  10.385  69.629  1.00  0.00    -0.258 N  
HETATM    9  C   UNL     1      -9.994   9.632  70.211  1.00  0.00    -0.270 C  
HETATM   10  H   UNL     1     -11.965  10.097  69.725  1.00  0.00     0.000 HD 
HETATM   11  O   UNL     1      -8.801   9.894  70.096  1.00  0.00    -0.206 OA 
BRANCH   9  12
HETATM   12  C   UNL     1     -10.425   8.465  71.028  1.00  0.00    -0.251 A  
HETATM   13  C   UNL     1     -10.068   8.327  72.373  1.00  0.00    -0.383 A  
HETATM   14  C   UNL     1     -10.508   7.218  73.105  1.00  0.00    -0.385 A  
HETATM   15  C   UNL     1     -11.278   6.219  72.501  1.00  0.00    -0.279 A  
HETATM   16  C   UNL     1     -11.700   6.404  71.182  1.00  0.00    -0.359 A  
HETATM   17  N   UNL     1     -11.810   5.181  73.273  1.00  0.00    -0.477 NA 
HETATM   18  H2  UNL     1     -12.353   5.590  74.033  1.00  0.00     0.000 HD 
HETATM   19  H1  UNL     1     -12.372   4.451  72.832  1.00  0.00     0.000 HD 
HETATM   20  C   UNL     1     -11.264   7.509  70.443  1.00  0.00    -0.270 A  
ENDBRANCH   9  12
ENDBRANCH   7   8
ENDBRANCH   6   7
ENDBRANCH   3   6
ENDBRANCH   2   3
TORSDOF 6
ENDMDL
MODEL      106
REMARK 921   NORMALIZED FREE ENERGY PREDICTED BY IDOCK:   -4.02 KCAL/MOL
REMARK 922        TOTAL FREE ENERGY PREDICTED BY IDOCK:   -5.90 KCAL/MOL
REMARK 923 INTER-LIGAND FREE ENERGY PREDICTED BY IDOCK:   -5.48 KCAL/MOL
REMARK 924 INTRA-LIGAND FREE ENERGY PREDICTED BY IDOCK:   -0.42 KCAL/MOL
REMARK 927      BINDING AFFINITY PREDICTED BY RF-SCORE:    0.00 PKD
ROOT
HETATM    1  C   UNL     1     -10.140  19.715  69.015  1.00  0.00    -0.443 C  
HETATM    2  C   UNL     1     -10.004  19.197  67.584  1.00  0.00    -0.357 C  
ENDROOT
BRANCH   2   3
HETATM    3  N   UNL     1      -8.727  18.524  67.291  1.00  0.00    -0.263 NA 
BRANCH   3   4
HETATM    4  C   UNL     1      -7.891  18.296  68.488  1.00  0.00    -0.298 C  
HETATM    5  C   UNL     1      -7.295  16.897  68.650  1.00  0.00    -0.222 C  
ENDBRANCH   3   4
BRANCH   3   6
HETATM    6  C   UNL     1      -8.940  17.251  66.556  1.00  0.00    -0.268 C  
BRANCH   6   7
HETATM    7  C   UNL     1     -10.400  16.908  66.210  1.00  0.00    -0.308 C  
BRANCH   7   8
HETATM    8  N   UNL     1     -10.918  15.816  67.007  1.00  0.00    -0.272 N  
HETATM    9  C   UNL     1     -10.717  14.508  66.619  1.00  0.00    -0.305 C  
HETATM   10  H   UNL     1     -11.435  16.015  67.863  1.00  0.00     0.000 HD 
HETATM   11  O   UNL     1     -10.144  14.197  65.578  1.00  0.00    -0.329 OA 
BRANCH   9  12
HETATM   12  C   UNL     1     -11.213  13.450  67.541  1.00  0.00    -0.309 A  
HETATM   13  C   UNL     1     -11.544  13.722  68.872  1.00  0.00    -0.358 A  
HETATM   14  C   UNL     1     -12.019  12.697  69.699  1.00  0.00    -0.352 A  
HETATM   15  C   UNL     1     -12.139  11.388  69.223  1.00  0.00    -0.289 A  
HETATM   16  C   UNL     1     -11.886  11.141  67.871  1.00  0.00    -0.162 A  
HETATM   17  N   UNL     1     -12.727  10.401  70.022  1.00  0.00    -0.549 NA 
HETATM   18  H2  UNL     1     -13.651  10.726  70.306  1.00  0.00     0.000 HD 
HETATM   19  H1  UNL     1     -12.815   9.446  69.674  1.00  0.00     0.000 HD 
HETATM   20  C   UNL     1     -11.410  12.159  67.038  1.00  0.00    -0.398 A  
ENDBRANCH   9  12
ENDBRANCH   7   8
ENDBRANCH   6   7
ENDBRANCH   3   6
ENDBRANCH   2   3
TORSDOF 6
ENDMDL
MODEL      107
REMARK 921   NORMALIZED FREE ENERGY PREDICTED BY IDOCK:   -3.99 KCAL/MOL
REMARK 922        TOTAL FREE ENERGY PREDICTED BY IDOCK:   -5.87 KCAL/MOL
REMARK 923 INTER-LIGAND FREE ENERGY PREDICTED BY IDOCK:   -5.51 KCAL/MOL
REMARK 924 INTRA-LIGAND FREE ENERGY PREDICTED BY IDOCK:   -0.36 KCAL/MOL
REMARK 927      BINDING AFFINITY PREDICTED BY RF-SCORE:    0.00 PKD
ROOT
HETATM    1  C   UNL     1     -12.114  13.806  64.812  1.00  0.00    -0.438 C  
HETATM    2  C   UNL     1     -11.137  14.930  65.152  1.00  0.00    -0.393 C  
ENDROOT
BRANCH   2   3
HETATM    3  N   UNL     1      -9.999  14.524  65.996  1.00  0.00    -0.307 NA 
BRANCH   3   4
HETATM    4  C   UNL     1      -9.574  15.564  66.955  1.00  0.00    -0.224 C  
HETATM    5  C   UNL     1     -10.599  16.649  67.287  1.00  0.00    -0.281 C  
ENDBRANCH   3   4
BRANCH   3   6
HETATM    6  C   UNL     1     -10.276  13.247  66.702  1.00  0.00    -0.265 C  
BRANCH   6   7
HETATM    7  C   UNL     1      -9.259  12.841  67.784  1.00  0.00    -0.199 C  
BRANCH   7   8
HETATM    8  N   UNL     1      -9.849  12.020  68.821  1.00  0.00    -0.401 N  
HETATM    9  C   UNL     1      -9.584  10.668  68.881  1.00  0.00    -0.196 C  
HETATM   10  H   UNL     1     -10.467  12.445  69.512  1.00  0.00     0.000 HD 
HETATM   11  O   UNL     1      -8.888  10.084  68.056  1.00  0.00    -0.124 OA 
BRANCH   9  12
HETATM   12  C   UNL     1     -10.169   9.920  70.027  1.00  0.00    -0.319 A  
HETATM   13  C   UNL     1     -11.538   9.949  70.311  1.00  0.00    -0.319 A  
HETATM   14  C   UNL     1     -12.044   9.218  71.392  1.00  0.00    -0.424 A  
HETATM   15  C   UNL     1     -11.194   8.481  72.221  1.00  0.00    -0.362 A  
HETATM   16  C   UNL     1      -9.842   8.390  71.883  1.00  0.00    -0.328 A  
HETATM   17  N   UNL     1     -11.727   7.662  73.223  1.00  0.00    -0.601 NA 
HETATM   18  H2  UNL     1     -12.393   7.021  72.793  1.00  0.00     0.000 HD 
HETATM   19  H1  UNL     1     -11.107   7.123  73.828  1.00  0.00     0.000 HD 
HETATM   20  C   UNL     1      -9.326   9.117  70.805  1.00  0.00    -0.325 A  
ENDBRANCH   9  12
ENDBRANCH   7   8
ENDBRANCH   6   7
ENDBRANCH   3   6
ENDBRANCH   2   3
TORSDOF 6
ENDMDL
MODEL      108
REMARK 921   NORMALIZED FREE ENERGY PREDICTED BY IDOCK:   -3.98 KCAL/MOL
REMARK 922        TOTAL FREE ENERGY PREDICTED BY IDOCK:   -5.86 KCAL/MOL
REMARK 923 INTER-LIGAND FREE ENERGY PREDICTED BY IDOCK:   -5.51 KCAL/MOL
REMARK 924 INTRA-LIGAND FREE ENERGY PREDICTED BY IDOCK:   -0.35 KCAL/MOL
REMARK 927      BINDING AFFINITY PREDICTED BY RF-SCORE:    0.00 PKD
ROOT
HETATM    1  C   UNL     1      -6.627  19.971  69.920  1.00  0.00    -0.316 C  
HETATM    2  C   UNL     1      -7.011  19.184  68.668  1.00  0.00    -0.301 C  
ENDROOT
BRANCH   2   3
HETATM    3  N   UNL     1      -6.252  17.937  68.467  1.00  0.00    -0.184 NA 
BRANCH   3   4
HETATM    4  C   UNL     1      -5.931  17.232  69.726  1.00  0.00    -0.243 C  
HETATM    5  C   UNL     1      -6.093  15.711  69.719  1.00  0.00    -0.160 C  
ENDBRANCH   3   4
BRANCH   3   6
HETATM    6  C   UNL     1      -6.947  17.024  67.524  1.00  0.00    -0.146 C  
BRANCH   6   7
HETATM    7  C   UNL     1      -8.195  17.597  66.828  1.00  0.00    -0.243 C  
BRANCH   7   8
HETATM    8  N   UNL     1      -9.009  16.568  66.214  1.00  0.00    -0.305 N  
HETATM    9  C   UNL     1     -10.130  16.085  66.854  1.00  0.00    -0.265 C  
HETATM   10  H   UNL     1      -8.750  16.198  65.299  1.00  0.00     0.000 HD 
HETATM   11  O   UNL     1     -10.473  16.451  67.974  1.00  0.00    -0.280 OA 
BRANCH   9  12
HETATM   12  C   UNL     1     -10.949  15.088  66.113  1.00  0.00    -0.334 A  
HETATM   13  C   UNL     1     -11.204  15.208  64.743  1.00  0.00    -0.396 A  
HETATM   14  C   UNL     1     -11.970  14.238  64.085  1.00  0.00    -0.401 A  
HETATM   15  C   UNL     1     -12.518  13.160  64.786  1.00  0.00    -0.402 A  
HETATM   16  C   UNL     1     -12.193  13.003  66.135  1.00  0.00    -0.428 A  
HETATM   17  N   UNL     1     -13.179  12.138  64.096  1.00  0.00    -0.732 NA 
HETATM   18  H2  UNL     1     -12.549  11.771  63.383  1.00  0.00     0.000 HD 
HETATM   19  H1  UNL     1     -13.580  11.350  64.607  1.00  0.00     0.000 HD 
HETATM   20  C   UNL     1     -11.428  13.967  66.801  1.00  0.00    -0.369 A  
ENDBRANCH   9  12
ENDBRANCH   7   8
ENDBRANCH   6   7
ENDBRANCH   3   6
ENDBRANCH   2   3
TORSDOF 6
ENDMDL
MODEL      109
REMARK 921   NORMALIZED FREE ENERGY PREDICTED BY IDOCK:   -3.97 KCAL/MOL
REMARK 922        TOTAL FREE ENERGY PREDICTED BY IDOCK:   -5.84 KCAL/MOL
REMARK 923 INTER-LIGAND FREE ENERGY PREDICTED BY IDOCK:   -5.33 KCAL/MOL
REMARK 924 INTRA-LIGAND FREE ENERGY PREDICTED BY IDOCK:   -0.52 KCAL/MOL
REMARK 927      BINDING AFFINITY PREDICTED BY RF-SCORE:    0.00 PKD
ROOT
HETATM    1  C   UNL     1      -9.445   6.869  66.486  1.00  0.00    -0.199 C  
HETATM    2  C   UNL     1     -10.514   7.836  66.993  1.00  0.00    -0.349 C  
ENDROOT
BRANCH   2   3
HETATM    3  N   UNL     1     -10.201   9.262  66.790  1.00  0.00    -0.255 NA 
BRANCH   3   4
HETATM    4  C   UNL     1      -9.588   9.906  67.971  1.00  0.00    -0.138 C  
HETATM    5  C   UNL     1     -10.545  10.568  68.963  1.00  0.00    -0.250 C  
ENDBRANCH   3   4
BRANCH   3   6
HETATM    6  C   UNL     1      -9.352   9.466  65.589  1.00  0.00    -0.246 C  
BRANCH   6   7
HETATM    7  C   UNL     1      -9.971  10.314  64.462  1.00  0.00    -0.289 C  
BRANCH   7   8
HETATM    8  N   UNL     1      -9.786  11.735  64.672  1.00  0.00    -0.389 N  
HETATM    9  C   UNL     1     -10.820  12.515  65.144  1.00  0.00    -0.288 C  
HETATM   10  H   UNL     1      -8.882  12.162  64.468  1.00  0.00     0.000 HD 
HETATM   11  O   UNL     1     -11.945  12.075  65.365  1.00  0.00    -0.399 OA 
BRANCH   9  12
HETATM   12  C   UNL     1     -10.515  13.948  65.405  1.00  0.00    -0.357 A  
HETATM   13  C   UNL     1      -9.497  14.343  66.279  1.00  0.00    -0.297 A  
HETATM   14  C   UNL     1      -9.238  15.703  66.483  1.00  0.00    -0.325 A  
HETATM   15  C   UNL     1     -10.007  16.683  65.850  1.00  0.00    -0.295 A  
HETATM   16  C   UNL     1     -10.967  16.283  64.917  1.00  0.00    -0.321 A  
HETATM   17  N   UNL     1      -9.661  18.034  65.970  1.00  0.00    -0.535 NA 
HETATM   18  H2  UNL     1      -8.692  18.145  65.674  1.00  0.00     0.000 HD 
HETATM   19  H1  UNL     1     -10.223  18.750  65.508  1.00  0.00     0.000 HD 
HETATM   20  C   UNL     1     -11.233  14.926  64.706  1.00  0.00    -0.393 A  
ENDBRANCH   9  12
ENDBRANCH   7   8
ENDBRANCH   6   7
ENDBRANCH   3   6
ENDBRANCH   2   3
TORSDOF 6
ENDMDL
MODEL      110
REMARK 921   NORMALIZED FREE ENERGY PREDICTED BY IDOCK:   -3.96 KCAL/MOL
REMARK 922        TOTAL FREE ENERGY PREDICTED BY IDOCK:   -5.83 KCAL/MOL
REMARK 923 INTER-LIGAND FREE ENERGY PREDICTED BY IDOCK:   -5.35 KCAL/MOL
REMARK 924 INTRA-LIGAND FREE ENERGY PREDICTED BY IDOCK:   -0.48 KCAL/MOL
REMARK 927      BINDING AFFINITY PREDICTED BY RF-SCORE:    0.00 PKD
ROOT
HETATM    1  C   UNL     1     -11.735  15.290  64.641  1.00  0.00    -0.308 C  
HETATM    2  C   UNL     1     -10.649  16.183  65.239  1.00  0.00    -0.369 C  
ENDROOT
BRANCH   2   3
HETATM    3  N   UNL     1     -10.417  15.990  66.681  1.00  0.00    -0.304 NA 
BRANCH   3   4
HETATM    4  C   UNL     1     -10.102  17.242  67.402  1.00  0.00    -0.307 C  
HETATM    5  C   UNL     1     -10.512  18.547  66.718  1.00  0.00    -0.432 C  
ENDBRANCH   3   4
BRANCH   3   6
HETATM    6  C   UNL     1     -11.558  15.293  67.327  1.00  0.00    -0.157 C  
BRANCH   6   7
HETATM    7  C   UNL     1     -11.251  13.910  67.929  1.00  0.00    -0.278 C  
BRANCH   7   8
HETATM    8  N   UNL     1     -10.516  13.059  67.016  1.00  0.00    -0.246 N  
HETATM    9  C   UNL     1     -11.183  12.232  66.137  1.00  0.00    -0.328 C  
HETATM   10  H   UNL     1      -9.496  13.070  67.025  1.00  0.00     0.000 HD 
HETATM   11  O   UNL     1     -12.406  12.134  66.105  1.00  0.00    -0.536 OA 
BRANCH   9  12
HETATM   12  C   UNL     1     -10.347  11.455  65.182  1.00  0.00    -0.344 A  
HETATM   13  C   UNL     1      -9.704  10.269  65.553  1.00  0.00    -0.326 A  
HETATM   14  C   UNL     1      -8.939   9.565  64.617  1.00  0.00    -0.266 A  
HETATM   15  C   UNL     1      -8.776  10.047  63.314  1.00  0.00    -0.221 A  
HETATM   16  C   UNL     1      -9.486  11.186  62.928  1.00  0.00    -0.382 A  
HETATM   17  N   UNL     1      -8.109   9.274  62.358  1.00  0.00    -0.129 NA 
HETATM   18  H2  UNL     1      -8.562   8.361  62.309  1.00  0.00     0.000 HD 
HETATM   19  H1  UNL     1      -7.990   9.625  61.407  1.00  0.00     0.000 HD 
HETATM   20  C   UNL     1     -10.254  11.897  63.857  1.00  0.00    -0.420 A  
ENDBRANCH   9  12
ENDBRANCH   7   8
ENDBRANCH   6   7
ENDBRANCH   3   6
ENDBRANCH   2   3
TORSDOF 6
ENDMDL
MODEL      111
REMARK 921   NORMALIZED FREE ENERGY PREDICTED BY IDOCK:   -3.95 KCAL/MOL
REMARK 922        TOTAL FREE ENERGY PREDICTED BY IDOCK:   -5.82 KCAL/MOL
REMARK 923 INTER-LIGAND FREE ENERGY PREDICTED BY IDOCK:   -5.25 KCAL/MOL
REMARK 924 INTRA-LIGAND FREE ENERGY PREDICTED BY IDOCK:   -0.57 KCAL/MOL
REMARK 927      BINDING AFFINITY PREDICTED BY RF-SCORE:    0.00 PKD
ROOT
HETATM    1  C   UNL     1     -10.765   8.447  71.964  1.00  0.00    -0.387 C  
HETATM    2  C   UNL     1      -9.526   9.091  71.344  1.00  0.00    -0.264 C  
ENDROOT
BRANCH   2   3
HETATM    3  N   UNL     1      -9.790   9.911  70.149  1.00  0.00    -0.248 NA 
BRANCH   3   4
HETATM    4  C   UNL     1      -9.037   9.474  68.955  1.00  0.00    -0.141 C  
HETATM    5  C   UNL     1      -9.838   9.311  67.662  1.00  0.00    -0.221 C  
ENDBRANCH   3   4
BRANCH   3   6
HETATM    6  C   UNL     1     -11.243   9.982  69.849  1.00  0.00    -0.275 C  
BRANCH   6   7
HETATM    7  C   UNL     1     -11.902  11.362  70.025  1.00  0.00    -0.359 C  
BRANCH   7   8
HETATM    8  N   UNL     1     -11.136  12.425  69.408  1.00  0.00    -0.443 N  
HETATM    9  C   UNL     1     -11.366  12.787  68.098  1.00  0.00    -0.288 C  
HETATM   10  H   UNL     1     -10.419  12.911  69.948  1.00  0.00     0.000 HD 
HETATM   11  O   UNL     1     -12.179  12.215  67.378  1.00  0.00    -0.486 OA 
BRANCH   9  12
HETATM   12  C   UNL     1     -10.589  13.943  67.574  1.00  0.00    -0.256 A  
HETATM   13  C   UNL     1      -9.267  14.185  67.961  1.00  0.00    -0.195 A  
HETATM   14  C   UNL     1      -8.572  15.279  67.431  1.00  0.00    -0.197 A  
HETATM   15  C   UNL     1      -9.191  16.160  66.540  1.00  0.00    -0.272 A  
HETATM   16  C   UNL     1     -10.481  15.865  66.094  1.00  0.00    -0.336 A  
HETATM   17  N   UNL     1      -8.449  17.176  65.928  1.00  0.00    -0.533 NA 
HETATM   18  H2  UNL     1      -7.649  16.752  65.458  1.00  0.00     0.000 HD 
HETATM   19  H1  UNL     1      -8.900  17.819  65.277  1.00  0.00     0.000 HD 
HETATM   20  C   UNL     1     -11.185  14.775  66.618  1.00  0.00    -0.346 A  
ENDBRANCH   9  12
ENDBRANCH   7   8
ENDBRANCH   6   7
ENDBRANCH   3   6
ENDBRANCH   2   3
TORSDOF 6
ENDMDL
MODEL      112
REMARK 921   NORMALIZED FREE ENERGY PREDICTED BY IDOCK:   -3.94 KCAL/MOL
REMARK 922        TOTAL FREE ENERGY PREDICTED BY IDOCK:   -5.81 KCAL/MOL
REMARK 923 INTER-LIGAND FREE ENERGY PREDICTED BY IDOCK:   -5.57 KCAL/MOL
REMARK 924 INTRA-LIGAND FREE ENERGY PREDICTED BY IDOCK:   -0.23 KCAL/MOL
REMARK 927      BINDING AFFINITY PREDICTED BY RF-SCORE:    0.00 PKD
ROOT
HETATM    1  C   UNL     1     -10.883   8.882  70.748  1.00  0.00    -0.294 C  
HETATM    2  C   UNL     1     -11.432  10.246  70.334  1.00  0.00    -0.335 C  
ENDROOT
BRANCH   2   3
HETATM    3  N   UNL     1     -12.812  10.514  70.776  1.00  0.00    -0.374 NA 
BRANCH   3   4
HETATM    4  C   UNL     1     -13.619   9.291  70.970  1.00  0.00    -0.037 C  
HETATM    5  C   UNL     1     -14.221   9.082  72.360  1.00  0.00    -0.416 C  
ENDBRANCH   3   4
BRANCH   3   6
HETATM    6  C   UNL     1     -12.838  11.353  72.001  1.00  0.00    -0.159 C  
BRANCH   6   7
HETATM    7  C   UNL     1     -13.066  12.860  71.782  1.00  0.00    -0.360 C  
BRANCH   7   8
HETATM    8  N   UNL     1     -12.472  13.338  70.551  1.00  0.00    -0.296 N  
HETATM    9  C   UNL     1     -12.589  14.662  70.184  1.00  0.00    -0.283 C  
HETATM   10  H   UNL     1     -11.963  12.689  69.950  1.00  0.00     0.000 HD 
HETATM   11  O   UNL     1     -13.225  15.485  70.835  1.00  0.00    -0.497 OA 
BRANCH   9  12
HETATM   12  C   UNL     1     -11.878  15.080  68.945  1.00  0.00    -0.337 A  
HETATM   13  C   UNL     1     -11.200  16.299  68.853  1.00  0.00    -0.337 A  
HETATM   14  C   UNL     1     -10.535  16.643  67.671  1.00  0.00    -0.320 A  
HETATM   15  C   UNL     1     -10.565  15.798  66.558  1.00  0.00    -0.306 A  
HETATM   16  C   UNL     1     -11.174  14.547  66.683  1.00  0.00    -0.346 A  
HETATM   17  N   UNL     1      -9.799  16.099  65.426  1.00  0.00    -0.472 NA 
HETATM   18  H2  UNL     1      -8.828  16.214  65.717  1.00  0.00     0.000 HD 
HETATM   19  H1  UNL     1      -9.821  15.482  64.614  1.00  0.00     0.000 HD 
HETATM   20  C   UNL     1     -11.842  14.194  67.861  1.00  0.00    -0.405 A  
ENDBRANCH   9  12
ENDBRANCH   7   8
ENDBRANCH   6   7
ENDBRANCH   3   6
ENDBRANCH   2   3
TORSDOF 6
ENDMDL
MODEL      113
REMARK 921   NORMALIZED FREE ENERGY PREDICTED BY IDOCK:   -3.91 KCAL/MOL
REMARK 922        TOTAL FREE ENERGY PREDICTED BY IDOCK:   -5.76 KCAL/MOL
REMARK 923 INTER-LIGAND FREE ENERGY PREDICTED BY IDOCK:   -5.36 KCAL/MOL
REMARK 924 INTRA-LIGAND FREE ENERGY PREDICTED BY IDOCK:   -0.40 KCAL/MOL
REMARK 927      BINDING AFFINITY PREDICTED BY RF-SCORE:    0.00 PKD
ROOT
HETATM    1  C   UNL     1      -7.113  18.317  65.970  1.00  0.00    -0.307 C  
HETATM    2  C   UNL     1      -8.503  17.863  66.414  1.00  0.00    -0.234 C  
ENDROOT
BRANCH   2   3
HETATM    3  N   UNL     1      -9.031  18.562  67.599  1.00  0.00    -0.269 NA 
BRANCH   3   4
HETATM    4  C   UNL     1     -10.126  19.504  67.290  1.00  0.00    -0.405 C  
HETATM    5  C   UNL     1     -10.475  19.687  65.812  1.00  0.00    -0.540 C  
ENDBRANCH   3   4
BRANCH   3   6
HETATM    6  C   UNL     1      -9.452  17.604  68.652  1.00  0.00    -0.284 C  
BRANCH   6   7
HETATM    7  C   UNL     1     -10.841  16.965  68.467  1.00  0.00    -0.335 C  
BRANCH   7   8
HETATM    8  N   UNL     1     -10.765  15.551  68.160  1.00  0.00    -0.273 N  
HETATM    9  C   UNL     1     -10.982  14.608  69.142  1.00  0.00    -0.262 C  
HETATM   10  H   UNL     1     -10.549  15.251  67.210  1.00  0.00     0.000 HD 
HETATM   11  O   UNL     1     -11.200  14.899  70.315  1.00  0.00    -0.255 OA 
BRANCH   9  12
HETATM   12  C   UNL     1     -10.964  13.182  68.719  1.00  0.00    -0.298 A  
HETATM   13  C   UNL     1     -11.779  12.218  69.320  1.00  0.00    -0.388 A  
HETATM   14  C   UNL     1     -11.736  10.890  68.879  1.00  0.00    -0.376 A  
HETATM   15  C   UNL     1     -10.861  10.500  67.861  1.00  0.00    -0.282 A  
HETATM   16  C   UNL     1     -10.110  11.481  67.210  1.00  0.00    -0.223 A  
HETATM   17  N   UNL     1     -10.914   9.199  67.350  1.00  0.00    -0.411 NA 
HETATM   18  H2  UNL     1     -11.869   9.013  67.042  1.00  0.00     0.000 HD 
HETATM   19  H1  UNL     1     -10.276   8.913  66.607  1.00  0.00     0.000 HD 
HETATM   20  C   UNL     1     -10.146  12.811  67.644  1.00  0.00    -0.220 A  
ENDBRANCH   9  12
ENDBRANCH   7   8
ENDBRANCH   6   7
ENDBRANCH   3   6
ENDBRANCH   2   3
TORSDOF 6
ENDMDL
MODEL      114
REMARK 921   NORMALIZED FREE ENERGY PREDICTED BY IDOCK:   -3.91 KCAL/MOL
REMARK 922        TOTAL FREE ENERGY PREDICTED BY IDOCK:   -5.75 KCAL/MOL
REMARK 923 INTER-LIGAND FREE ENERGY PREDICTED BY IDOCK:   -5.36 KCAL/MOL
REMARK 924 INTRA-LIGAND FREE ENERGY PREDICTED BY IDOCK:   -0.39 KCAL/MOL
REMARK 927      BINDING AFFINITY PREDICTED BY RF-SCORE:    0.00 PKD
ROOT
HETATM    1  C   UNL     1      -7.265  17.221  66.553  1.00  0.00    -0.305 C  
HETATM    2  C   UNL     1      -8.450  16.348  66.962  1.00  0.00    -0.197 C  
ENDROOT
BRANCH   2   3
HETATM    3  N   UNL     1      -9.366  16.968  67.936  1.00  0.00    -0.237 NA 
BRANCH   3   4
HETATM    4  C   UNL     1     -10.323  17.915  67.326  1.00  0.00    -0.369 C  
HETATM    5  C   UNL     1     -10.415  19.302  67.964  1.00  0.00    -0.488 C  
ENDBRANCH   3   4
BRANCH   3   6
HETATM    6  C   UNL     1     -10.087  15.944  68.733  1.00  0.00    -0.221 C  
BRANCH   6   7
HETATM    7  C   UNL     1     -11.245  15.224  68.017  1.00  0.00    -0.326 C  
BRANCH   7   8
HETATM    8  N   UNL     1     -11.041  13.792  67.933  1.00  0.00    -0.257 N  
HETATM    9  C   UNL     1     -11.193  13.131  66.733  1.00  0.00    -0.299 C  
HETATM   10  H   UNL     1     -10.783  13.269  68.770  1.00  0.00     0.000 HD 
HETATM   11  O   UNL     1     -11.547  13.691  65.699  1.00  0.00    -0.316 OA 
BRANCH   9  12
HETATM   12  C   UNL     1     -10.884  11.676  66.724  1.00  0.00    -0.322 A  
HETATM   13  C   UNL     1     -11.206  10.842  67.800  1.00  0.00    -0.384 A  
HETATM   14  C   UNL     1     -10.907   9.476  67.741  1.00  0.00    -0.258 A  
HETATM   15  C   UNL     1     -10.257   8.930  66.631  1.00  0.00    -0.268 A  
HETATM   16  C   UNL     1     -10.012   9.751  65.528  1.00  0.00    -0.329 A  
HETATM   17  N   UNL     1     -10.073   7.547  66.535  1.00  0.00    -0.460 NA 
HETATM   18  H2  UNL     1     -10.981   7.094  66.630  1.00  0.00     0.000 HD 
HETATM   19  H1  UNL     1      -9.598   7.148  65.725  1.00  0.00     0.000 HD 
HETATM   20  C   UNL     1     -10.307  11.118  65.577  1.00  0.00    -0.326 A  
ENDBRANCH   9  12
ENDBRANCH   7   8
ENDBRANCH   6   7
ENDBRANCH   3   6
ENDBRANCH   2   3
TORSDOF 6
ENDMDL
MODEL      115
REMARK 921   NORMALIZED FREE ENERGY PREDICTED BY IDOCK:   -3.88 KCAL/MOL
REMARK 922        TOTAL FREE ENERGY PREDICTED BY IDOCK:   -5.72 KCAL/MOL
REMARK 923 INTER-LIGAND FREE ENERGY PREDICTED BY IDOCK:   -5.34 KCAL/MOL
REMARK 924 INTRA-LIGAND FREE ENERGY PREDICTED BY IDOCK:   -0.38 KCAL/MOL
REMARK 927      BINDING AFFINITY PREDICTED BY RF-SCORE:    0.00 PKD
ROOT
HETATM    1  C   UNL     1     -11.822   9.040  71.773  1.00  0.00    -0.442 C  
HETATM    2  C   UNL     1     -10.533   9.633  71.204  1.00  0.00    -0.211 C  
ENDROOT
BRANCH   2   3
HETATM    3  N   UNL     1     -10.733  10.708  70.217  1.00  0.00    -0.118 NA 
BRANCH   3   4
HETATM    4  C   UNL     1     -10.401  10.309  68.833  1.00  0.00    -0.204 C  
HETATM    5  C   UNL     1     -11.400  10.710  67.747  1.00  0.00    -0.320 C  
ENDBRANCH   3   4
BRANCH   3   6
HETATM    6  C   UNL     1     -12.111  11.257  70.282  1.00  0.00    -0.373 C  
BRANCH   6   7
HETATM    7  C   UNL     1     -12.228  12.745  70.660  1.00  0.00    -0.288 C  
BRANCH   7   8
HETATM    8  N   UNL     1     -11.639  13.618  69.665  1.00  0.00    -0.353 N  
HETATM    9  C   UNL     1     -11.852  14.979  69.712  1.00  0.00    -0.321 C  
HETATM   10  H   UNL     1     -11.062  13.221  68.923  1.00  0.00     0.000 HD 
HETATM   11  O   UNL     1     -12.573  15.517  70.548  1.00  0.00    -0.418 OA 
BRANCH   9  12
HETATM   12  C   UNL     1     -11.143  15.805  68.698  1.00  0.00    -0.327 A  
HETATM   13  C   UNL     1     -11.189  15.506  67.333  1.00  0.00    -0.248 A  
HETATM   14  C   UNL     1     -10.515  16.320  66.414  1.00  0.00    -0.297 A  
HETATM   15  C   UNL     1      -9.762  17.416  66.844  1.00  0.00    -0.286 A  
HETATM   16  C   UNL     1      -9.787  17.756  68.198  1.00  0.00    -0.326 A  
HETATM   17  N   UNL     1      -9.194  18.288  65.908  1.00  0.00    -0.467 NA 
HETATM   18  H2  UNL     1      -9.934  18.627  65.294  1.00  0.00     0.000 HD 
HETATM   19  H1  UNL     1      -8.645  19.088  66.221  1.00  0.00     0.000 HD 
HETATM   20  C   UNL     1     -10.457  16.949  69.124  1.00  0.00    -0.335 A  
ENDBRANCH   9  12
ENDBRANCH   7   8
ENDBRANCH   6   7
ENDBRANCH   3   6
ENDBRANCH   2   3
TORSDOF 6
ENDMDL
MODEL      116
REMARK 921   NORMALIZED FREE ENERGY PREDICTED BY IDOCK:   -3.87 KCAL/MOL
REMARK 922        TOTAL FREE ENERGY PREDICTED BY IDOCK:   -5.71 KCAL/MOL
REMARK 923 INTER-LIGAND FREE ENERGY PREDICTED BY IDOCK:   -5.39 KCAL/MOL
REMARK 924 INTRA-LIGAND FREE ENERGY PREDICTED BY IDOCK:   -0.32 KCAL/MOL
REMARK 927      BINDING AFFINITY PREDICTED BY RF-SCORE:    0.00 PKD
ROOT
HETATM    1  C   UNL     1     -11.873   8.278  72.511  1.00  0.00    -0.439 C  
HETATM    2  C   UNL     1     -10.925   7.674  71.475  1.00  0.00    -0.233 C  
ENDROOT
BRANCH   2   3
HETATM    3  N   UNL     1      -9.741   8.496  71.170  1.00  0.00    -0.185 NA 
BRANCH   3   4
HETATM    4  C   UNL     1      -8.688   7.765  70.434  1.00  0.00    -0.139 C  
HETATM    5  C   UNL     1      -7.838   6.787  71.246  1.00  0.00    -0.101 C  
ENDBRANCH   3   4
BRANCH   3   6
HETATM    6  C   UNL     1     -10.113   9.738  70.447  1.00  0.00    -0.252 C  
BRANCH   6   7
HETATM    7  C   UNL     1      -9.266  10.075  69.206  1.00  0.00    -0.203 C  
BRANCH   7   8
HETATM    8  N   UNL     1     -10.007  10.834  68.219  1.00  0.00    -0.163 N  
HETATM    9  C   UNL     1      -9.687  12.151  67.962  1.00  0.00    -0.203 C  
HETATM   10  H   UNL     1     -10.771  10.391  67.710  1.00  0.00     0.000 HD 
HETATM   11  O   UNL     1      -8.811  12.759  68.570  1.00  0.00    -0.145 OA 
BRANCH   9  12
HETATM   12  C   UNL     1     -10.447  12.826  66.875  1.00  0.00    -0.250 A  
HETATM   13  C   UNL     1     -11.842  12.768  66.799  1.00  0.00    -0.452 A  
HETATM   14  C   UNL     1     -12.515  13.430  65.765  1.00  0.00    -0.496 A  
HETATM   15  C   UNL     1     -11.810  14.127  64.780  1.00  0.00    -0.417 A  
HETATM   16  C   UNL     1     -10.424  14.249  64.908  1.00  0.00    -0.454 A  
HETATM   17  N   UNL     1     -12.498  14.881  63.824  1.00  0.00    -1.062 NA 
HETATM   18  H2  UNL     1     -13.106  15.540  64.311  1.00  0.00     0.000 HD 
HETATM   19  H1  UNL     1     -11.983  15.390  63.104  1.00  0.00     0.000 HD 
HETATM   20  C   UNL     1      -9.743  13.591  65.938  1.00  0.00    -0.199 A  
ENDBRANCH   9  12
ENDBRANCH   7   8
ENDBRANCH   6   7
ENDBRANCH   3   6
ENDBRANCH   2   3
TORSDOF 6
ENDMDL
MODEL      117
REMARK 921   NORMALIZED FREE ENERGY PREDICTED BY IDOCK:   -3.87 KCAL/MOL
REMARK 922        TOTAL FREE ENERGY PREDICTED BY IDOCK:   -5.70 KCAL/MOL
REMARK 923 INTER-LIGAND FREE ENERGY PREDICTED BY IDOCK:   -5.23 KCAL/MOL
REMARK 924 INTRA-LIGAND FREE ENERGY PREDICTED BY IDOCK:   -0.47 KCAL/MOL
REMARK 927      BINDING AFFINITY PREDICTED BY RF-SCORE:    0.00 PKD
ROOT
HETATM    1  C   UNL     1     -11.533  15.212  64.823  1.00  0.00    -0.383 C  
HETATM    2  C   UNL     1     -10.609  16.169  65.575  1.00  0.00    -0.377 C  
ENDROOT
BRANCH   2   3
HETATM    3  N   UNL     1     -10.219  15.718  66.923  1.00  0.00    -0.274 NA 
BRANCH   3   4
HETATM    4  C   UNL     1      -9.551  16.763  67.725  1.00  0.00    -0.241 C  
HETATM    5  C   UNL     1     -10.404  17.967  68.127  1.00  0.00    -0.398 C  
ENDBRANCH   3   4
BRANCH   3   6
HETATM    6  C   UNL     1     -11.377  15.155  67.663  1.00  0.00    -0.321 C  
BRANCH   6   7
HETATM    7  C   UNL     1     -11.075  13.947  68.569  1.00  0.00    -0.265 C  
BRANCH   7   8
HETATM    8  N   UNL     1     -10.467  12.849  67.846  1.00  0.00    -0.219 N  
HETATM    9  C   UNL     1     -11.130  11.647  67.708  1.00  0.00    -0.249 C  
HETATM   10  H   UNL     1      -9.541  12.966  67.435  1.00  0.00     0.000 HD 
HETATM   11  O   UNL     1     -12.225  11.423  68.216  1.00  0.00    -0.588 OA 
BRANCH   9  12
HETATM   12  C   UNL     1     -10.464  10.605  66.881  1.00  0.00    -0.304 A  
HETATM   13  C   UNL     1      -9.809  10.913  65.684  1.00  0.00    -0.292 A  
HETATM   14  C   UNL     1      -9.186   9.900  64.946  1.00  0.00    -0.301 A  
HETATM   15  C   UNL     1      -9.235   8.569  65.370  1.00  0.00     0.026 A  
HETATM   16  C   UNL     1      -9.818   8.281  66.606  1.00  0.00    -0.337 A  
HETATM   17  N   UNL     1      -8.508   7.588  64.688  1.00  0.00    -0.369 NA 
HETATM   18  H2  UNL     1      -7.531   7.878  64.651  1.00  0.00     0.000 HD 
HETATM   19  H1  UNL     1      -8.543   6.616  64.997  1.00  0.00     0.000 HD 
HETATM   20  C   UNL     1     -10.444   9.286  67.350  1.00  0.00    -0.340 A  
ENDBRANCH   9  12
ENDBRANCH   7   8
ENDBRANCH   6   7
ENDBRANCH   3   6
ENDBRANCH   2   3
TORSDOF 6
ENDMDL
MODEL      118
REMARK 921   NORMALIZED FREE ENERGY PREDICTED BY IDOCK:   -3.86 KCAL/MOL
REMARK 922        TOTAL FREE ENERGY PREDICTED BY IDOCK:   -5.70 KCAL/MOL
REMARK 923 INTER-LIGAND FREE ENERGY PREDICTED BY IDOCK:   -5.21 KCAL/MOL
REMARK 924 INTRA-LIGAND FREE ENERGY PREDICTED BY IDOCK:   -0.49 KCAL/MOL
REMARK 927      BINDING AFFINITY PREDICTED BY RF-SCORE:    0.00 PKD
ROOT
HETATM    1  C   UNL     1      -6.351  10.445  70.317  1.00  0.00    -0.132 C  
HETATM    2  C   UNL     1      -7.694   9.747  70.113  1.00  0.00    -0.177 C  
ENDROOT
BRANCH   2   3
HETATM    3  N   UNL     1      -8.030   9.453  68.708  1.00  0.00    -0.091 NA 
BRANCH   3   4
HETATM    4  C   UNL     1      -6.867   9.032  67.899  1.00  0.00    -0.070 C  
HETATM    5  C   UNL     1      -6.639   9.783  66.586  1.00  0.00    -0.071 C  
ENDBRANCH   3   4
BRANCH   3   6
HETATM    6  C   UNL     1      -9.122   8.452  68.608  1.00  0.00    -0.140 C  
BRANCH   6   7
HETATM    7  C   UNL     1     -10.552   8.993  68.787  1.00  0.00    -0.169 C  
BRANCH   7   8
HETATM    8  N   UNL     1     -10.980   9.808  67.668  1.00  0.00    -0.437 N  
HETATM    9  C   UNL     1     -10.958  11.184  67.753  1.00  0.00    -0.262 C  
HETATM   10  H   UNL     1     -11.302   9.359  66.810  1.00  0.00     0.000 HD 
HETATM   11  O   UNL     1     -10.627  11.788  68.769  1.00  0.00    -0.208 OA 
BRANCH   9  12
HETATM   12  C   UNL     1     -11.338  11.938  66.528  1.00  0.00    -0.403 A  
HETATM   13  C   UNL     1     -10.979  11.505  65.248  1.00  0.00    -0.291 A  
HETATM   14  C   UNL     1     -11.371  12.241  64.124  1.00  0.00    -0.442 A  
HETATM   15  C   UNL     1     -12.093  13.430  64.260  1.00  0.00    -0.424 A  
HETATM   16  C   UNL     1     -12.519  13.813  65.534  1.00  0.00    -0.548 A  
HETATM   17  N   UNL     1     -12.580  14.090  63.127  1.00  0.00    -0.956 NA 
HETATM   18  H2  UNL     1     -13.142  13.432  62.588  1.00  0.00     0.000 HD 
HETATM   19  H1  UNL     1     -13.107  14.958  63.226  1.00  0.00     0.000 HD 
HETATM   20  C   UNL     1     -12.131  13.084  66.664  1.00  0.00    -0.386 A  
ENDBRANCH   9  12
ENDBRANCH   7   8
ENDBRANCH   6   7
ENDBRANCH   3   6
ENDBRANCH   2   3
TORSDOF 6
ENDMDL
MODEL      119
REMARK 921   NORMALIZED FREE ENERGY PREDICTED BY IDOCK:   -3.83 KCAL/MOL
REMARK 922        TOTAL FREE ENERGY PREDICTED BY IDOCK:   -5.65 KCAL/MOL
REMARK 923 INTER-LIGAND FREE ENERGY PREDICTED BY IDOCK:   -5.13 KCAL/MOL
REMARK 924 INTRA-LIGAND FREE ENERGY PREDICTED BY IDOCK:   -0.53 KCAL/MOL
REMARK 927      BINDING AFFINITY PREDICTED BY RF-SCORE:    0.00 PKD
ROOT
HETATM    1  C   UNL     1     -11.416  11.262  68.543  1.00  0.00    -0.372 C  
HETATM    2  C   UNL     1      -9.926  11.096  68.247  1.00  0.00    -0.187 C  
ENDROOT
BRANCH   2   3
HETATM    3  N   UNL     1      -9.562  11.223  66.825  1.00  0.00    -0.190 NA 
BRANCH   3   4
HETATM    4  C   UNL     1      -8.673  10.146  66.344  1.00  0.00    -0.130 C  
HETATM    5  C   UNL     1      -9.352   8.871  65.842  1.00  0.00    -0.301 C  
ENDBRANCH   3   4
BRANCH   3   6
HETATM    6  C   UNL     1     -10.766  11.326  65.963  1.00  0.00    -0.242 C  
BRANCH   6   7
HETATM    7  C   UNL     1     -10.748  12.449  64.909  1.00  0.00    -0.294 C  
BRANCH   7   8
HETATM    8  N   UNL     1     -10.431  13.741  65.480  1.00  0.00    -0.305 N  
HETATM    9  C   UNL     1     -11.390  14.463  66.159  1.00  0.00    -0.350 C  
HETATM   10  H   UNL     1      -9.489  14.121  65.380  1.00  0.00     0.000 HD 
HETATM   11  O   UNL     1     -12.552  14.088  66.277  1.00  0.00    -0.451 OA 
BRANCH   9  12
HETATM   12  C   UNL     1     -10.952  15.742  66.781  1.00  0.00    -0.192 A  
HETATM   13  C   UNL     1     -10.477  16.814  66.019  1.00  0.00    -0.300 A  
HETATM   14  C   UNL     1     -10.088  18.002  66.648  1.00  0.00    -0.372 A  
HETATM   15  C   UNL     1     -10.134  18.126  68.040  1.00  0.00    -0.367 A  
HETATM   16  C   UNL     1     -10.687  17.083  68.787  1.00  0.00    -0.313 A  
HETATM   17  N   UNL     1      -9.857  19.357  68.645  1.00  0.00    -0.421 NA 
HETATM   18  H2  UNL     1     -10.473  20.061  68.238  1.00  0.00     0.000 HD 
HETATM   19  H1  UNL     1      -9.892  19.448  69.660  1.00  0.00     0.000 HD 
HETATM   20  C   UNL     1     -11.078  15.892  68.167  1.00  0.00    -0.338 A  
ENDBRANCH   9  12
ENDBRANCH   7   8
ENDBRANCH   6   7
ENDBRANCH   3   6
ENDBRANCH   2   3
TORSDOF 6
ENDMDL
MODEL      120
REMARK 921   NORMALIZED FREE ENERGY PREDICTED BY IDOCK:   -3.80 KCAL/MOL
REMARK 922        TOTAL FREE ENERGY PREDICTED BY IDOCK:   -5.62 KCAL/MOL
REMARK 923 INTER-LIGAND FREE ENERGY PREDICTED BY IDOCK:   -4.99 KCAL/MOL
REMARK 924 INTRA-LIGAND FREE ENERGY PREDICTED BY IDOCK:   -0.62 KCAL/MOL
REMARK 927      BINDING AFFINITY PREDICTED BY RF-SCORE:    0.00 PKD
ROOT
HETATM    1  C   UNL     1      -9.723   6.825  74.423  1.00  0.00    -0.309 C  
HETATM    2  C   UNL     1     -10.708   6.260  73.400  1.00  0.00    -0.259 C  
ENDROOT
BRANCH   2   3
HETATM    3  N   UNL     1     -10.630   6.875  72.063  1.00  0.00    -0.210 NA 
BRANCH   3   4
HETATM    4  C   UNL     1     -11.920   7.413  71.584  1.00  0.00    -0.307 C  
HETATM    5  C   UNL     1     -12.485   8.614  72.344  1.00  0.00    -0.428 C  
ENDBRANCH   3   4
BRANCH   3   6
HETATM    6  C   UNL     1      -9.577   7.921  72.008  1.00  0.00    -0.186 C  
BRANCH   6   7
HETATM    7  C   UNL     1      -9.227   8.452  70.606  1.00  0.00    -0.156 C  
BRANCH   7   8
HETATM    8  N   UNL     1      -9.653   9.822  70.409  1.00  0.00    -0.352 N  
HETATM    9  C   UNL     1     -10.605  10.132  69.461  1.00  0.00    -0.245 C  
HETATM   10  H   UNL     1      -9.244  10.565  70.976  1.00  0.00     0.000 HD 
HETATM   11  O   UNL     1     -11.104   9.296  68.714  1.00  0.00    -0.066 OA 
BRANCH   9  12
HETATM   12  C   UNL     1     -11.039  11.553  69.385  1.00  0.00    -0.287 A  
HETATM   13  C   UNL     1     -10.610  12.407  68.365  1.00  0.00    -0.251 A  
HETATM   14  C   UNL     1     -11.055  13.734  68.328  1.00  0.00    -0.279 A  
HETATM   15  C   UNL     1     -11.902  14.235  69.320  1.00  0.00    -0.330 A  
HETATM   16  C   UNL     1     -12.392  13.356  70.289  1.00  0.00    -0.354 A  
HETATM   17  N   UNL     1     -12.433  15.524  69.205  1.00  0.00    -0.593 NA 
HETATM   18  H2  UNL     1     -12.912  15.596  68.307  1.00  0.00     0.000 HD 
HETATM   19  H1  UNL     1     -13.052  15.890  69.929  1.00  0.00     0.000 HD 
HETATM   20  C   UNL     1     -11.952  12.028  70.335  1.00  0.00    -0.379 A  
ENDBRANCH   9  12
ENDBRANCH   7   8
ENDBRANCH   6   7
ENDBRANCH   3   6
ENDBRANCH   2   3
TORSDOF 6
ENDMDL
MODEL      121
REMARK 921   NORMALIZED FREE ENERGY PREDICTED BY IDOCK:   -3.78 KCAL/MOL
REMARK 922        TOTAL FREE ENERGY PREDICTED BY IDOCK:   -5.59 KCAL/MOL
REMARK 923 INTER-LIGAND FREE ENERGY PREDICTED BY IDOCK:   -5.24 KCAL/MOL
REMARK 924 INTRA-LIGAND FREE ENERGY PREDICTED BY IDOCK:   -0.35 KCAL/MOL
REMARK 927      BINDING AFFINITY PREDICTED BY RF-SCORE:    0.00 PKD
ROOT
HETATM    1  C   UNL     1     -10.506  12.761  65.505  1.00  0.00    -0.306 C  
HETATM    2  C   UNL     1     -10.988  13.727  66.587  1.00  0.00    -0.296 C  
ENDROOT
BRANCH   2   3
HETATM    3  N   UNL     1     -10.632  13.338  67.963  1.00  0.00    -0.234 NA 
BRANCH   3   4
HETATM    4  C   UNL     1     -11.537  13.899  68.988  1.00  0.00    -0.310 C  
HETATM    5  C   UNL     1     -11.743  15.414  68.964  1.00  0.00    -0.380 C  
ENDBRANCH   3   4
BRANCH   3   6
HETATM    6  C   UNL     1     -10.541  11.862  68.104  1.00  0.00    -0.208 C  
BRANCH   6   7
HETATM    7  C   UNL     1     -11.812  11.152  68.605  1.00  0.00    -0.287 C  
BRANCH   7   8
HETATM    8  N   UNL     1     -11.520   9.914  69.296  1.00  0.00    -0.452 N  
HETATM    9  C   UNL     1     -11.906   9.734  70.608  1.00  0.00    -0.281 C  
HETATM   10  H   UNL     1     -11.023   9.168  68.809  1.00  0.00     0.000 HD 
HETATM   11  O   UNL     1     -12.465  10.606  71.267  1.00  0.00    -0.358 OA 
BRANCH   9  12
HETATM   12  C   UNL     1     -11.636   8.401  71.211  1.00  0.00    -0.326 A  
HETATM   13  C   UNL     1     -11.606   7.232  70.445  1.00  0.00    -0.253 A  
HETATM   14  C   UNL     1     -11.335   6.002  71.055  1.00  0.00    -0.299 A  
HETATM   15  C   UNL     1     -11.124   5.915  72.434  1.00  0.00    -0.280 A  
HETATM   16  C   UNL     1     -11.074   7.095  73.179  1.00  0.00    -0.302 A  
HETATM   17  N   UNL     1     -10.736   4.700  73.010  1.00  0.00    -0.217 NA 
HETATM   18  H2  UNL     1      -9.895   4.373  72.535  1.00  0.00     0.000 HD 
HETATM   19  H1  UNL     1     -10.582   4.637  74.017  1.00  0.00     0.000 HD 
HETATM   20  C   UNL     1     -11.344   8.330  72.578  1.00  0.00    -0.455 A  
ENDBRANCH   9  12
ENDBRANCH   7   8
ENDBRANCH   6   7
ENDBRANCH   3   6
ENDBRANCH   2   3
TORSDOF 6
ENDMDL
MODEL      122
REMARK 921   NORMALIZED FREE ENERGY PREDICTED BY IDOCK:   -3.78 KCAL/MOL
REMARK 922        TOTAL FREE ENERGY PREDICTED BY IDOCK:   -5.58 KCAL/MOL
REMARK 923 INTER-LIGAND FREE ENERGY PREDICTED BY IDOCK:   -5.27 KCAL/MOL
REMARK 924 INTRA-LIGAND FREE ENERGY PREDICTED BY IDOCK:   -0.31 KCAL/MOL
REMARK 927      BINDING AFFINITY PREDICTED BY RF-SCORE:    0.00 PKD
ROOT
HETATM    1  C   UNL     1     -11.594   7.747  72.936  1.00  0.00    -0.301 C  
HETATM    2  C   UNL     1     -11.077   7.728  71.498  1.00  0.00    -0.236 C  
ENDROOT
BRANCH   2   3
HETATM    3  N   UNL     1      -9.746   8.332  71.314  1.00  0.00    -0.167 NA 
BRANCH   3   4
HETATM    4  C   UNL     1      -8.702   7.357  70.934  1.00  0.00    -0.144 C  
HETATM    5  C   UNL     1      -8.917   6.601  69.622  1.00  0.00    -0.142 C  
ENDBRANCH   3   4
BRANCH   3   6
HETATM    6  C   UNL     1      -9.787   9.453  70.342  1.00  0.00    -0.259 C  
BRANCH   6   7
HETATM    7  C   UNL     1     -11.130  10.198  70.228  1.00  0.00    -0.317 C  
BRANCH   7   8
HETATM    8  N   UNL     1     -10.961  11.599  69.901  1.00  0.00    -0.454 N  
HETATM    9  C   UNL     1     -11.517  12.123  68.754  1.00  0.00    -0.307 C  
HETATM   10  H   UNL     1     -10.427  12.202  70.526  1.00  0.00     0.000 HD 
HETATM   11  O   UNL     1     -12.132  11.445  67.936  1.00  0.00    -0.646 OA 
BRANCH   9  12
HETATM   12  C   UNL     1     -11.362  13.588  68.542  1.00  0.00    -0.327 A  
HETATM   13  C   UNL     1     -11.939  14.528  69.401  1.00  0.00    -0.362 A  
HETATM   14  C   UNL     1     -11.754  15.896  69.168  1.00  0.00    -0.369 A  
HETATM   15  C   UNL     1     -11.025  16.344  68.063  1.00  0.00    -0.327 A  
HETATM   16  C   UNL     1     -10.384  15.401  67.257  1.00  0.00    -0.271 A  
HETATM   17  N   UNL     1     -10.749  17.707  67.910  1.00  0.00    -0.384 NA 
HETATM   18  H2  UNL     1     -10.286  18.038  68.756  1.00  0.00     0.000 HD 
HETATM   19  H1  UNL     1     -10.216  18.035  67.104  1.00  0.00     0.000 HD 
HETATM   20  C   UNL     1     -10.563  14.032  67.481  1.00  0.00    -0.260 A  
ENDBRANCH   9  12
ENDBRANCH   7   8
ENDBRANCH   6   7
ENDBRANCH   3   6
ENDBRANCH   2   3
TORSDOF 6
ENDMDL
MODEL      123
REMARK 921   NORMALIZED FREE ENERGY PREDICTED BY IDOCK:   -3.77 KCAL/MOL
REMARK 922        TOTAL FREE ENERGY PREDICTED BY IDOCK:   -5.58 KCAL/MOL
REMARK 923 INTER-LIGAND FREE ENERGY PREDICTED BY IDOCK:   -5.11 KCAL/MOL
REMARK 924 INTRA-LIGAND FREE ENERGY PREDICTED BY IDOCK:   -0.46 KCAL/MOL
REMARK 927      BINDING AFFINITY PREDICTED BY RF-SCORE:    0.00 PKD
ROOT
HETATM    1  C   UNL     1     -12.219  14.666  64.494  1.00  0.00    -0.473 C  
HETATM    2  C   UNL     1     -12.118  14.292  65.972  1.00  0.00    -0.408 C  
ENDROOT
BRANCH   2   3
HETATM    3  N   UNL     1     -10.765  14.407  66.545  1.00  0.00    -0.301 NA 
BRANCH   3   4
HETATM    4  C   UNL     1     -10.760  14.660  68.001  1.00  0.00    -0.246 C  
HETATM    5  C   UNL     1     -11.651  15.798  68.501  1.00  0.00    -0.367 C  
ENDBRANCH   3   4
BRANCH   3   6
HETATM    6  C   UNL     1      -9.935  13.219  66.222  1.00  0.00    -0.291 C  
BRANCH   6   7
HETATM    7  C   UNL     1     -10.696  11.891  66.049  1.00  0.00    -0.285 C  
BRANCH   7   8
HETATM    8  N   UNL     1     -10.291  10.890  67.013  1.00  0.00    -0.221 N  
HETATM    9  C   UNL     1     -11.042  10.663  68.147  1.00  0.00    -0.285 C  
HETATM   10  H   UNL     1      -9.443  10.347  66.852  1.00  0.00     0.000 HD 
HETATM   11  O   UNL     1     -12.047  11.311  68.426  1.00  0.00    -0.598 OA 
BRANCH   9  12
HETATM   12  C   UNL     1     -10.594   9.560  69.039  1.00  0.00    -0.238 A  
HETATM   13  C   UNL     1     -10.330   8.275  68.556  1.00  0.00    -0.230 A  
HETATM   14  C   UNL     1      -9.899   7.272  69.432  1.00  0.00    -0.163 A  
HETATM   15  C   UNL     1      -9.758   7.525  70.800  1.00  0.00    -0.174 A  
HETATM   16  C   UNL     1      -9.943   8.830  71.262  1.00  0.00    -0.333 A  
HETATM   17  N   UNL     1      -9.212   6.550  71.642  1.00  0.00    -0.144 NA 
HETATM   18  H2  UNL     1      -8.303   6.276  71.270  1.00  0.00     0.000 HD 
HETATM   19  H1  UNL     1      -9.109   6.735  72.640  1.00  0.00     0.000 HD 
HETATM   20  C   UNL     1     -10.375   9.839  70.394  1.00  0.00    -0.354 A  
ENDBRANCH   9  12
ENDBRANCH   7   8
ENDBRANCH   6   7
ENDBRANCH   3   6
ENDBRANCH   2   3
TORSDOF 6
ENDMDL
MODEL      124
REMARK 921   NORMALIZED FREE ENERGY PREDICTED BY IDOCK:   -3.76 KCAL/MOL
REMARK 922        TOTAL FREE ENERGY PREDICTED BY IDOCK:   -5.55 KCAL/MOL
REMARK 923 INTER-LIGAND FREE ENERGY PREDICTED BY IDOCK:   -5.03 KCAL/MOL
REMARK 924 INTRA-LIGAND FREE ENERGY PREDICTED BY IDOCK:   -0.52 KCAL/MOL
REMARK 927      BINDING AFFINITY PREDICTED BY RF-SCORE:    0.00 PKD
ROOT
HETATM    1  C   UNL     1     -11.414  15.599  69.000  1.00  0.00    -0.369 C  
HETATM    2  C   UNL     1     -10.625  16.892  68.797  1.00  0.00    -0.355 C  
ENDROOT
BRANCH   2   3
HETATM    3  N   UNL     1     -10.262  17.179  67.398  1.00  0.00    -0.312 NA 
BRANCH   3   4
HETATM    4  C   UNL     1      -8.831  17.498  67.213  1.00  0.00    -0.231 C  
HETATM    5  C   UNL     1      -8.507  18.865  66.610  1.00  0.00    -0.308 C  
ENDBRANCH   3   4
BRANCH   3   6
HETATM    6  C   UNL     1     -10.668  16.073  66.494  1.00  0.00    -0.238 C  
BRANCH   6   7
HETATM    7  C   UNL     1      -9.524  15.331  65.779  1.00  0.00    -0.275 C  
BRANCH   7   8
HETATM    8  N   UNL     1      -9.721  13.897  65.757  1.00  0.00    -0.483 N  
HETATM    9  C   UNL     1      -9.260  13.109  66.791  1.00  0.00    -0.230 C  
HETATM   10  H   UNL     1     -10.206  13.465  64.970  1.00  0.00     0.000 HD 
HETATM   11  O   UNL     1      -8.630  13.556  67.744  1.00  0.00    -0.158 OA 
BRANCH   9  12
HETATM   12  C   UNL     1      -9.580  11.657  66.722  1.00  0.00    -0.207 A  
HETATM   13  C   UNL     1      -9.249  10.876  65.610  1.00  0.00    -0.227 A  
HETATM   14  C   UNL     1      -9.559   9.511  65.596  1.00  0.00    -0.346 A  
HETATM   15  C   UNL     1     -10.228   8.916  66.669  1.00  0.00    -0.268 A  
HETATM   16  C   UNL     1     -10.482   9.682  67.809  1.00  0.00    -0.309 A  
HETATM   17  N   UNL     1     -10.424   7.531  66.693  1.00  0.00    -0.511 NA 
HETATM   18  H2  UNL     1      -9.517   7.076  66.588  1.00  0.00     0.000 HD 
HETATM   19  H1  UNL     1     -10.912   7.096  67.477  1.00  0.00     0.000 HD 
HETATM   20  C   UNL     1     -10.176  11.047  67.832  1.00  0.00    -0.207 A  
ENDBRANCH   9  12
ENDBRANCH   7   8
ENDBRANCH   6   7
ENDBRANCH   3   6
ENDBRANCH   2   3
TORSDOF 6
ENDMDL
MODEL      125
REMARK 921   NORMALIZED FREE ENERGY PREDICTED BY IDOCK:   -3.76 KCAL/MOL
REMARK 922        TOTAL FREE ENERGY PREDICTED BY IDOCK:   -5.55 KCAL/MOL
REMARK 923 INTER-LIGAND FREE ENERGY PREDICTED BY IDOCK:   -5.06 KCAL/MOL
REMARK 924 INTRA-LIGAND FREE ENERGY PREDICTED BY IDOCK:   -0.49 KCAL/MOL
REMARK 927      BINDING AFFINITY PREDICTED BY RF-SCORE:    0.00 PKD
ROOT
HETATM    1  C   UNL     1     -12.407  12.535  64.250  1.00  0.00    -0.541 C  
HETATM    2  C   UNL     1     -11.137  13.376  64.132  1.00  0.00    -0.327 C  
ENDROOT
BRANCH   2   3
HETATM    3  N   UNL     1     -10.846  14.220  65.305  1.00  0.00    -0.333 NA 
BRANCH   3   4
HETATM    4  C   UNL     1     -10.808  15.665  64.999  1.00  0.00    -0.450 C  
HETATM    5  C   UNL     1     -10.303  16.587  66.109  1.00  0.00    -0.344 C  
ENDBRANCH   3   4
BRANCH   3   6
HETATM    6  C   UNL     1     -11.791  13.949  66.417  1.00  0.00    -0.411 C  
BRANCH   6   7
HETATM    7  C   UNL     1     -11.166  13.422  67.721  1.00  0.00    -0.279 C  
BRANCH   7   8
HETATM    8  N   UNL     1     -10.618  12.089  67.575  1.00  0.00    -0.217 N  
HETATM    9  C   UNL     1     -11.346  10.985  67.965  1.00  0.00    -0.306 C  
HETATM   10  H   UNL     1      -9.686  11.966  67.180  1.00  0.00     0.000 HD 
HETATM   11  O   UNL     1     -12.453  11.062  68.490  1.00  0.00    -0.440 OA 
BRANCH   9  12
HETATM   12  C   UNL     1     -10.738   9.652  67.702  1.00  0.00    -0.324 A  
HETATM   13  C   UNL     1      -9.969   9.399  66.561  1.00  0.00    -0.339 A  
HETATM   14  C   UNL     1      -9.406   8.133  66.363  1.00  0.00    -0.269 A  
HETATM   15  C   UNL     1      -9.627   7.098  67.276  1.00  0.00    -0.143 A  
HETATM   16  C   UNL     1     -10.326   7.380  68.453  1.00  0.00    -0.224 A  
HETATM   17  N   UNL     1      -8.962   5.877  67.128  1.00  0.00    -0.114 NA 
HETATM   18  H2  UNL     1      -7.959   6.059  67.085  1.00  0.00     0.000 HD 
HETATM   19  H1  UNL     1      -9.123   5.121  67.794  1.00  0.00     0.000 HD 
HETATM   20  C   UNL     1     -10.893   8.642  68.659  1.00  0.00    -0.003 A  
ENDBRANCH   9  12
ENDBRANCH   7   8
ENDBRANCH   6   7
ENDBRANCH   3   6
ENDBRANCH   2   3
TORSDOF 6
ENDMDL
MODEL      126
REMARK 921   NORMALIZED FREE ENERGY PREDICTED BY IDOCK:   -3.75 KCAL/MOL
REMARK 922        TOTAL FREE ENERGY PREDICTED BY IDOCK:   -5.54 KCAL/MOL
REMARK 923 INTER-LIGAND FREE ENERGY PREDICTED BY IDOCK:   -5.17 KCAL/MOL
REMARK 924 INTRA-LIGAND FREE ENERGY PREDICTED BY IDOCK:   -0.37 KCAL/MOL
REMARK 927      BINDING AFFINITY PREDICTED BY RF-SCORE:    0.00 PKD
ROOT
HETATM    1  C   UNL     1     -10.329   6.935  67.272  1.00  0.00    -0.320 C  
HETATM    2  C   UNL     1     -10.195   8.374  66.777  1.00  0.00    -0.306 C  
ENDROOT
BRANCH   2   3
HETATM    3  N   UNL     1     -10.681   9.398  67.718  1.00  0.00    -0.257 NA 
BRANCH   3   4
HETATM    4  C   UNL     1      -9.935   9.431  68.993  1.00  0.00    -0.177 C  
HETATM    5  C   UNL     1     -10.754   9.244  70.271  1.00  0.00    -0.284 C  
ENDBRANCH   3   4
BRANCH   3   6
HETATM    6  C   UNL     1     -10.701  10.745  67.094  1.00  0.00    -0.272 C  
BRANCH   6   7
HETATM    7  C   UNL     1     -11.749  11.729  67.645  1.00  0.00    -0.250 C  
BRANCH   7   8
HETATM    8  N   UNL     1     -11.231  13.074  67.779  1.00  0.00    -0.265 N  
HETATM    9  C   UNL     1     -11.429  14.006  66.782  1.00  0.00    -0.363 C  
HETATM   10  H   UNL     1     -10.714  13.335  68.619  1.00  0.00     0.000 HD 
HETATM   11  O   UNL     1     -12.000  13.747  65.727  1.00  0.00    -0.357 OA 
BRANCH   9  12
HETATM   12  C   UNL     1     -10.932  15.384  67.042  1.00  0.00    -0.306 A  
HETATM   13  C   UNL     1     -10.479  16.216  66.013  1.00  0.00    -0.349 A  
HETATM   14  C   UNL     1     -10.032  17.510  66.305  1.00  0.00    -0.316 A  
HETATM   15  C   UNL     1      -9.997  17.978  67.622  1.00  0.00    -0.329 A  
HETATM   16  C   UNL     1     -10.527  17.173  68.633  1.00  0.00    -0.366 A  
HETATM   17  N   UNL     1      -9.662  19.310  67.885  1.00  0.00    -0.322 NA 
HETATM   18  H2  UNL     1     -10.286  19.911  67.346  1.00  0.00     0.000 HD 
HETATM   19  H1  UNL     1      -9.638  19.653  68.846  1.00  0.00     0.000 HD 
HETATM   20  C   UNL     1     -10.976  15.878  68.351  1.00  0.00    -0.331 A  
ENDBRANCH   9  12
ENDBRANCH   7   8
ENDBRANCH   6   7
ENDBRANCH   3   6
ENDBRANCH   2   3
TORSDOF 6
ENDMDL
MODEL      127
REMARK 921   NORMALIZED FREE ENERGY PREDICTED BY IDOCK:   -3.75 KCAL/MOL
REMARK 922        TOTAL FREE ENERGY PREDICTED BY IDOCK:   -5.54 KCAL/MOL
REMARK 923 INTER-LIGAND FREE ENERGY PREDICTED BY IDOCK:   -5.12 KCAL/MOL
REMARK 924 INTRA-LIGAND FREE ENERGY PREDICTED BY IDOCK:   -0.42 KCAL/MOL
REMARK 927      BINDING AFFINITY PREDICTED BY RF-SCORE:    0.00 PKD
ROOT
HETATM    1  C   UNL     1      -9.288  10.922  64.009  1.00  0.00    -0.266 C  
HETATM    2  C   UNL     1     -10.461  11.302  64.911  1.00  0.00    -0.314 C  
ENDROOT
BRANCH   2   3
HETATM    3  N   UNL     1     -10.318  12.599  65.595  1.00  0.00    -0.269 NA 
BRANCH   3   4
HETATM    4  C   UNL     1     -11.076  13.693  64.953  1.00  0.00    -0.351 C  
HETATM    5  C   UNL     1     -12.547  13.830  65.349  1.00  0.00    -0.534 C  
ENDBRANCH   3   4
BRANCH   3   6
HETATM    6  C   UNL     1     -10.672  12.496  67.034  1.00  0.00    -0.242 C  
BRANCH   6   7
HETATM    7  C   UNL     1      -9.564  11.974  67.966  1.00  0.00    -0.199 C  
BRANCH   7   8
HETATM    8  N   UNL     1     -10.065  11.043  68.956  1.00  0.00    -0.286 N  
HETATM    9  C   UNL     1      -9.920   9.683  68.778  1.00  0.00    -0.173 C  
HETATM   10  H   UNL     1     -10.530  11.397  69.792  1.00  0.00     0.000 HD 
HETATM   11  O   UNL     1      -9.413   9.189  67.776  1.00  0.00    -0.138 OA 
BRANCH   9  12
HETATM   12  C   UNL     1     -10.392   8.808  69.885  1.00  0.00    -0.212 A  
HETATM   13  C   UNL     1     -10.727   9.317  71.143  1.00  0.00    -0.403 A  
HETATM   14  C   UNL     1     -11.179   8.455  72.150  1.00  0.00    -0.431 A  
HETATM   15  C   UNL     1     -11.271   7.078  71.928  1.00  0.00    -0.249 A  
HETATM   16  C   UNL     1     -11.014   6.587  70.646  1.00  0.00    -0.340 A  
HETATM   17  N   UNL     1     -11.836   6.246  72.901  1.00  0.00    -0.476 NA 
HETATM   18  H2  UNL     1     -12.767   6.599  73.124  1.00  0.00     0.000 HD 
HETATM   19  H1  UNL     1     -11.904   5.241  72.739  1.00  0.00     0.000 HD 
HETATM   20  C   UNL     1     -10.561   7.440  69.634  1.00  0.00    -0.243 A  
ENDBRANCH   9  12
ENDBRANCH   7   8
ENDBRANCH   6   7
ENDBRANCH   3   6
ENDBRANCH   2   3
TORSDOF 6
ENDMDL
MODEL      128
REMARK 921   NORMALIZED FREE ENERGY PREDICTED BY IDOCK:   -3.74 KCAL/MOL
REMARK 922        TOTAL FREE ENERGY PREDICTED BY IDOCK:   -5.54 KCAL/MOL
REMARK 923 INTER-LIGAND FREE ENERGY PREDICTED BY IDOCK:   -5.08 KCAL/MOL
REMARK 924 INTRA-LIGAND FREE ENERGY PREDICTED BY IDOCK:   -0.45 KCAL/MOL
REMARK 927      BINDING AFFINITY PREDICTED BY RF-SCORE:    0.00 PKD
ROOT
HETATM    1  C   UNL     1      -9.753   4.030  66.658  1.00  0.00    -0.215 C  
HETATM    2  C   UNL     1     -10.066   5.145  67.655  1.00  0.00    -0.157 C  
ENDROOT
BRANCH   2   3
HETATM    3  N   UNL     1      -9.004   5.405  68.643  1.00  0.00    -0.106 NA 
BRANCH   3   4
HETATM    4  C   UNL     1      -7.910   6.253  68.124  1.00  0.00    -0.104 C  
HETATM    5  C   UNL     1      -7.856   7.692  68.641  1.00  0.00    -0.121 C  
ENDBRANCH   3   4
BRANCH   3   6
HETATM    6  C   UNL     1      -9.555   5.978  69.896  1.00  0.00    -0.158 C  
BRANCH   6   7
HETATM    7  C   UNL     1     -11.081   6.184  69.930  1.00  0.00    -0.410 C  
BRANCH   7   8
HETATM    8  N   UNL     1     -11.451   7.584  69.952  1.00  0.00    -0.480 N  
HETATM    9  C   UNL     1     -11.863   8.182  71.125  1.00  0.00    -0.279 C  
HETATM   10  H   UNL     1     -11.407   8.133  69.094  1.00  0.00     0.000 HD 
HETATM   11  O   UNL     1     -11.984   7.571  72.182  1.00  0.00    -0.290 OA 
BRANCH   9  12
HETATM   12  C   UNL     1     -12.146   9.642  71.070  1.00  0.00    -0.421 A  
HETATM   13  C   UNL     1     -12.978  10.273  72.001  1.00  0.00    -0.503 A  
HETATM   14  C   UNL     1     -13.204  11.651  71.917  1.00  0.00    -0.475 A  
HETATM   15  C   UNL     1     -12.635  12.411  70.890  1.00  0.00    -0.246 A  
HETATM   16  C   UNL     1     -11.740  11.791  70.015  1.00  0.00    -0.386 A  
HETATM   17  N   UNL     1     -12.772  13.803  70.889  1.00  0.00    -0.336 NA 
HETATM   18  H2  UNL     1     -12.431  14.161  71.781  1.00  0.00     0.000 HD 
HETATM   19  H1  UNL     1     -12.356  14.358  70.140  1.00  0.00     0.000 HD 
HETATM   20  C   UNL     1     -11.509  10.413  70.090  1.00  0.00    -0.396 A  
ENDBRANCH   9  12
ENDBRANCH   7   8
ENDBRANCH   6   7
ENDBRANCH   3   6
ENDBRANCH   2   3
TORSDOF 6
ENDMDL
MODEL      129
REMARK 921   NORMALIZED FREE ENERGY PREDICTED BY IDOCK:   -3.74 KCAL/MOL
REMARK 922        TOTAL FREE ENERGY PREDICTED BY IDOCK:   -5.53 KCAL/MOL
REMARK 923 INTER-LIGAND FREE ENERGY PREDICTED BY IDOCK:   -4.81 KCAL/MOL
REMARK 924 INTRA-LIGAND FREE ENERGY PREDICTED BY IDOCK:   -0.71 KCAL/MOL
REMARK 927      BINDING AFFINITY PREDICTED BY RF-SCORE:    0.00 PKD
ROOT
HETATM    1  C   UNL     1     -10.703   5.912  67.222  1.00  0.00    -0.380 C  
HETATM    2  C   UNL     1     -10.938   6.391  68.654  1.00  0.00    -0.330 C  
ENDROOT
BRANCH   2   3
HETATM    3  N   UNL     1     -10.308   7.681  68.984  1.00  0.00    -0.211 NA 
BRANCH   3   4
HETATM    4  C   UNL     1     -10.999   8.418  70.062  1.00  0.00    -0.194 C  
HETATM    5  C   UNL     1     -11.014   9.943  69.948  1.00  0.00    -0.321 C  
ENDBRANCH   3   4
BRANCH   3   6
HETATM    6  C   UNL     1      -8.868   7.515  69.309  1.00  0.00    -0.136 C  
BRANCH   6   7
HETATM    7  C   UNL     1      -7.875   8.138  68.312  1.00  0.00    -0.122 C  
BRANCH   7   8
HETATM    8  N   UNL     1      -8.498   9.118  67.447  1.00  0.00    -0.115 N  
HETATM    9  C   UNL     1      -8.571   8.907  66.086  1.00  0.00    -0.140 C  
HETATM   10  H   UNL     1      -8.886   9.972  67.848  1.00  0.00     0.000 HD 
HETATM   11  O   UNL     1      -8.085   7.925  65.533  1.00  0.00    -0.114 OA 
BRANCH   9  12
HETATM   12  C   UNL     1      -9.301   9.928  65.287  1.00  0.00    -0.309 A  
HETATM   13  C   UNL     1      -9.323   9.900  63.889  1.00  0.00    -0.262 A  
HETATM   14  C   UNL     1     -10.034  10.876  63.180  1.00  0.00    -0.368 A  
HETATM   15  C   UNL     1     -10.699  11.907  63.849  1.00  0.00    -0.395 A  
HETATM   16  C   UNL     1     -10.741  11.883  65.245  1.00  0.00    -0.331 A  
HETATM   17  N   UNL     1     -11.502  12.804  63.136  1.00  0.00    -0.795 NA 
HETATM   18  H2  UNL     1     -12.189  12.269  62.605  1.00  0.00     0.000 HD 
HETATM   19  H1  UNL     1     -11.988  13.557  63.624  1.00  0.00     0.000 HD 
HETATM   20  C   UNL     1     -10.034  10.912  65.962  1.00  0.00    -0.290 A  
ENDBRANCH   9  12
ENDBRANCH   7   8
ENDBRANCH   6   7
ENDBRANCH   3   6
ENDBRANCH   2   3
TORSDOF 6
ENDMDL
MODEL      130
REMARK 921   NORMALIZED FREE ENERGY PREDICTED BY IDOCK:   -3.73 KCAL/MOL
REMARK 922        TOTAL FREE ENERGY PREDICTED BY IDOCK:   -5.52 KCAL/MOL
REMARK 923 INTER-LIGAND FREE ENERGY PREDICTED BY IDOCK:   -5.10 KCAL/MOL
REMARK 924 INTRA-LIGAND FREE ENERGY PREDICTED BY IDOCK:   -0.41 KCAL/MOL
REMARK 927      BINDING AFFINITY PREDICTED BY RF-SCORE:    0.00 PKD
ROOT
HETATM    1  C   UNL     1      -9.156  11.349  65.988  1.00  0.00    -0.218 C  
HETATM    2  C   UNL     1     -10.155  10.298  66.469  1.00  0.00    -0.231 C  
ENDROOT
BRANCH   2   3
HETATM    3  N   UNL     1     -10.779  10.591  67.772  1.00  0.00    -0.250 NA 
BRANCH   3   4
HETATM    4  C   UNL     1     -10.431   9.616  68.827  1.00  0.00    -0.215 C  
HETATM    5  C   UNL     1      -9.283  10.000  69.761  1.00  0.00    -0.227 C  
ENDBRANCH   3   4
BRANCH   3   6
HETATM    6  C   UNL     1     -10.475  11.973  68.221  1.00  0.00    -0.204 C  
BRANCH   6   7
HETATM    7  C   UNL     1     -11.671  12.940  68.285  1.00  0.00    -0.350 C  
BRANCH   7   8
HETATM    8  N   UNL     1     -11.261  14.329  68.298  1.00  0.00    -0.264 N  
HETATM    9  C   UNL     1     -11.096  15.023  67.117  1.00  0.00    -0.332 C  
HETATM   10  H   UNL     1     -11.092  14.799  69.188  1.00  0.00     0.000 HD 
HETATM   11  O   UNL     1     -11.236  14.508  66.012  1.00  0.00    -0.326 OA 
BRANCH   9  12
HETATM   12  C   UNL     1     -10.752  16.466  67.229  1.00  0.00    -0.257 A  
HETATM   13  C   UNL     1     -10.549  17.087  68.466  1.00  0.00    -0.370 A  
HETATM   14  C   UNL     1     -10.215  18.445  68.521  1.00  0.00    -0.394 A  
HETATM   15  C   UNL     1     -10.113  19.208  67.354  1.00  0.00    -0.379 A  
HETATM   16  C   UNL     1     -10.236  18.564  66.120  1.00  0.00    -0.424 A  
HETATM   17  N   UNL     1      -9.662  20.531  67.416  1.00  0.00    -0.455 NA 
HETATM   18  H2  UNL     1      -8.757  20.540  67.887  1.00  0.00     0.000 HD 
HETATM   19  H1  UNL     1      -9.587  21.087  66.564  1.00  0.00     0.000 HD 
HETATM   20  C   UNL     1     -10.571  17.207  66.055  1.00  0.00    -0.205 A  
ENDBRANCH   9  12
ENDBRANCH   7   8
ENDBRANCH   6   7
ENDBRANCH   3   6
ENDBRANCH   2   3
TORSDOF 6
ENDMDL
MODEL      131
REMARK 921   NORMALIZED FREE ENERGY PREDICTED BY IDOCK:   -3.73 KCAL/MOL
REMARK 922        TOTAL FREE ENERGY PREDICTED BY IDOCK:   -5.51 KCAL/MOL
REMARK 923 INTER-LIGAND FREE ENERGY PREDICTED BY IDOCK:   -5.16 KCAL/MOL
REMARK 924 INTRA-LIGAND FREE ENERGY PREDICTED BY IDOCK:   -0.35 KCAL/MOL
REMARK 927      BINDING AFFINITY PREDICTED BY RF-SCORE:    0.00 PKD
ROOT
HETATM    1  C   UNL     1     -11.951   9.347  71.775  1.00  0.00    -0.452 C  
HETATM    2  C   UNL     1     -13.038  10.420  71.806  1.00  0.00    -0.462 C  
ENDROOT
BRANCH   2   3
HETATM    3  N   UNL     1     -12.856  11.512  70.833  1.00  0.00    -0.255 NA 
BRANCH   3   4
HETATM    4  C   UNL     1     -12.906  12.859  71.440  1.00  0.00    -0.283 C  
HETATM    5  C   UNL     1     -12.181  13.976  70.688  1.00  0.00    -0.442 C  
ENDBRANCH   3   4
BRANCH   3   6
HETATM    6  C   UNL     1     -11.604  11.341  70.054  1.00  0.00    -0.321 C  
BRANCH   6   7
HETATM    7  C   UNL     1     -11.777  11.124  68.539  1.00  0.00    -0.298 C  
BRANCH   7   8
HETATM    8  N   UNL     1     -11.445   9.775  68.130  1.00  0.00    -0.456 N  
HETATM    9  C   UNL     1     -10.469   9.548  67.183  1.00  0.00    -0.253 C  
HETATM   10  H   UNL     1     -11.939   8.985  68.547  1.00  0.00     0.000 HD 
HETATM   11  O   UNL     1      -9.870  10.452  66.609  1.00  0.00    -0.187 OA 
BRANCH   9  12
HETATM   12  C   UNL     1     -10.140   8.128  66.885  1.00  0.00    -0.367 A  
HETATM   13  C   UNL     1     -10.952   7.072  67.312  1.00  0.00    -0.372 A  
HETATM   14  C   UNL     1     -10.608   5.753  66.996  1.00  0.00    -0.373 A  
HETATM   15  C   UNL     1      -9.439   5.465  66.286  1.00  0.00    -0.157 A  
HETATM   16  C   UNL     1      -8.677   6.527  65.793  1.00  0.00    -0.129 A  
HETATM   17  N   UNL     1      -9.171   4.155  65.875  1.00  0.00    -0.139 NA 
HETATM   18  H2  UNL     1      -9.967   3.818  65.335  1.00  0.00     0.000 HD 
HETATM   19  H1  UNL     1      -8.318   3.945  65.356  1.00  0.00     0.000 HD 
HETATM   20  C   UNL     1      -9.012   7.849  66.103  1.00  0.00    -0.214 A  
ENDBRANCH   9  12
ENDBRANCH   7   8
ENDBRANCH   6   7
ENDBRANCH   3   6
ENDBRANCH   2   3
TORSDOF 6
ENDMDL
MODEL      132
REMARK 921   NORMALIZED FREE ENERGY PREDICTED BY IDOCK:   -3.71 KCAL/MOL
REMARK 922        TOTAL FREE ENERGY PREDICTED BY IDOCK:   -5.49 KCAL/MOL
REMARK 923 INTER-LIGAND FREE ENERGY PREDICTED BY IDOCK:   -5.11 KCAL/MOL
REMARK 924 INTRA-LIGAND FREE ENERGY PREDICTED BY IDOCK:   -0.38 KCAL/MOL
REMARK 927      BINDING AFFINITY PREDICTED BY RF-SCORE:    0.00 PKD
ROOT
HETATM    1  C   UNL     1     -10.205  19.789  69.445  1.00  0.00    -0.139 C  
HETATM    2  C   UNL     1      -9.904  20.464  68.107  1.00  0.00    -0.180 C  
ENDROOT
BRANCH   2   3
HETATM    3  N   UNL     1      -8.633  20.055  67.483  1.00  0.00    -0.332 NA 
BRANCH   3   4
HETATM    4  C   UNL     1      -7.783  19.225  68.362  1.00  0.00    -0.327 C  
HETATM    5  C   UNL     1      -7.271  17.909  67.775  1.00  0.00    -0.211 C  
ENDBRANCH   3   4
BRANCH   3   6
HETATM    6  C   UNL     1      -8.861  19.371  66.185  1.00  0.00    -0.283 C  
BRANCH   6   7
HETATM    7  C   UNL     1     -10.307  18.927  65.901  1.00  0.00    -0.355 C  
BRANCH   7   8
HETATM    8  N   UNL     1     -10.698  17.774  66.686  1.00  0.00    -0.199 N  
HETATM    9  C   UNL     1     -10.527  16.498  66.193  1.00  0.00    -0.294 C  
HETATM   10  H   UNL     1     -11.103  17.908  67.613  1.00  0.00     0.000 HD 
HETATM   11  O   UNL     1     -10.089  16.267  65.069  1.00  0.00    -0.484 OA 
BRANCH   9  12
HETATM   12  C   UNL     1     -10.881  15.374  67.101  1.00  0.00    -0.321 A  
HETATM   13  C   UNL     1     -11.523  14.221  66.640  1.00  0.00    -0.374 A  
HETATM   14  C   UNL     1     -11.825  13.184  67.530  1.00  0.00    -0.409 A  
HETATM   15  C   UNL     1     -11.524  13.295  68.890  1.00  0.00    -0.298 A  
HETATM   16  C   UNL     1     -10.810  14.413  69.329  1.00  0.00    -0.261 A  
HETATM   17  N   UNL     1     -11.722  12.205  69.745  1.00  0.00    -0.405 NA 
HETATM   18  H2  UNL     1     -11.215  11.404  69.368  1.00  0.00     0.000 HD 
HETATM   19  H1  UNL     1     -11.502  12.286  70.738  1.00  0.00     0.000 HD 
HETATM   20  C   UNL     1     -10.504  15.454  68.447  1.00  0.00    -0.239 A  
ENDBRANCH   9  12
ENDBRANCH   7   8
ENDBRANCH   6   7
ENDBRANCH   3   6
ENDBRANCH   2   3
TORSDOF 6
ENDMDL
MODEL      133
REMARK 921   NORMALIZED FREE ENERGY PREDICTED BY IDOCK:   -3.69 KCAL/MOL
REMARK 922        TOTAL FREE ENERGY PREDICTED BY IDOCK:   -5.46 KCAL/MOL
REMARK 923 INTER-LIGAND FREE ENERGY PREDICTED BY IDOCK:   -4.91 KCAL/MOL
REMARK 924 INTRA-LIGAND FREE ENERGY PREDICTED BY IDOCK:   -0.54 KCAL/MOL
REMARK 927      BINDING AFFINITY PREDICTED BY RF-SCORE:    0.00 PKD
ROOT
HETATM    1  C   UNL     1     -10.401  17.647  67.851  1.00  0.00    -0.371 C  
HETATM    2  C   UNL     1      -9.716  16.598  66.975  1.00  0.00    -0.249 C  
ENDROOT
BRANCH   2   3
HETATM    3  N   UNL     1     -10.487  15.357  66.783  1.00  0.00    -0.293 NA 
BRANCH   3   4
HETATM    4  C   UNL     1     -11.552  15.161  67.789  1.00  0.00    -0.289 C  
HETATM    5  C   UNL     1     -11.253  14.176  68.920  1.00  0.00    -0.294 C  
ENDBRANCH   3   4
BRANCH   3   6
HETATM    6  C   UNL     1     -11.047  15.272  65.411  1.00  0.00    -0.347 C  
BRANCH   6   7
HETATM    7  C   UNL     1     -10.656  14.024  64.598  1.00  0.00    -0.395 C  
BRANCH   7   8
HETATM    8  N   UNL     1     -10.074  12.985  65.423  1.00  0.00    -0.391 N  
HETATM    9  C   UNL     1     -10.878  12.071  66.070  1.00  0.00    -0.289 C  
HETATM   10  H   UNL     1      -9.061  12.929  65.525  1.00  0.00     0.000 HD 
HETATM   11  O   UNL     1     -12.104  12.108  66.028  1.00  0.00    -0.612 OA 
BRANCH   9  12
HETATM   12  C   UNL     1     -10.191  10.991  66.829  1.00  0.00    -0.272 A  
HETATM   13  C   UNL     1     -10.893  10.073  67.616  1.00  0.00    -0.336 A  
HETATM   14  C   UNL     1     -10.204   9.066  68.301  1.00  0.00    -0.241 A  
HETATM   15  C   UNL     1      -8.810   8.981  68.240  1.00  0.00    -0.134 A  
HETATM   16  C   UNL     1      -8.123   9.848  67.387  1.00  0.00    -0.113 A  
HETATM   17  N   UNL     1      -8.146   7.901  68.831  1.00  0.00    -0.123 NA 
HETATM   18  H2  UNL     1      -8.538   7.037  68.455  1.00  0.00     0.000 HD 
HETATM   19  H1  UNL     1      -7.128   7.838  68.786  1.00  0.00     0.000 HD 
HETATM   20  C   UNL     1      -8.803  10.858  66.699  1.00  0.00    -0.164 A  
ENDBRANCH   9  12
ENDBRANCH   7   8
ENDBRANCH   6   7
ENDBRANCH   3   6
ENDBRANCH   2   3
TORSDOF 6
ENDMDL
MODEL      134
REMARK 921   NORMALIZED FREE ENERGY PREDICTED BY IDOCK:   -3.65 KCAL/MOL
REMARK 922        TOTAL FREE ENERGY PREDICTED BY IDOCK:   -5.41 KCAL/MOL
REMARK 923 INTER-LIGAND FREE ENERGY PREDICTED BY IDOCK:   -4.83 KCAL/MOL
REMARK 924 INTRA-LIGAND FREE ENERGY PREDICTED BY IDOCK:   -0.58 KCAL/MOL
REMARK 927      BINDING AFFINITY PREDICTED BY RF-SCORE:    0.00 PKD
ROOT
HETATM    1  C   UNL     1      -7.976   7.022  66.288  1.00  0.00    -0.114 C  
HETATM    2  C   UNL     1      -8.525   7.247  67.697  1.00  0.00    -0.116 C  
ENDROOT
BRANCH   2   3
HETATM    3  N   UNL     1      -8.993   8.618  67.965  1.00  0.00    -0.141 NA 
BRANCH   3   4
HETATM    4  C   UNL     1      -8.143   9.355  68.923  1.00  0.00    -0.103 C  
HETATM    5  C   UNL     1      -8.735   9.609  70.310  1.00  0.00    -0.248 C  
ENDBRANCH   3   4
BRANCH   3   6
HETATM    6  C   UNL     1      -9.151   9.393  66.708  1.00  0.00    -0.140 C  
BRANCH   6   7
HETATM    7  C   UNL     1     -10.521  10.063  66.497  1.00  0.00    -0.153 C  
BRANCH   7   8
HETATM    8  N   UNL     1     -11.135  10.477  67.742  1.00  0.00    -0.309 N  
HETATM    9  C   UNL     1     -11.137  11.804  68.116  1.00  0.00    -0.243 C  
HETATM   10  H   UNL     1     -11.569   9.780  68.347  1.00  0.00     0.000 HD 
HETATM   11  O   UNL     1     -10.593  12.686  67.459  1.00  0.00    -0.218 OA 
BRANCH   9  12
HETATM   12  C   UNL     1     -11.860  12.146  69.370  1.00  0.00    -0.370 A  
HETATM   13  C   UNL     1     -12.352  11.164  70.235  1.00  0.00    -0.397 A  
HETATM   14  C   UNL     1     -13.016  11.535  71.411  1.00  0.00    -0.450 A  
HETATM   15  C   UNL     1     -13.227  12.881  71.722  1.00  0.00    -0.384 A  
HETATM   16  C   UNL     1     -12.662  13.856  70.896  1.00  0.00    -0.410 A  
HETATM   17  N   UNL     1     -13.784  13.238  72.955  1.00  0.00    -0.626 NA 
HETATM   18  H2  UNL     1     -13.220  12.821  73.695  1.00  0.00     0.000 HD 
HETATM   19  H1  UNL     1     -13.939  14.220  73.182  1.00  0.00     0.000 HD 
HETATM   20  C   UNL     1     -11.998  13.495  69.719  1.00  0.00    -0.405 A  
ENDBRANCH   9  12
ENDBRANCH   7   8
ENDBRANCH   6   7
ENDBRANCH   3   6
ENDBRANCH   2   3
TORSDOF 6
ENDMDL
MODEL      135
REMARK 921   NORMALIZED FREE ENERGY PREDICTED BY IDOCK:   -3.65 KCAL/MOL
REMARK 922        TOTAL FREE ENERGY PREDICTED BY IDOCK:   -5.41 KCAL/MOL
REMARK 923 INTER-LIGAND FREE ENERGY PREDICTED BY IDOCK:   -5.08 KCAL/MOL
REMARK 924 INTRA-LIGAND FREE ENERGY PREDICTED BY IDOCK:   -0.33 KCAL/MOL
REMARK 927      BINDING AFFINITY PREDICTED BY RF-SCORE:    0.00 PKD
ROOT
HETATM    1  C   UNL     1      -7.629   8.521  69.933  1.00  0.00    -0.071 C  
HETATM    2  C   UNL     1      -8.714   9.186  70.779  1.00  0.00    -0.236 C  
ENDROOT
BRANCH   2   3
HETATM    3  N   UNL     1     -10.093   8.925  70.329  1.00  0.00    -0.181 NA 
BRANCH   3   4
HETATM    4  C   UNL     1     -10.968   8.386  71.391  1.00  0.00    -0.253 C  
HETATM    5  C   UNL     1     -12.230   9.189  71.711  1.00  0.00    -0.442 C  
ENDBRANCH   3   4
BRANCH   3   6
HETATM    6  C   UNL     1     -10.702  10.133  69.717  1.00  0.00    -0.279 C  
BRANCH   6   7
HETATM    7  C   UNL     1     -10.564  10.258  68.189  1.00  0.00    -0.221 C  
BRANCH   7   8
HETATM    8  N   UNL     1     -10.255  11.609  67.769  1.00  0.00    -0.183 N  
HETATM    9  C   UNL     1     -11.149  12.328  67.004  1.00  0.00    -0.287 C  
HETATM   10  H   UNL     1      -9.367  12.032  68.040  1.00  0.00     0.000 HD 
HETATM   11  O   UNL     1     -12.213  11.865  66.604  1.00  0.00    -0.493 OA 
BRANCH   9  12
HETATM   12  C   UNL     1     -10.782  13.735  66.688  1.00  0.00    -0.277 A  
HETATM   13  C   UNL     1     -11.013  14.298  65.428  1.00  0.00    -0.335 A  
HETATM   14  C   UNL     1     -10.662  15.630  65.182  1.00  0.00    -0.463 A  
HETATM   15  C   UNL     1     -10.049  16.406  66.169  1.00  0.00    -0.346 A  
HETATM   16  C   UNL     1      -9.897  15.864  67.448  1.00  0.00    -0.234 A  
HETATM   17  N   UNL     1      -9.814  17.767  65.948  1.00  0.00    -0.550 NA 
HETATM   18  H2  UNL     1     -10.697  18.209  65.694  1.00  0.00     0.000 HD 
HETATM   19  H1  UNL     1      -9.367  18.334  66.669  1.00  0.00     0.000 HD 
HETATM   20  C   UNL     1     -10.244  14.534  67.704  1.00  0.00    -0.225 A  
ENDBRANCH   9  12
ENDBRANCH   7   8
ENDBRANCH   6   7
ENDBRANCH   3   6
ENDBRANCH   2   3
TORSDOF 6
ENDMDL
MODEL      136
REMARK 921   NORMALIZED FREE ENERGY PREDICTED BY IDOCK:   -3.65 KCAL/MOL
REMARK 922        TOTAL FREE ENERGY PREDICTED BY IDOCK:   -5.41 KCAL/MOL
REMARK 923 INTER-LIGAND FREE ENERGY PREDICTED BY IDOCK:   -4.92 KCAL/MOL
REMARK 924 INTRA-LIGAND FREE ENERGY PREDICTED BY IDOCK:   -0.49 KCAL/MOL
REMARK 927      BINDING AFFINITY PREDICTED BY RF-SCORE:    0.00 PKD
ROOT
HETATM    1  C   UNL     1     -10.434  14.269  65.578  1.00  0.00    -0.361 C  
HETATM    2  C   UNL     1     -11.059  15.192  66.623  1.00  0.00    -0.308 C  
ENDROOT
BRANCH   2   3
HETATM    3  N   UNL     1     -10.127  15.671  67.659  1.00  0.00    -0.245 NA 
BRANCH   3   4
HETATM    4  C   UNL     1      -9.904  17.132  67.623  1.00  0.00    -0.270 C  
HETATM    5  C   UNL     1      -9.631  17.749  66.251  1.00  0.00    -0.256 C  
ENDBRANCH   3   4
BRANCH   3   6
HETATM    6  C   UNL     1     -10.555  15.244  69.015  1.00  0.00    -0.245 C  
BRANCH   6   7
HETATM    7  C   UNL     1     -11.694  14.210  69.068  1.00  0.00    -0.324 C  
BRANCH   7   8
HETATM    8  N   UNL     1     -11.214  12.869  69.335  1.00  0.00    -0.429 N  
HETATM    9  C   UNL     1     -11.473  11.843  68.451  1.00  0.00    -0.299 C  
HETATM   10  H   UNL     1     -10.680  12.684  70.184  1.00  0.00     0.000 HD 
HETATM   11  O   UNL     1     -12.147  11.986  67.436  1.00  0.00    -0.566 OA 
BRANCH   9  12
HETATM   12  C   UNL     1     -10.872  10.519  68.767  1.00  0.00    -0.269 A  
HETATM   13  C   UNL     1     -10.376  10.212  70.038  1.00  0.00    -0.301 A  
HETATM   14  C   UNL     1      -9.830   8.948  70.291  1.00  0.00    -0.211 A  
HETATM   15  C   UNL     1      -9.741   7.989  69.278  1.00  0.00    -0.167 A  
HETATM   16  C   UNL     1     -10.312   8.272  68.035  1.00  0.00    -0.268 A  
HETATM   17  N   UNL     1      -9.305   6.693  69.575  1.00  0.00    -0.146 NA 
HETATM   18  H2  UNL     1      -9.892   6.319  70.321  1.00  0.00     0.000 HD 
HETATM   19  H1  UNL     1      -9.240   5.992  68.836  1.00  0.00     0.000 HD 
HETATM   20  C   UNL     1     -10.859   9.533  67.773  1.00  0.00    -0.258 A  
ENDBRANCH   9  12
ENDBRANCH   7   8
ENDBRANCH   6   7
ENDBRANCH   3   6
ENDBRANCH   2   3
TORSDOF 6
ENDMDL
MODEL      137
REMARK 921   NORMALIZED FREE ENERGY PREDICTED BY IDOCK:   -3.61 KCAL/MOL
REMARK 922        TOTAL FREE ENERGY PREDICTED BY IDOCK:   -5.36 KCAL/MOL
REMARK 923 INTER-LIGAND FREE ENERGY PREDICTED BY IDOCK:   -5.06 KCAL/MOL
REMARK 924 INTRA-LIGAND FREE ENERGY PREDICTED BY IDOCK:   -0.30 KCAL/MOL
REMARK 927      BINDING AFFINITY PREDICTED BY RF-SCORE:    0.00 PKD
ROOT
HETATM    1  C   UNL     1     -11.760  15.718  68.960  1.00  0.00    -0.405 C  
HETATM    2  C   UNL     1     -11.453  14.225  68.851  1.00  0.00    -0.286 C  
ENDROOT
BRANCH   2   3
HETATM    3  N   UNL     1     -11.886  13.598  67.589  1.00  0.00    -0.361 NA 
BRANCH   3   4
HETATM    4  C   UNL     1     -11.545  14.389  66.389  1.00  0.00    -0.375 C  
HETATM    5  C   UNL     1     -12.219  13.972  65.080  1.00  0.00    -0.446 C  
ENDBRANCH   3   4
BRANCH   3   6
HETATM    6  C   UNL     1     -11.364  12.213  67.464  1.00  0.00    -0.326 C  
BRANCH   6   7
HETATM    7  C   UNL     1     -11.710  11.255  68.618  1.00  0.00    -0.324 C  
BRANCH   7   8
HETATM    8  N   UNL     1     -11.436   9.871  68.292  1.00  0.00    -0.520 N  
HETATM    9  C   UNL     1     -10.443   9.178  68.952  1.00  0.00    -0.218 C  
HETATM   10  H   UNL     1     -11.981   9.405  67.567  1.00  0.00     0.000 HD 
HETATM   11  O   UNL     1      -9.719   9.689  69.801  1.00  0.00    -0.195 OA 
BRANCH   9  12
HETATM   12  C   UNL     1     -10.287   7.738  68.607  1.00  0.00    -0.221 A  
HETATM   13  C   UNL     1     -10.015   6.768  69.577  1.00  0.00    -0.172 A  
HETATM   14  C   UNL     1      -9.889   5.424  69.206  1.00  0.00    -0.249 A  
HETATM   15  C   UNL     1      -9.997   5.035  67.868  1.00  0.00    -0.138 A  
HETATM   16  C   UNL     1     -10.350   5.996  66.918  1.00  0.00    -0.303 A  
HETATM   17  N   UNL     1      -9.989   3.678  67.528  1.00  0.00    -0.140 NA 
HETATM   18  H2  UNL     1     -10.721   3.208  68.061  1.00  0.00     0.000 HD 
HETATM   19  H1  UNL     1     -10.068   3.393  66.552  1.00  0.00     0.000 HD 
HETATM   20  C   UNL     1     -10.478   7.342  67.278  1.00  0.00    -0.380 A  
ENDBRANCH   9  12
ENDBRANCH   7   8
ENDBRANCH   6   7
ENDBRANCH   3   6
ENDBRANCH   2   3
TORSDOF 6
ENDMDL
MODEL      138
REMARK 921   NORMALIZED FREE ENERGY PREDICTED BY IDOCK:   -3.60 KCAL/MOL
REMARK 922        TOTAL FREE ENERGY PREDICTED BY IDOCK:   -5.34 KCAL/MOL
REMARK 923 INTER-LIGAND FREE ENERGY PREDICTED BY IDOCK:   -4.94 KCAL/MOL
REMARK 924 INTRA-LIGAND FREE ENERGY PREDICTED BY IDOCK:   -0.41 KCAL/MOL
REMARK 927      BINDING AFFINITY PREDICTED BY RF-SCORE:    0.00 PKD
ROOT
HETATM    1  C   UNL     1     -10.884   5.594  69.954  1.00  0.00    -0.370 C  
HETATM    2  C   UNL     1     -10.165   6.763  70.626  1.00  0.00    -0.195 C  
ENDROOT
BRANCH   2   3
HETATM    3  N   UNL     1      -9.572   7.740  69.696  1.00  0.00    -0.163 NA 
BRANCH   3   4
HETATM    4  C   UNL     1      -8.160   8.058  69.994  1.00  0.00    -0.116 C  
HETATM    5  C   UNL     1      -7.829   8.410  71.445  1.00  0.00    -0.137 C  
ENDBRANCH   3   4
BRANCH   3   6
HETATM    6  C   UNL     1      -9.720   7.304  68.284  1.00  0.00    -0.147 C  
BRANCH   6   7
HETATM    7  C   UNL     1     -10.743   8.086  67.440  1.00  0.00    -0.190 C  
BRANCH   7   8
HETATM    8  N   UNL     1     -11.108   9.351  68.043  1.00  0.00    -0.513 N  
HETATM    9  C   UNL     1     -10.946  10.532  67.349  1.00  0.00    -0.288 C  
HETATM   10  H   UNL     1     -11.489   9.369  68.989  1.00  0.00     0.000 HD 
HETATM   11  O   UNL     1     -10.452  10.587  66.227  1.00  0.00    -0.235 OA 
BRANCH   9  12
HETATM   12  C   UNL     1     -11.423  11.773  68.016  1.00  0.00    -0.388 A  
HETATM   13  C   UNL     1     -11.773  12.918  67.292  1.00  0.00    -0.431 A  
HETATM   14  C   UNL     1     -12.229  14.058  67.963  1.00  0.00    -0.188 A  
HETATM   15  C   UNL     1     -12.311  14.086  69.358  1.00  0.00    -0.205 A  
HETATM   16  C   UNL     1     -12.039  12.914  70.069  1.00  0.00    -0.357 A  
HETATM   17  N   UNL     1     -12.880  15.187  70.007  1.00  0.00    -0.628 NA 
HETATM   18  H2  UNL     1     -13.815  15.336  69.627  1.00  0.00     0.000 HD 
HETATM   19  H1  UNL     1     -12.940  15.208  71.025  1.00  0.00     0.000 HD 
HETATM   20  C   UNL     1     -11.582  11.770  69.407  1.00  0.00    -0.386 A  
ENDBRANCH   9  12
ENDBRANCH   7   8
ENDBRANCH   6   7
ENDBRANCH   3   6
ENDBRANCH   2   3
TORSDOF 6
ENDMDL
MODEL      139
REMARK 921   NORMALIZED FREE ENERGY PREDICTED BY IDOCK:   -3.58 KCAL/MOL
REMARK 922        TOTAL FREE ENERGY PREDICTED BY IDOCK:   -5.31 KCAL/MOL
REMARK 923 INTER-LIGAND FREE ENERGY PREDICTED BY IDOCK:   -4.79 KCAL/MOL
REMARK 924 INTRA-LIGAND FREE ENERGY PREDICTED BY IDOCK:   -0.52 KCAL/MOL
REMARK 927      BINDING AFFINITY PREDICTED BY RF-SCORE:    0.00 PKD
ROOT
HETATM    1  C   UNL     1     -11.706  11.852  69.649  1.00  0.00    -0.413 C  
HETATM    2  C   UNL     1     -10.449  12.570  69.162  1.00  0.00     0.110 C  
ENDROOT
BRANCH   2   3
HETATM    3  N   UNL     1     -10.357  12.728  67.700  1.00  0.00    -0.218 NA 
BRANCH   3   4
HETATM    4  C   UNL     1      -9.657  11.613  67.028  1.00  0.00    -0.184 C  
HETATM    5  C   UNL     1     -10.483  10.775  66.051  1.00  0.00    -0.273 C  
ENDBRANCH   3   4
BRANCH   3   6
HETATM    6  C   UNL     1     -11.694  12.943  67.091  1.00  0.00    -0.377 C  
BRANCH   6   7
HETATM    7  C   UNL     1     -12.143  14.409  66.949  1.00  0.00    -0.356 C  
BRANCH   7   8
HETATM    8  N   UNL     1     -11.057  15.344  67.153  1.00  0.00    -0.318 N  
HETATM    9  C   UNL     1     -11.048  16.181  68.249  1.00  0.00    -0.348 C  
HETATM   10  H   UNL     1     -10.291  15.384  66.481  1.00  0.00     0.000 HD 
HETATM   11  O   UNL     1     -11.959  16.219  69.071  1.00  0.00    -0.223 OA 
BRANCH   9  12
HETATM   12  C   UNL     1      -9.853  17.051  68.420  1.00  0.00    -0.283 A  
HETATM   13  C   UNL     1      -9.949  18.446  68.461  1.00  0.00    -0.415 A  
HETATM   14  C   UNL     1      -8.798  19.222  68.636  1.00  0.00    -0.415 A  
HETATM   15  C   UNL     1      -7.538  18.625  68.738  1.00  0.00    -0.298 A  
HETATM   16  C   UNL     1      -7.459  17.231  68.779  1.00  0.00    -0.260 A  
HETATM   17  N   UNL     1      -6.413  19.404  69.032  1.00  0.00    -0.284 NA 
HETATM   18  H2  UNL     1      -6.596  19.920  69.893  1.00  0.00     0.000 HD 
HETATM   19  H1  UNL     1      -5.494  18.968  69.107  1.00  0.00     0.000 HD 
HETATM   20  C   UNL     1      -8.604  16.446  68.605  1.00  0.00    -0.237 A  
ENDBRANCH   9  12
ENDBRANCH   7   8
ENDBRANCH   6   7
ENDBRANCH   3   6
ENDBRANCH   2   3
TORSDOF 6
ENDMDL
MODEL      140
REMARK 921   NORMALIZED FREE ENERGY PREDICTED BY IDOCK:   -3.58 KCAL/MOL
REMARK 922        TOTAL FREE ENERGY PREDICTED BY IDOCK:   -5.31 KCAL/MOL
REMARK 923 INTER-LIGAND FREE ENERGY PREDICTED BY IDOCK:   -4.87 KCAL/MOL
REMARK 924 INTRA-LIGAND FREE ENERGY PREDICTED BY IDOCK:   -0.44 KCAL/MOL
REMARK 927      BINDING AFFINITY PREDICTED BY RF-SCORE:    0.00 PKD
ROOT
HETATM    1  C   UNL     1      -8.348   7.947  69.971  1.00  0.00    -0.121 C  
HETATM    2  C   UNL     1      -8.373   7.051  68.733  1.00  0.00    -0.122 C  
ENDROOT
BRANCH   2   3
HETATM    3  N   UNL     1      -9.436   6.030  68.733  1.00  0.00    -0.124 NA 
BRANCH   3   4
HETATM    4  C   UNL     1      -9.517   5.261  69.992  1.00  0.00    -0.160 C  
HETATM    5  C   UNL     1      -9.612   3.740  69.860  1.00  0.00    -0.255 C  
ENDBRANCH   3   4
BRANCH   3   6
HETATM    6  C   UNL     1     -10.757   6.622  68.400  1.00  0.00    -0.258 C  
BRANCH   6   7
HETATM    7  C   UNL     1     -10.757   7.693  67.293  1.00  0.00    -0.274 C  
BRANCH   7   8
HETATM    8  N   UNL     1     -11.144   8.999  67.785  1.00  0.00    -0.456 N  
HETATM    9  C   UNL     1     -10.468  10.130  67.380  1.00  0.00    -0.256 C  
HETATM   10  H   UNL     1     -11.925   9.082  68.437  1.00  0.00     0.000 HD 
HETATM   11  O   UNL     1      -9.493  10.098  66.635  1.00  0.00    -0.161 OA 
BRANCH   9  12
HETATM   12  C   UNL     1     -10.988  11.435  67.872  1.00  0.00    -0.295 A  
HETATM   13  C   UNL     1     -11.353  11.632  69.208  1.00  0.00    -0.353 A  
HETATM   14  C   UNL     1     -11.825  12.881  69.627  1.00  0.00    -0.387 A  
HETATM   15  C   UNL     1     -11.971  13.935  68.721  1.00  0.00    -0.358 A  
HETATM   16  C   UNL     1     -11.528  13.756  67.408  1.00  0.00    -0.372 A  
HETATM   17  N   UNL     1     -12.329  15.208  69.176  1.00  0.00    -0.592 NA 
HETATM   18  H2  UNL     1     -11.663  15.492  69.895  1.00  0.00     0.000 HD 
HETATM   19  H1  UNL     1     -12.436  15.978  68.515  1.00  0.00     0.000 HD 
HETATM   20  C   UNL     1     -11.055  12.511  66.979  1.00  0.00    -0.326 A  
ENDBRANCH   9  12
ENDBRANCH   7   8
ENDBRANCH   6   7
ENDBRANCH   3   6
ENDBRANCH   2   3
TORSDOF 6
ENDMDL
MODEL      141
REMARK 921   NORMALIZED FREE ENERGY PREDICTED BY IDOCK:   -3.57 KCAL/MOL
REMARK 922        TOTAL FREE ENERGY PREDICTED BY IDOCK:   -5.30 KCAL/MOL
REMARK 923 INTER-LIGAND FREE ENERGY PREDICTED BY IDOCK:   -4.88 KCAL/MOL
REMARK 924 INTRA-LIGAND FREE ENERGY PREDICTED BY IDOCK:   -0.42 KCAL/MOL
REMARK 927      BINDING AFFINITY PREDICTED BY RF-SCORE:    0.00 PKD
ROOT
HETATM    1  C   UNL     1     -12.028  12.318  69.966  1.00  0.00    -0.379 C  
HETATM    2  C   UNL     1     -11.261  13.462  69.306  1.00  0.00    -0.219 C  
ENDROOT
BRANCH   2   3
HETATM    3  N   UNL     1     -12.082  14.349  68.463  1.00  0.00    -0.290 NA 
BRANCH   3   4
HETATM    4  C   UNL     1     -11.651  15.762  68.498  1.00  0.00    -0.362 C  
HETATM    5  C   UNL     1     -10.608  16.134  69.553  1.00  0.00    -0.306 C  
ENDBRANCH   3   4
BRANCH   3   6
HETATM    6  C   UNL     1     -12.146  13.861  67.062  1.00  0.00    -0.415 C  
BRANCH   6   7
HETATM    7  C   UNL     1     -10.891  14.103  66.204  1.00  0.00    -0.296 C  
BRANCH   7   8
HETATM    8  N   UNL     1     -10.293  12.870  65.735  1.00  0.00    -0.280 N  
HETATM    9  C   UNL     1     -10.465  12.459  64.431  1.00  0.00    -0.344 C  
HETATM   10  H   UNL     1      -9.739  12.302  66.376  1.00  0.00     0.000 HD 
HETATM   11  O   UNL     1     -11.156  13.070  63.621  1.00  0.00    -0.383 OA 
BRANCH   9  12
HETATM   12  C   UNL     1      -9.747  11.223  64.017  1.00  0.00    -0.301 A  
HETATM   13  C   UNL     1      -9.545  10.896  62.672  1.00  0.00    -0.290 A  
HETATM   14  C   UNL     1      -8.853   9.729  62.331  1.00  0.00    -0.263 A  
HETATM   15  C   UNL     1      -8.385   8.857  63.319  1.00  0.00    -0.180 A  
HETATM   16  C   UNL     1      -8.518   9.230  64.658  1.00  0.00    -0.192 A  
HETATM   17  N   UNL     1      -7.593   7.759  62.968  1.00  0.00    -0.118 NA 
HETATM   18  H2  UNL     1      -6.793   8.097  62.432  1.00  0.00     0.000 HD 
HETATM   19  H1  UNL     1      -7.250   7.123  63.689  1.00  0.00     0.000 HD 
HETATM   20  C   UNL     1      -9.208  10.395  65.009  1.00  0.00    -0.256 A  
ENDBRANCH   9  12
ENDBRANCH   7   8
ENDBRANCH   6   7
ENDBRANCH   3   6
ENDBRANCH   2   3
TORSDOF 6
ENDMDL
MODEL      142
REMARK 921   NORMALIZED FREE ENERGY PREDICTED BY IDOCK:   -3.56 KCAL/MOL
REMARK 922        TOTAL FREE ENERGY PREDICTED BY IDOCK:   -5.29 KCAL/MOL
REMARK 923 INTER-LIGAND FREE ENERGY PREDICTED BY IDOCK:   -5.57 KCAL/MOL
REMARK 924 INTRA-LIGAND FREE ENERGY PREDICTED BY IDOCK:    0.28 KCAL/MOL
REMARK 927      BINDING AFFINITY PREDICTED BY RF-SCORE:    0.00 PKD
ROOT
HETATM    1  C   UNL     1     -11.984  12.790  69.419  1.00  0.00    -0.321 C  
HETATM    2  C   UNL     1     -10.921  13.414  68.515  1.00  0.00    -0.268 C  
ENDROOT
BRANCH   2   3
HETATM    3  N   UNL     1     -10.508  12.572  67.378  1.00  0.00    -0.218 NA 
BRANCH   3   4
HETATM    4  C   UNL     1     -10.285  11.157  67.741  1.00  0.00    -0.180 C  
HETATM    5  C   UNL     1      -8.980  10.834  68.469  1.00  0.00    -0.160 C  
ENDBRANCH   3   4
BRANCH   3   6
HETATM    6  C   UNL     1     -11.467  12.674  66.250  1.00  0.00    -0.364 C  
BRANCH   6   7
HETATM    7  C   UNL     1     -11.929  14.096  65.883  1.00  0.00    -0.409 C  
BRANCH   7   8
HETATM    8  N   UNL     1     -10.987  15.112  66.307  1.00  0.00    -0.340 N  
HETATM    9  C   UNL     1     -10.759  16.226  65.527  1.00  0.00    -0.313 C  
HETATM   10  H   UNL     1     -10.488  15.001  67.189  1.00  0.00     0.000 HD 
HETATM   11  O   UNL     1     -11.289  16.400  64.434  1.00  0.00    -0.784 OA 
BRANCH   9  12
HETATM   12  C   UNL     1      -9.837  17.255  66.081  1.00  0.00    -0.269 A  
HETATM   13  C   UNL     1     -10.288  18.515  66.486  1.00  0.00    -0.447 A  
HETATM   14  C   UNL     1      -9.384  19.446  67.012  1.00  0.00    -0.393 A  
HETATM   15  C   UNL     1      -8.022  19.148  67.110  1.00  0.00    -0.259 A  
HETATM   16  C   UNL     1      -7.593  17.860  66.782  1.00  0.00    -0.247 A  
HETATM   17  N   UNL     1      -7.153  20.040  67.747  1.00  0.00    -0.271 NA 
HETATM   18  H2  UNL     1      -7.510  20.224  68.685  1.00  0.00     0.000 HD 
HETATM   19  H1  UNL     1      -6.158  19.823  67.820  1.00  0.00     0.000 HD 
HETATM   20  C   UNL     1      -8.488  16.923  66.254  1.00  0.00    -0.322 A  
ENDBRANCH   9  12
ENDBRANCH   7   8
ENDBRANCH   6   7
ENDBRANCH   3   6
ENDBRANCH   2   3
TORSDOF 6
ENDMDL
MODEL      143
REMARK 921   NORMALIZED FREE ENERGY PREDICTED BY IDOCK:   -3.55 KCAL/MOL
REMARK 922        TOTAL FREE ENERGY PREDICTED BY IDOCK:   -5.28 KCAL/MOL
REMARK 923 INTER-LIGAND FREE ENERGY PREDICTED BY IDOCK:   -4.98 KCAL/MOL
REMARK 924 INTRA-LIGAND FREE ENERGY PREDICTED BY IDOCK:   -0.30 KCAL/MOL
REMARK 927      BINDING AFFINITY PREDICTED BY RF-SCORE:    0.00 PKD
ROOT
HETATM    1  C   UNL     1     -14.290  14.026  72.016  1.00  0.00    -0.548 C  
HETATM    2  C   UNL     1     -12.965  13.375  71.620  1.00  0.00    -0.355 C  
ENDROOT
BRANCH   2   3
HETATM    3  N   UNL     1     -12.501  13.700  70.260  1.00  0.00    -0.299 NA 
BRANCH   3   4
HETATM    4  C   UNL     1     -11.790  14.992  70.172  1.00  0.00    -0.314 C  
HETATM    5  C   UNL     1     -11.733  15.650  68.792  1.00  0.00    -0.382 C  
ENDBRANCH   3   4
BRANCH   3   6
HETATM    6  C   UNL     1     -11.666  12.609  69.696  1.00  0.00    -0.303 C  
BRANCH   6   7
HETATM    7  C   UNL     1     -12.150  11.175  69.978  1.00  0.00    -0.359 C  
BRANCH   7   8
HETATM    8  N   UNL     1     -11.655  10.221  69.007  1.00  0.00    -0.482 N  
HETATM    9  C   UNL     1     -10.504   9.502  69.252  1.00  0.00    -0.212 C  
HETATM   10  H   UNL     1     -12.163  10.080  68.133  1.00  0.00     0.000 HD 
HETATM   11  O   UNL     1      -9.820   9.655  70.260  1.00  0.00    -0.241 OA 
BRANCH   9  12
HETATM   12  C   UNL     1     -10.117   8.488  68.235  1.00  0.00    -0.225 A  
HETATM   13  C   UNL     1     -10.315   7.118  68.439  1.00  0.00    -0.220 A  
HETATM   14  C   UNL     1      -9.946   6.202  67.447  1.00  0.00    -0.166 A  
HETATM   15  C   UNL     1      -9.347   6.632  66.260  1.00  0.00    -0.105 A  
HETATM   16  C   UNL     1      -9.227   8.005  66.028  1.00  0.00    -0.179 A  
HETATM   17  N   UNL     1      -9.093   5.719  65.230  1.00  0.00    -0.359 NA 
HETATM   18  H2  UNL     1      -9.967   5.247  64.997  1.00  0.00     0.000 HD 
HETATM   19  H1  UNL     1      -8.656   6.032  64.363  1.00  0.00     0.000 HD 
HETATM   20  C   UNL     1      -9.593   8.928  67.013  1.00  0.00    -0.232 A  
ENDBRANCH   9  12
ENDBRANCH   7   8
ENDBRANCH   6   7
ENDBRANCH   3   6
ENDBRANCH   2   3
TORSDOF 6
ENDMDL
MODEL      144
REMARK 921   NORMALIZED FREE ENERGY PREDICTED BY IDOCK:   -3.55 KCAL/MOL
REMARK 922        TOTAL FREE ENERGY PREDICTED BY IDOCK:   -5.28 KCAL/MOL
REMARK 923 INTER-LIGAND FREE ENERGY PREDICTED BY IDOCK:   -4.96 KCAL/MOL
REMARK 924 INTRA-LIGAND FREE ENERGY PREDICTED BY IDOCK:   -0.32 KCAL/MOL
REMARK 927      BINDING AFFINITY PREDICTED BY RF-SCORE:    0.00 PKD
ROOT
HETATM    1  C   UNL     1     -12.410  14.313  71.320  1.00  0.00    -0.439 C  
HETATM    2  C   UNL     1     -12.248  15.574  70.471  1.00  0.00    -0.404 C  
ENDROOT
BRANCH   2   3
HETATM    3  N   UNL     1     -11.475  15.386  69.231  1.00  0.00    -0.309 NA 
BRANCH   3   4
HETATM    4  C   UNL     1     -10.955  16.647  68.663  1.00  0.00    -0.328 C  
HETATM    5  C   UNL     1     -10.621  16.640  67.170  1.00  0.00    -0.264 C  
ENDBRANCH   3   4
BRANCH   3   6
HETATM    6  C   UNL     1     -10.374  14.409  69.420  1.00  0.00    -0.030 C  
BRANCH   6   7
HETATM    7  C   UNL     1     -10.334  13.236  68.423  1.00  0.00    -0.251 C  
BRANCH   7   8
HETATM    8  N   UNL     1     -10.290  11.948  69.083  1.00  0.00    -0.420 N  
HETATM    9  C   UNL     1     -10.993  10.875  68.576  1.00  0.00    -0.230 C  
HETATM   10  H   UNL     1      -9.735  11.833  69.931  1.00  0.00     0.000 HD 
HETATM   11  O   UNL     1     -11.716  10.955  67.588  1.00  0.00    -0.566 OA 
BRANCH   9  12
HETATM   12  C   UNL     1     -10.824   9.572  69.274  1.00  0.00    -0.211 A  
HETATM   13  C   UNL     1     -10.321   8.441  68.623  1.00  0.00    -0.222 A  
HETATM   14  C   UNL     1     -10.168   7.240  69.324  1.00  0.00    -0.193 A  
HETATM   15  C   UNL     1     -10.543   7.139  70.667  1.00  0.00    -0.225 A  
HETATM   16  C   UNL     1     -10.967   8.292  71.332  1.00  0.00    -0.301 A  
HETATM   17  N   UNL     1     -10.274   5.970  71.386  1.00  0.00    -0.200 NA 
HETATM   18  H2  UNL     1      -9.276   5.771  71.315  1.00  0.00     0.000 HD 
HETATM   19  H1  UNL     1     -10.547   5.896  72.366  1.00  0.00     0.000 HD 
HETATM   20  C   UNL     1     -11.124   9.498  70.639  1.00  0.00    -0.364 A  
ENDBRANCH   9  12
ENDBRANCH   7   8
ENDBRANCH   6   7
ENDBRANCH   3   6
ENDBRANCH   2   3
TORSDOF 6
ENDMDL
MODEL      145
REMARK 921   NORMALIZED FREE ENERGY PREDICTED BY IDOCK:   -3.55 KCAL/MOL
REMARK 922        TOTAL FREE ENERGY PREDICTED BY IDOCK:   -5.27 KCAL/MOL
REMARK 923 INTER-LIGAND FREE ENERGY PREDICTED BY IDOCK:   -4.88 KCAL/MOL
REMARK 924 INTRA-LIGAND FREE ENERGY PREDICTED BY IDOCK:   -0.39 KCAL/MOL
REMARK 927      BINDING AFFINITY PREDICTED BY RF-SCORE:    0.00 PKD
ROOT
HETATM    1  C   UNL     1     -10.995  15.979  69.495  1.00  0.00    -0.326 C  
HETATM    2  C   UNL     1      -9.968  14.860  69.327  1.00  0.00    -0.175 C  
ENDROOT
BRANCH   2   3
HETATM    3  N   UNL     1     -10.489  13.635  68.693  1.00  0.00    -0.243 NA 
BRANCH   3   4
HETATM    4  C   UNL     1     -11.840  13.797  68.117  1.00  0.00    -0.376 C  
HETATM    5  C   UNL     1     -11.915  14.089  66.618  1.00  0.00    -0.473 C  
ENDBRANCH   3   4
BRANCH   3   6
HETATM    6  C   UNL     1      -9.549  13.111  67.671  1.00  0.00    -0.210 C  
BRANCH   6   7
HETATM    7  C   UNL     1      -9.454  11.578  67.565  1.00  0.00    -0.169 C  
BRANCH   7   8
HETATM    8  N   UNL     1      -9.535  10.927  68.857  1.00  0.00    -0.251 N  
HETATM    9  C   UNL     1     -10.356   9.833  69.040  1.00  0.00    -0.208 C  
HETATM   10  H   UNL     1      -8.981  11.280  69.637  1.00  0.00     0.000 HD 
HETATM   11  O   UNL     1     -11.083   9.385  68.159  1.00  0.00    -0.106 OA 
BRANCH   9  12
HETATM   12  C   UNL     1     -10.314   9.181  70.377  1.00  0.00    -0.269 A  
HETATM   13  C   UNL     1     -11.475   8.911  71.108  1.00  0.00    -0.364 A  
HETATM   14  C   UNL     1     -11.386   8.283  72.356  1.00  0.00    -0.457 A  
HETATM   15  C   UNL     1     -10.145   7.948  72.905  1.00  0.00    -0.310 A  
HETATM   16  C   UNL     1      -8.997   8.145  72.135  1.00  0.00    -0.246 A  
HETATM   17  N   UNL     1     -10.078   7.216  74.095  1.00  0.00    -0.442 NA 
HETATM   18  H2  UNL     1     -10.619   6.359  73.976  1.00  0.00     0.000 HD 
HETATM   19  H1  UNL     1      -9.173   6.971  74.496  1.00  0.00     0.000 HD 
HETATM   20  C   UNL     1      -9.075   8.772  70.886  1.00  0.00    -0.256 A  
ENDBRANCH   9  12
ENDBRANCH   7   8
ENDBRANCH   6   7
ENDBRANCH   3   6
ENDBRANCH   2   3
TORSDOF 6
ENDMDL
MODEL      146
REMARK 921   NORMALIZED FREE ENERGY PREDICTED BY IDOCK:   -3.52 KCAL/MOL
REMARK 922        TOTAL FREE ENERGY PREDICTED BY IDOCK:   -5.23 KCAL/MOL
REMARK 923 INTER-LIGAND FREE ENERGY PREDICTED BY IDOCK:   -4.79 KCAL/MOL
REMARK 924 INTRA-LIGAND FREE ENERGY PREDICTED BY IDOCK:   -0.44 KCAL/MOL
REMARK 927      BINDING AFFINITY PREDICTED BY RF-SCORE:    0.00 PKD
ROOT
HETATM    1  C   UNL     1     -11.505   5.834  72.461  1.00  0.00    -0.349 C  
HETATM    2  C   UNL     1     -10.364   6.777  72.081  1.00  0.00    -0.200 C  
ENDROOT
BRANCH   2   3
HETATM    3  N   UNL     1      -9.973   6.731  70.661  1.00  0.00    -0.187 NA 
BRANCH   3   4
HETATM    4  C   UNL     1      -8.642   6.130  70.435  1.00  0.00    -0.134 C  
HETATM    5  C   UNL     1      -8.393   4.759  71.064  1.00  0.00    -0.102 C  
ENDBRANCH   3   4
BRANCH   3   6
HETATM    6  C   UNL     1     -10.999   6.044  69.837  1.00  0.00    -0.388 C  
BRANCH   6   7
HETATM    7  C   UNL     1     -10.833   6.168  68.312  1.00  0.00    -0.306 C  
BRANCH   7   8
HETATM    8  N   UNL     1     -10.969   7.533  67.848  1.00  0.00    -0.487 N  
HETATM    9  C   UNL     1      -9.990   8.109  67.066  1.00  0.00    -0.259 C  
HETATM   10  H   UNL     1     -11.796   8.073  68.102  1.00  0.00     0.000 HD 
HETATM   11  O   UNL     1      -8.949   7.533  66.763  1.00  0.00    -0.132 OA 
BRANCH   9  12
HETATM   12  C   UNL     1     -10.252   9.487  66.569  1.00  0.00    -0.307 A  
HETATM   13  C   UNL     1      -9.947   9.875  65.261  1.00  0.00    -0.320 A  
HETATM   14  C   UNL     1     -10.224  11.179  64.834  1.00  0.00    -0.361 A  
HETATM   15  C   UNL     1     -10.773  12.119  65.710  1.00  0.00    -0.267 A  
HETATM   16  C   UNL     1     -11.151  11.703  66.989  1.00  0.00    -0.359 A  
HETATM   17  N   UNL     1     -11.155  13.380  65.239  1.00  0.00    -0.287 NA 
HETATM   18  H2  UNL     1     -11.800  13.250  64.460  1.00  0.00     0.000 HD 
HETATM   19  H1  UNL     1     -11.556  14.067  65.878  1.00  0.00     0.000 HD 
HETATM   20  C   UNL     1     -10.878  10.402  67.425  1.00  0.00    -0.344 A  
ENDBRANCH   9  12
ENDBRANCH   7   8
ENDBRANCH   6   7
ENDBRANCH   3   6
ENDBRANCH   2   3
TORSDOF 6
ENDMDL
MODEL      147
REMARK 921   NORMALIZED FREE ENERGY PREDICTED BY IDOCK:   -3.51 KCAL/MOL
REMARK 922        TOTAL FREE ENERGY PREDICTED BY IDOCK:   -5.22 KCAL/MOL
REMARK 923 INTER-LIGAND FREE ENERGY PREDICTED BY IDOCK:   -4.69 KCAL/MOL
REMARK 924 INTRA-LIGAND FREE ENERGY PREDICTED BY IDOCK:   -0.54 KCAL/MOL
REMARK 927      BINDING AFFINITY PREDICTED BY RF-SCORE:    0.00 PKD
ROOT
HETATM    1  C   UNL     1      -6.812   7.992  68.047  1.00  0.00    -0.072 C  
HETATM    2  C   UNL     1      -7.885   9.009  68.432  1.00  0.00    -0.103 C  
ENDROOT
BRANCH   2   3
HETATM    3  N   UNL     1      -8.749   9.445  67.320  1.00  0.00    -0.128 NA 
BRANCH   3   4
HETATM    4  C   UNL     1      -8.313   8.941  66.001  1.00  0.00    -0.124 C  
HETATM    5  C   UNL     1      -7.944   9.994  64.955  1.00  0.00    -0.140 C  
ENDBRANCH   3   4
BRANCH   3   6
HETATM    6  C   UNL     1     -10.170   9.092  67.566  1.00  0.00    -0.245 C  
BRANCH   6   7
HETATM    7  C   UNL     1     -11.135  10.276  67.758  1.00  0.00    -0.269 C  
BRANCH   7   8
HETATM    8  N   UNL     1     -10.523  11.549  67.437  1.00  0.00    -0.202 N  
HETATM    9  C   UNL     1     -11.183  12.464  66.644  1.00  0.00    -0.315 C  
HETATM   10  H   UNL     1      -9.596  11.770  67.800  1.00  0.00     0.000 HD 
HETATM   11  O   UNL     1     -12.279  12.245  66.136  1.00  0.00    -0.647 OA 
BRANCH   9  12
HETATM   12  C   UNL     1     -10.513  13.776  66.433  1.00  0.00    -0.284 A  
HETATM   13  C   UNL     1     -11.118  14.812  65.716  1.00  0.00    -0.338 A  
HETATM   14  C   UNL     1     -10.453  16.034  65.554  1.00  0.00    -0.426 A  
HETATM   15  C   UNL     1      -9.170  16.227  66.073  1.00  0.00    -0.316 A  
HETATM   16  C   UNL     1      -8.606  15.218  66.858  1.00  0.00    -0.289 A  
HETATM   17  N   UNL     1      -8.569  17.488  66.008  1.00  0.00    -0.527 NA 
HETATM   18  H2  UNL     1      -9.196  18.166  66.441  1.00  0.00     0.000 HD 
HETATM   19  H1  UNL     1      -7.632  17.630  66.387  1.00  0.00     0.000 HD 
HETATM   20  C   UNL     1      -9.262  13.993  67.024  1.00  0.00    -0.262 A  
ENDBRANCH   9  12
ENDBRANCH   7   8
ENDBRANCH   6   7
ENDBRANCH   3   6
ENDBRANCH   2   3
TORSDOF 6
ENDMDL
MODEL      148
REMARK 921   NORMALIZED FREE ENERGY PREDICTED BY IDOCK:   -3.49 KCAL/MOL
REMARK 922        TOTAL FREE ENERGY PREDICTED BY IDOCK:   -5.19 KCAL/MOL
REMARK 923 INTER-LIGAND FREE ENERGY PREDICTED BY IDOCK:   -4.84 KCAL/MOL
REMARK 924 INTRA-LIGAND FREE ENERGY PREDICTED BY IDOCK:   -0.36 KCAL/MOL
REMARK 927      BINDING AFFINITY PREDICTED BY RF-SCORE:    0.00 PKD
ROOT
HETATM    1  C   UNL     1      -5.910   6.052  65.511  1.00  0.00    -0.025 C  
HETATM    2  C   UNL     1      -6.668   5.044  66.374  1.00  0.00    -0.054 C  
ENDROOT
BRANCH   2   3
HETATM    3  N   UNL     1      -7.892   5.570  67.004  1.00  0.00    -0.101 NA 
BRANCH   3   4
HETATM    4  C   UNL     1      -9.040   4.641  66.930  1.00  0.00    -0.120 C  
HETATM    5  C   UNL     1     -10.398   5.258  66.595  1.00  0.00    -0.330 C  
ENDBRANCH   3   4
BRANCH   3   6
HETATM    6  C   UNL     1      -7.647   5.981  68.409  1.00  0.00    -0.091 C  
BRANCH   6   7
HETATM    7  C   UNL     1      -7.935   7.457  68.740  1.00  0.00    -0.123 C  
BRANCH   7   8
HETATM    8  N   UNL     1      -9.053   7.615  69.647  1.00  0.00    -0.147 N  
HETATM    9  C   UNL     1      -9.799   8.774  69.645  1.00  0.00    -0.183 C  
HETATM   10  H   UNL     1      -9.291   6.861  70.292  1.00  0.00     0.000 HD 
HETATM   11  O   UNL     1      -9.541   9.737  68.930  1.00  0.00    -0.157 OA 
BRANCH   9  12
HETATM   12  C   UNL     1     -10.978   8.815  70.553  1.00  0.00    -0.272 A  
HETATM   13  C   UNL     1     -11.451   7.673  71.207  1.00  0.00    -0.293 A  
HETATM   14  C   UNL     1     -12.556   7.762  72.062  1.00  0.00    -0.298 A  
HETATM   15  C   UNL     1     -13.222   8.977  72.250  1.00  0.00    -0.460 A  
HETATM   16  C   UNL     1     -12.695  10.128  71.659  1.00  0.00    -0.549 A  
HETATM   17  N   UNL     1     -14.247   9.076  73.196  1.00  0.00    -1.190 NA 
HETATM   18  H2  UNL     1     -13.884   8.766  74.097  1.00  0.00     0.000 HD 
HETATM   19  H1  UNL     1     -14.733   9.963  73.334  1.00  0.00     0.000 HD 
HETATM   20  C   UNL     1     -11.591  10.048  70.803  1.00  0.00    -0.444 A  
ENDBRANCH   9  12
ENDBRANCH   7   8
ENDBRANCH   6   7
ENDBRANCH   3   6
ENDBRANCH   2   3
TORSDOF 6
ENDMDL
MODEL      149
REMARK 921   NORMALIZED FREE ENERGY PREDICTED BY IDOCK:   -3.48 KCAL/MOL
REMARK 922        TOTAL FREE ENERGY PREDICTED BY IDOCK:   -5.18 KCAL/MOL
REMARK 923 INTER-LIGAND FREE ENERGY PREDICTED BY IDOCK:   -4.79 KCAL/MOL
REMARK 924 INTRA-LIGAND FREE ENERGY PREDICTED BY IDOCK:   -0.39 KCAL/MOL
REMARK 927      BINDING AFFINITY PREDICTED BY RF-SCORE:    0.00 PKD
ROOT
HETATM    1  C   UNL     1     -10.537  18.475  67.641  1.00  0.00    -0.450 C  
HETATM    2  C   UNL     1     -10.622  16.969  67.400  1.00  0.00    -0.289 C  
ENDROOT
BRANCH   2   3
HETATM    3  N   UNL     1      -9.627  16.170  68.138  1.00  0.00    -0.215 NA 
BRANCH   3   4
HETATM    4  C   UNL     1      -8.534  16.978  68.719  1.00  0.00    -0.237 C  
HETATM    5  C   UNL     1      -7.333  16.210  69.270  1.00  0.00    -0.231 C  
ENDBRANCH   3   4
BRANCH   3   6
HETATM    6  C   UNL     1     -10.268  15.335  69.184  1.00  0.00    -0.242 C  
BRANCH   6   7
HETATM    7  C   UNL     1     -11.451  14.465  68.722  1.00  0.00    -0.289 C  
BRANCH   7   8
HETATM    8  N   UNL     1     -11.023  13.205  68.150  1.00  0.00    -0.242 N  
HETATM    9  C   UNL     1     -11.206  12.024  68.838  1.00  0.00    -0.261 C  
HETATM   10  H   UNL     1     -10.582  13.191  67.230  1.00  0.00     0.000 HD 
HETATM   11  O   UNL     1     -11.686  11.973  69.966  1.00  0.00    -0.312 OA 
BRANCH   9  12
HETATM   12  C   UNL     1     -10.810  10.772  68.139  1.00  0.00    -0.284 A  
HETATM   13  C   UNL     1     -10.748   9.540  68.799  1.00  0.00    -0.218 A  
HETATM   14  C   UNL     1     -10.382   8.387  68.096  1.00  0.00    -0.255 A  
HETATM   15  C   UNL     1     -10.042   8.448  66.742  1.00  0.00    -0.303 A  
HETATM   16  C   UNL     1     -10.185   9.665  66.070  1.00  0.00    -0.255 A  
HETATM   17  N   UNL     1      -9.795   7.273  66.025  1.00  0.00    -0.401 NA 
HETATM   18  H2  UNL     1     -10.603   6.659  66.126  1.00  0.00     0.000 HD 
HETATM   19  H1  UNL     1      -9.546   7.317  65.036  1.00  0.00     0.000 HD 
HETATM   20  C   UNL     1     -10.549  10.824  66.764  1.00  0.00    -0.307 A  
ENDBRANCH   9  12
ENDBRANCH   7   8
ENDBRANCH   6   7
ENDBRANCH   3   6
ENDBRANCH   2   3
TORSDOF 6
ENDMDL
MODEL      150
REMARK 921   NORMALIZED FREE ENERGY PREDICTED BY IDOCK:   -3.45 KCAL/MOL
REMARK 922        TOTAL FREE ENERGY PREDICTED BY IDOCK:   -5.13 KCAL/MOL
REMARK 923 INTER-LIGAND FREE ENERGY PREDICTED BY IDOCK:   -4.74 KCAL/MOL
REMARK 924 INTRA-LIGAND FREE ENERGY PREDICTED BY IDOCK:   -0.40 KCAL/MOL
REMARK 927      BINDING AFFINITY PREDICTED BY RF-SCORE:    0.00 PKD
ROOT
HETATM    1  C   UNL     1     -12.824  11.360  70.624  1.00  0.00    -0.189 C  
HETATM    2  C   UNL     1     -11.872  12.322  69.914  1.00  0.00    -0.311 C  
ENDROOT
BRANCH   2   3
HETATM    3  N   UNL     1     -12.381  13.698  69.770  1.00  0.00    -0.276 NA 
BRANCH   3   4
HETATM    4  C   UNL     1     -11.915  14.614  70.832  1.00  0.00    -0.326 C  
HETATM    5  C   UNL     1     -12.996  15.376  71.600  1.00  0.00    -0.513 C  
ENDBRANCH   3   4
BRANCH   3   6
HETATM    6  C   UNL     1     -12.067  14.254  68.429  1.00  0.00    -0.262 C  
BRANCH   6   7
HETATM    7  C   UNL     1     -10.589  14.192  68.002  1.00  0.00    -0.239 C  
BRANCH   7   8
HETATM    8  N   UNL     1     -10.080  15.480  67.577  1.00  0.00    -0.239 N  
HETATM    9  C   UNL     1      -8.977  16.035  68.190  1.00  0.00    -0.183 C  
HETATM   10  H   UNL     1     -10.542  15.980  66.817  1.00  0.00     0.000 HD 
HETATM   11  O   UNL     1      -8.402  15.510  69.139  1.00  0.00    -0.215 OA 
BRANCH   9  12
HETATM   12  C   UNL     1      -8.476  17.321  67.634  1.00  0.00    -0.212 A  
HETATM   13  C   UNL     1      -9.200  18.052  66.686  1.00  0.00    -0.291 A  
HETATM   14  C   UNL     1      -8.694  19.263  66.201  1.00  0.00    -0.259 A  
HETATM   15  C   UNL     1      -7.452  19.744  66.625  1.00  0.00    -0.256 A  
HETATM   16  C   UNL     1      -6.774  19.052  67.631  1.00  0.00    -0.218 A  
HETATM   17  N   UNL     1      -7.015  21.011  66.224  1.00  0.00    -0.522 NA 
HETATM   18  H2  UNL     1      -7.729  21.694  66.480  1.00  0.00     0.000 HD 
HETATM   19  H1  UNL     1      -6.109  21.363  66.533  1.00  0.00     0.000 HD 
HETATM   20  C   UNL     1      -7.271  17.840  68.122  1.00  0.00    -0.225 A  
ENDBRANCH   9  12
ENDBRANCH   7   8
ENDBRANCH   6   7
ENDBRANCH   3   6
ENDBRANCH   2   3
TORSDOF 6
ENDMDL
MODEL      151
REMARK 921   NORMALIZED FREE ENERGY PREDICTED BY IDOCK:   -3.43 KCAL/MOL
REMARK 922        TOTAL FREE ENERGY PREDICTED BY IDOCK:   -5.11 KCAL/MOL
REMARK 923 INTER-LIGAND FREE ENERGY PREDICTED BY IDOCK:   -4.54 KCAL/MOL
REMARK 924 INTRA-LIGAND FREE ENERGY PREDICTED BY IDOCK:   -0.57 KCAL/MOL
REMARK 927      BINDING AFFINITY PREDICTED BY RF-SCORE:    0.00 PKD
ROOT
HETATM    1  C   UNL     1     -11.839  12.181  68.869  1.00  0.00    -0.358 C  
HETATM    2  C   UNL     1     -11.380  12.025  67.420  1.00  0.00    -0.327 C  
ENDROOT
BRANCH   2   3
HETATM    3  N   UNL     1      -9.984  12.425  67.169  1.00  0.00    -0.206 NA 
BRANCH   3   4
HETATM    4  C   UNL     1      -9.814  13.878  66.958  1.00  0.00    -0.257 C  
HETATM    5  C   UNL     1     -10.109  14.405  65.553  1.00  0.00    -0.382 C  
ENDBRANCH   3   4
BRANCH   3   6
HETATM    6  C   UNL     1      -9.080  11.948  68.247  1.00  0.00    -0.183 C  
BRANCH   6   7
HETATM    7  C   UNL     1      -8.645  10.474  68.160  1.00  0.00    -0.123 C  
BRANCH   7   8
HETATM    8  N   UNL     1      -9.030   9.712  69.329  1.00  0.00    -0.160 N  
HETATM    9  C   UNL     1     -10.112   8.858  69.286  1.00  0.00    -0.203 C  
HETATM   10  H   UNL     1      -8.495   9.808  70.193  1.00  0.00     0.000 HD 
HETATM   11  O   UNL     1     -10.825   8.730  68.296  1.00  0.00    -0.111 OA 
BRANCH   9  12
HETATM   12  C   UNL     1     -10.383   8.056  70.510  1.00  0.00    -0.205 A  
HETATM   13  C   UNL     1     -10.690   6.692  70.451  1.00  0.00    -0.297 A  
HETATM   14  C   UNL     1     -10.925   5.976  71.630  1.00  0.00    -0.328 A  
HETATM   15  C   UNL     1     -10.891   6.611  72.875  1.00  0.00    -0.262 A  
HETATM   16  C   UNL     1     -10.503   7.952  72.932  1.00  0.00    -0.422 A  
HETATM   17  N   UNL     1     -11.009   5.861  74.050  1.00  0.00    -0.340 NA 
HETATM   18  H2  UNL     1     -10.294   5.134  74.040  1.00  0.00     0.000 HD 
HETATM   19  H1  UNL     1     -10.984   6.324  74.959  1.00  0.00     0.000 HD 
HETATM   20  C   UNL     1     -10.267   8.677  71.759  1.00  0.00    -0.378 A  
ENDBRANCH   9  12
ENDBRANCH   7   8
ENDBRANCH   6   7
ENDBRANCH   3   6
ENDBRANCH   2   3
TORSDOF 6
ENDMDL
MODEL      152
REMARK 921   NORMALIZED FREE ENERGY PREDICTED BY IDOCK:   -3.43 KCAL/MOL
REMARK 922        TOTAL FREE ENERGY PREDICTED BY IDOCK:   -5.11 KCAL/MOL
REMARK 923 INTER-LIGAND FREE ENERGY PREDICTED BY IDOCK:   -4.74 KCAL/MOL
REMARK 924 INTRA-LIGAND FREE ENERGY PREDICTED BY IDOCK:   -0.36 KCAL/MOL
REMARK 927      BINDING AFFINITY PREDICTED BY RF-SCORE:    0.00 PKD
ROOT
HETATM    1  C   UNL     1     -11.032   5.885  66.757  1.00  0.00    -0.280 C  
HETATM    2  C   UNL     1     -11.078   6.891  67.907  1.00  0.00    -0.120 C  
ENDROOT
BRANCH   2   3
HETATM    3  N   UNL     1      -9.824   7.010  68.671  1.00  0.00    -0.145 NA 
BRANCH   3   4
HETATM    4  C   UNL     1      -8.616   7.063  67.822  1.00  0.00    -0.122 C  
HETATM    5  C   UNL     1      -7.504   8.011  68.270  1.00  0.00    -0.100 C  
ENDBRANCH   3   4
BRANCH   3   6
HETATM    6  C   UNL     1      -9.860   8.173  69.595  1.00  0.00    -0.184 C  
BRANCH   6   7
HETATM    7  C   UNL     1     -11.245   8.552  70.149  1.00  0.00    -0.136 C  
BRANCH   7   8
HETATM    8  N   UNL     1     -11.328   9.946  70.532  1.00  0.00    -0.302 N  
HETATM    9  C   UNL     1     -11.862  10.880  69.670  1.00  0.00    -0.344 C  
HETATM   10  H   UNL     1     -10.986  10.240  71.447  1.00  0.00     0.000 HD 
HETATM   11  O   UNL     1     -12.248  10.604  68.538  1.00  0.00    -0.382 OA 
BRANCH   9  12
HETATM   12  C   UNL     1     -11.981  12.273  70.179  1.00  0.00    -0.377 A  
HETATM   13  C   UNL     1     -12.663  12.576  71.362  1.00  0.00    -0.345 A  
HETATM   14  C   UNL     1     -12.737  13.900  71.808  1.00  0.00    -0.393 A  
HETATM   15  C   UNL     1     -12.165  14.940  71.069  1.00  0.00    -0.317 A  
HETATM   16  C   UNL     1     -11.416  14.621  69.934  1.00  0.00    -0.320 A  
HETATM   17  N   UNL     1     -12.143  16.240  71.586  1.00  0.00    -0.640 NA 
HETATM   18  H2  UNL     1     -11.697  16.214  72.503  1.00  0.00     0.000 HD 
HETATM   19  H1  UNL     1     -11.725  16.999  71.047  1.00  0.00     0.000 HD 
HETATM   20  C   UNL     1     -11.336  13.301  69.480  1.00  0.00    -0.236 A  
ENDBRANCH   9  12
ENDBRANCH   7   8
ENDBRANCH   6   7
ENDBRANCH   3   6
ENDBRANCH   2   3
TORSDOF 6
ENDMDL
MODEL      153
REMARK 921   NORMALIZED FREE ENERGY PREDICTED BY IDOCK:   -3.43 KCAL/MOL
REMARK 922        TOTAL FREE ENERGY PREDICTED BY IDOCK:   -5.11 KCAL/MOL
REMARK 923 INTER-LIGAND FREE ENERGY PREDICTED BY IDOCK:   -4.89 KCAL/MOL
REMARK 924 INTRA-LIGAND FREE ENERGY PREDICTED BY IDOCK:   -0.22 KCAL/MOL
REMARK 927      BINDING AFFINITY PREDICTED BY RF-SCORE:    0.00 PKD
ROOT
HETATM    1  C   UNL     1      -7.898   9.757  66.471  1.00  0.00    -0.109 C  
HETATM    2  C   UNL     1      -8.575  10.237  67.754  1.00  0.00    -0.118 C  
ENDROOT
BRANCH   2   3
HETATM    3  N   UNL     1      -9.762  11.086  67.544  1.00  0.00    -0.171 NA 
BRANCH   3   4
HETATM    4  C   UNL     1     -10.949  10.637  68.301  1.00  0.00    -0.263 C  
HETATM    5  C   UNL     1     -11.849  11.733  68.875  1.00  0.00    -0.381 C  
ENDBRANCH   3   4
BRANCH   3   6
HETATM    6  C   UNL     1      -9.468  12.512  67.836  1.00  0.00    -0.196 C  
BRANCH   6   7
HETATM    7  C   UNL     1      -8.445  13.193  66.909  1.00  0.00    -0.070 C  
BRANCH   7   8
HETATM    8  N   UNL     1      -8.500  14.638  66.990  1.00  0.00    -0.273 N  
HETATM    9  C   UNL     1      -9.313  15.358  66.140  1.00  0.00    -0.332 C  
HETATM   10  H   UNL     1      -7.931  15.128  67.681  1.00  0.00     0.000 HD 
HETATM   11  O   UNL     1      -9.987  14.837  65.257  1.00  0.00    -0.361 OA 
BRANCH   9  12
HETATM   12  C   UNL     1      -9.366  16.830  66.349  1.00  0.00    -0.305 A  
HETATM   13  C   UNL     1     -10.535  17.481  66.757  1.00  0.00    -0.270 A  
HETATM   14  C   UNL     1     -10.534  18.867  66.953  1.00  0.00    -0.496 A  
HETATM   15  C   UNL     1      -9.383  19.624  66.714  1.00  0.00    -0.364 A  
HETATM   16  C   UNL     1      -8.199  18.959  66.387  1.00  0.00    -0.306 A  
HETATM   17  N   UNL     1      -9.362  20.987  67.029  1.00  0.00    -0.649 NA 
HETATM   18  H2  UNL     1      -9.621  21.095  68.009  1.00  0.00     0.000 HD 
HETATM   19  H1  UNL     1      -8.523  21.541  66.854  1.00  0.00     0.000 HD 
HETATM   20  C   UNL     1      -8.191  17.574  66.189  1.00  0.00    -0.222 A  
ENDBRANCH   9  12
ENDBRANCH   7   8
ENDBRANCH   6   7
ENDBRANCH   3   6
ENDBRANCH   2   3
TORSDOF 6
ENDMDL
MODEL      154
REMARK 921   NORMALIZED FREE ENERGY PREDICTED BY IDOCK:   -3.43 KCAL/MOL
REMARK 922        TOTAL FREE ENERGY PREDICTED BY IDOCK:   -5.11 KCAL/MOL
REMARK 923 INTER-LIGAND FREE ENERGY PREDICTED BY IDOCK:   -4.72 KCAL/MOL
REMARK 924 INTRA-LIGAND FREE ENERGY PREDICTED BY IDOCK:   -0.39 KCAL/MOL
REMARK 927      BINDING AFFINITY PREDICTED BY RF-SCORE:    0.00 PKD
ROOT
HETATM    1  C   UNL     1      -7.914  15.275  67.196  1.00  0.00    -0.251 C  
HETATM    2  C   UNL     1      -9.419  15.265  66.938  1.00  0.00    -0.234 C  
ENDROOT
BRANCH   2   3
HETATM    3  N   UNL     1     -10.109  14.032  67.357  1.00  0.00    -0.242 NA 
BRANCH   3   4
HETATM    4  C   UNL     1     -10.569  13.199  66.227  1.00  0.00    -0.284 C  
HETATM    5  C   UNL     1     -10.413  13.795  64.828  1.00  0.00    -0.448 C  
ENDBRANCH   3   4
BRANCH   3   6
HETATM    6  C   UNL     1      -9.272  13.231  68.286  1.00  0.00    -0.197 C  
BRANCH   6   7
HETATM    7  C   UNL     1      -9.112  11.741  67.935  1.00  0.00    -0.181 C  
BRANCH   7   8
HETATM    8  N   UNL     1      -9.615  10.868  68.975  1.00  0.00    -0.318 N  
HETATM    9  C   UNL     1      -9.543   9.498  68.837  1.00  0.00    -0.156 C  
HETATM   10  H   UNL     1     -10.027  11.271  69.817  1.00  0.00     0.000 HD 
HETATM   11  O   UNL     1      -9.104   8.947  67.832  1.00  0.00    -0.138 OA 
BRANCH   9  12
HETATM   12  C   UNL     1     -10.011   8.682  69.991  1.00  0.00    -0.191 A  
HETATM   13  C   UNL     1      -9.828   9.095  71.315  1.00  0.00    -0.363 A  
HETATM   14  C   UNL     1     -10.296   8.299  72.367  1.00  0.00    -0.402 A  
HETATM   15  C   UNL     1     -10.919   7.073  72.118  1.00  0.00    -0.234 A  
HETATM   16  C   UNL     1     -11.172   6.707  70.794  1.00  0.00    -0.366 A  
HETATM   17  N   UNL     1     -11.488   6.348  73.171  1.00  0.00    -0.461 NA 
HETATM   18  H2  UNL     1     -12.150   6.952  73.657  1.00  0.00     0.000 HD 
HETATM   19  H1  UNL     1     -11.943   5.453  72.989  1.00  0.00     0.000 HD 
HETATM   20  C   UNL     1     -10.707   7.495  69.735  1.00  0.00    -0.249 A  
ENDBRANCH   9  12
ENDBRANCH   7   8
ENDBRANCH   6   7
ENDBRANCH   3   6
ENDBRANCH   2   3
TORSDOF 6
ENDMDL
MODEL      155
REMARK 921   NORMALIZED FREE ENERGY PREDICTED BY IDOCK:   -3.42 KCAL/MOL
REMARK 922        TOTAL FREE ENERGY PREDICTED BY IDOCK:   -5.10 KCAL/MOL
REMARK 923 INTER-LIGAND FREE ENERGY PREDICTED BY IDOCK:   -4.71 KCAL/MOL
REMARK 924 INTRA-LIGAND FREE ENERGY PREDICTED BY IDOCK:   -0.39 KCAL/MOL
REMARK 927      BINDING AFFINITY PREDICTED BY RF-SCORE:    0.00 PKD
ROOT
HETATM    1  C   UNL     1      -9.081   5.283  70.936  1.00  0.00    -0.168 C  
HETATM    2  C   UNL     1     -10.278   5.650  71.812  1.00  0.00    -0.202 C  
ENDROOT
BRANCH   2   3
HETATM    3  N   UNL     1     -10.291   7.045  72.286  1.00  0.00    -0.190 NA 
BRANCH   3   4
HETATM    4  C   UNL     1      -9.286   7.323  73.333  1.00  0.00    -0.184 C  
HETATM    5  C   UNL     1      -8.158   8.286  72.961  1.00  0.00    -0.210 C  
ENDBRANCH   3   4
BRANCH   3   6
HETATM    6  C   UNL     1     -10.145   8.002  71.160  1.00  0.00    -0.188 C  
BRANCH   6   7
HETATM    7  C   UNL     1     -11.449   8.418  70.455  1.00  0.00    -0.179 C  
BRANCH   7   8
HETATM    8  N   UNL     1     -11.218   8.945  69.126  1.00  0.00    -0.421 N  
HETATM    9  C   UNL     1     -11.186  10.305  68.906  1.00  0.00    -0.207 C  
HETATM   10  H   UNL     1     -11.078   8.303  68.346  1.00  0.00     0.000 HD 
HETATM   11  O   UNL     1     -11.394  11.132  69.789  1.00  0.00    -0.257 OA 
BRANCH   9  12
HETATM   12  C   UNL     1     -10.862  10.754  67.525  1.00  0.00    -0.342 A  
HETATM   13  C   UNL     1     -11.171  12.040  67.070  1.00  0.00    -0.377 A  
HETATM   14  C   UNL     1     -10.836  12.422  65.766  1.00  0.00    -0.312 A  
HETATM   15  C   UNL     1     -10.221  11.522  64.890  1.00  0.00    -0.275 A  
HETATM   16  C   UNL     1      -9.842  10.268  65.376  1.00  0.00    -0.362 A  
HETATM   17  N   UNL     1      -9.784  11.953  63.633  1.00  0.00    -0.545 NA 
HETATM   18  H2  UNL     1      -9.161  12.749  63.765  1.00  0.00     0.000 HD 
HETATM   19  H1  UNL     1      -9.336  11.296  62.994  1.00  0.00     0.000 HD 
HETATM   20  C   UNL     1     -10.174   9.878  66.678  1.00  0.00    -0.293 A  
ENDBRANCH   9  12
ENDBRANCH   7   8
ENDBRANCH   6   7
ENDBRANCH   3   6
ENDBRANCH   2   3
TORSDOF 6
ENDMDL
MODEL      156
REMARK 921   NORMALIZED FREE ENERGY PREDICTED BY IDOCK:   -3.42 KCAL/MOL
REMARK 922        TOTAL FREE ENERGY PREDICTED BY IDOCK:   -5.09 KCAL/MOL
REMARK 923 INTER-LIGAND FREE ENERGY PREDICTED BY IDOCK:   -4.76 KCAL/MOL
REMARK 924 INTRA-LIGAND FREE ENERGY PREDICTED BY IDOCK:   -0.33 KCAL/MOL
REMARK 927      BINDING AFFINITY PREDICTED BY RF-SCORE:    0.00 PKD
ROOT
HETATM    1  C   UNL     1      -9.866  19.785  68.113  1.00  0.00    -0.536 C  
HETATM    2  C   UNL     1     -10.605  18.655  67.398  1.00  0.00    -0.441 C  
ENDROOT
BRANCH   2   3
HETATM    3  N   UNL     1      -9.929  17.347  67.449  1.00  0.00    -0.295 NA 
BRANCH   3   4
HETATM    4  C   UNL     1      -8.455  17.444  67.470  1.00  0.00    -0.214 C  
HETATM    5  C   UNL     1      -7.713  16.877  66.259  1.00  0.00    -0.332 C  
ENDBRANCH   3   4
BRANCH   3   6
HETATM    6  C   UNL     1     -10.412  16.530  68.591  1.00  0.00    -0.304 C  
BRANCH   6   7
HETATM    7  C   UNL     1     -11.526  15.517  68.272  1.00  0.00    -0.353 C  
BRANCH   7   8
HETATM    8  N   UNL     1     -11.127  14.150  68.538  1.00  0.00    -0.245 N  
HETATM    9  C   UNL     1     -11.556  13.503  69.677  1.00  0.00    -0.275 C  
HETATM   10  H   UNL     1     -10.523  13.663  67.876  1.00  0.00     0.000 HD 
HETATM   11  O   UNL     1     -12.244  14.044  70.537  1.00  0.00    -0.320 OA 
BRANCH   9  12
HETATM   12  C   UNL     1     -11.162  12.075  69.826  1.00  0.00    -0.105 A  
HETATM   13  C   UNL     1     -11.769  11.231  70.762  1.00  0.00    -0.148 A  
HETATM   14  C   UNL     1     -11.374   9.892  70.856  1.00  0.00    -0.446 A  
HETATM   15  C   UNL     1     -10.351   9.386  70.049  1.00  0.00    -0.233 A  
HETATM   16  C   UNL     1      -9.808  10.211  69.061  1.00  0.00    -0.211 A  
HETATM   17  N   UNL     1     -10.050   8.020  70.070  1.00  0.00    -0.193 NA 
HETATM   18  H2  UNL     1     -10.904   7.499  69.872  1.00  0.00     0.000 HD 
HETATM   19  H1  UNL     1      -9.304   7.650  69.480  1.00  0.00     0.000 HD 
HETATM   20  C   UNL     1     -10.196  11.551  68.959  1.00  0.00    -0.109 A  
ENDBRANCH   9  12
ENDBRANCH   7   8
ENDBRANCH   6   7
ENDBRANCH   3   6
ENDBRANCH   2   3
TORSDOF 6
ENDMDL
MODEL      157
REMARK 921   NORMALIZED FREE ENERGY PREDICTED BY IDOCK:   -3.40 KCAL/MOL
REMARK 922        TOTAL FREE ENERGY PREDICTED BY IDOCK:   -5.08 KCAL/MOL
REMARK 923 INTER-LIGAND FREE ENERGY PREDICTED BY IDOCK:   -4.63 KCAL/MOL
REMARK 924 INTRA-LIGAND FREE ENERGY PREDICTED BY IDOCK:   -0.44 KCAL/MOL
REMARK 927      BINDING AFFINITY PREDICTED BY RF-SCORE:    0.00 PKD
ROOT
HETATM    1  C   UNL     1     -10.591   5.444  70.567  1.00  0.00    -0.312 C  
HETATM    2  C   UNL     1     -10.030   6.847  70.792  1.00  0.00    -0.190 C  
ENDROOT
BRANCH   2   3
HETATM    3  N   UNL     1      -9.636   7.558  69.563  1.00  0.00    -0.156 NA 
BRANCH   3   4
HETATM    4  C   UNL     1      -8.308   8.201  69.652  1.00  0.00    -0.125 C  
HETATM    5  C   UNL     1      -8.072   9.122  70.849  1.00  0.00    -0.201 C  
ENDBRANCH   3   4
BRANCH   3   6
HETATM    6  C   UNL     1      -9.703   6.669  68.376  1.00  0.00    -0.126 C  
BRANCH   6   7
HETATM    7  C   UNL     1     -10.613   7.144  67.228  1.00  0.00    -0.327 C  
BRANCH   7   8
HETATM    8  N   UNL     1     -10.862   8.570  67.271  1.00  0.00    -0.444 N  
HETATM    9  C   UNL     1     -10.274   9.413  66.352  1.00  0.00    -0.230 C  
HETATM   10  H   UNL     1     -11.478   8.954  67.988  1.00  0.00     0.000 HD 
HETATM   11  O   UNL     1      -9.488   9.025  65.494  1.00  0.00    -0.228 OA 
BRANCH   9  12
HETATM   12  C   UNL     1     -10.651  10.851  66.423  1.00  0.00    -0.289 A  
HETATM   13  C   UNL     1     -11.410  11.368  67.478  1.00  0.00    -0.362 A  
HETATM   14  C   UNL     1     -11.729  12.730  67.508  1.00  0.00    -0.422 A  
HETATM   15  C   UNL     1     -11.329  13.585  66.477  1.00  0.00    -0.319 A  
HETATM   16  C   UNL     1     -10.503  13.079  65.470  1.00  0.00    -0.297 A  
HETATM   17  N   UNL     1     -11.552  14.962  66.580  1.00  0.00    -0.304 NA 
HETATM   18  H2  UNL     1     -11.135  15.291  67.450  1.00  0.00     0.000 HD 
HETATM   19  H1  UNL     1     -11.260  15.586  65.827  1.00  0.00     0.000 HD 
HETATM   20  C   UNL     1     -10.179  11.718  65.431  1.00  0.00    -0.301 A  
ENDBRANCH   9  12
ENDBRANCH   7   8
ENDBRANCH   6   7
ENDBRANCH   3   6
ENDBRANCH   2   3
TORSDOF 6
ENDMDL
MODEL      158
REMARK 921   NORMALIZED FREE ENERGY PREDICTED BY IDOCK:   -3.40 KCAL/MOL
REMARK 922        TOTAL FREE ENERGY PREDICTED BY IDOCK:   -5.08 KCAL/MOL
REMARK 923 INTER-LIGAND FREE ENERGY PREDICTED BY IDOCK:   -4.78 KCAL/MOL
REMARK 924 INTRA-LIGAND FREE ENERGY PREDICTED BY IDOCK:   -0.29 KCAL/MOL
REMARK 927      BINDING AFFINITY PREDICTED BY RF-SCORE:    0.00 PKD
ROOT
HETATM    1  C   UNL     1      -7.772   4.843  64.871  1.00  0.00    -0.083 C  
HETATM    2  C   UNL     1      -7.806   5.618  66.188  1.00  0.00    -0.100 C  
ENDROOT
BRANCH   2   3
HETATM    3  N   UNL     1      -7.528   7.059  66.062  1.00  0.00    -0.078 NA 
BRANCH   3   4
HETATM    4  C   UNL     1      -7.142   7.470  64.696  1.00  0.00    -0.064 C  
HETATM    5  C   UNL     1      -7.473   8.908  64.294  1.00  0.00    -0.106 C  
ENDBRANCH   3   4
BRANCH   3   6
HETATM    6  C   UNL     1      -8.669   7.877  66.547  1.00  0.00    -0.147 C  
BRANCH   6   7
HETATM    7  C   UNL     1      -8.435   8.653  67.856  1.00  0.00    -0.129 C  
BRANCH   7   8
HETATM    8  N   UNL     1      -9.562   8.565  68.762  1.00  0.00    -0.148 N  
HETATM    9  C   UNL     1      -9.517   9.175  69.998  1.00  0.00    -0.198 C  
HETATM   10  H   UNL     1     -10.396   8.048  68.482  1.00  0.00     0.000 HD 
HETATM   11  O   UNL     1      -8.530   9.772  70.415  1.00  0.00    -0.188 OA 
BRANCH   9  12
HETATM   12  C   UNL     1     -10.751   9.101  70.827  1.00  0.00    -0.327 A  
HETATM   13  C   UNL     1     -11.056   7.979  71.605  1.00  0.00    -0.300 A  
HETATM   14  C   UNL     1     -12.222   7.961  72.379  1.00  0.00    -0.295 A  
HETATM   15  C   UNL     1     -13.112   9.039  72.363  1.00  0.00    -0.423 A  
HETATM   16  C   UNL     1     -12.760  10.187  71.650  1.00  0.00    -0.549 A  
HETATM   17  N   UNL     1     -14.209   9.056  73.231  1.00  0.00    -1.188 NA 
HETATM   18  H2  UNL     1     -13.867   8.935  74.184  1.00  0.00     0.000 HD 
HETATM   19  H1  UNL     1     -14.858   9.843  73.220  1.00  0.00     0.000 HD 
HETATM   20  C   UNL     1     -11.597  10.215  70.873  1.00  0.00    -0.459 A  
ENDBRANCH   9  12
ENDBRANCH   7   8
ENDBRANCH   6   7
ENDBRANCH   3   6
ENDBRANCH   2   3
TORSDOF 6
ENDMDL
MODEL      159
REMARK 921   NORMALIZED FREE ENERGY PREDICTED BY IDOCK:   -3.40 KCAL/MOL
REMARK 922        TOTAL FREE ENERGY PREDICTED BY IDOCK:   -5.07 KCAL/MOL
REMARK 923 INTER-LIGAND FREE ENERGY PREDICTED BY IDOCK:   -4.69 KCAL/MOL
REMARK 924 INTRA-LIGAND FREE ENERGY PREDICTED BY IDOCK:   -0.38 KCAL/MOL
REMARK 927      BINDING AFFINITY PREDICTED BY RF-SCORE:    0.00 PKD
ROOT
HETATM    1  C   UNL     1      -9.213  15.336  66.192  1.00  0.00    -0.345 C  
HETATM    2  C   UNL     1     -10.701  15.416  66.529  1.00  0.00    -0.308 C  
ENDROOT
BRANCH   2   3
HETATM    3  N   UNL     1     -11.291  14.157  67.018  1.00  0.00    -0.318 NA 
BRANCH   3   4
HETATM    4  C   UNL     1     -12.351  13.620  66.139  1.00  0.00    -0.426 C  
HETATM    5  C   UNL     1     -12.508  14.285  64.771  1.00  0.00    -0.390 C  
ENDBRANCH   3   4
BRANCH   3   6
HETATM    6  C   UNL     1     -10.249  13.127  67.262  1.00  0.00    -0.243 C  
BRANCH   6   7
HETATM    7  C   UNL     1     -10.500  11.749  66.624  1.00  0.00    -0.224 C  
BRANCH   7   8
HETATM    8  N   UNL     1     -10.777  10.724  67.608  1.00  0.00    -0.238 N  
HETATM    9  C   UNL     1     -10.306   9.440  67.436  1.00  0.00    -0.263 C  
HETATM   10  H   UNL     1     -11.327  10.954  68.436  1.00  0.00     0.000 HD 
HETATM   11  O   UNL     1      -9.679   9.083  66.442  1.00  0.00    -0.223 OA 
BRANCH   9  12
HETATM   12  C   UNL     1     -10.570   8.474  68.537  1.00  0.00    -0.154 A  
HETATM   13  C   UNL     1     -10.930   7.146  68.289  1.00  0.00    -0.092 A  
HETATM   14  C   UNL     1     -11.157   6.271  69.358  1.00  0.00    -0.477 A  
HETATM   15  C   UNL     1     -11.062   6.713  70.680  1.00  0.00    -0.298 A  
HETATM   16  C   UNL     1     -10.622   8.017  70.921  1.00  0.00    -0.233 A  
HETATM   17  N   UNL     1     -11.173   5.801  71.735  1.00  0.00    -0.246 NA 
HETATM   18  H2  UNL     1     -10.487   5.060  71.594  1.00  0.00     0.000 HD 
HETATM   19  H1  UNL     1     -11.104   6.123  72.701  1.00  0.00     0.000 HD 
HETATM   20  C   UNL     1     -10.394   8.899  69.859  1.00  0.00    -0.215 A  
ENDBRANCH   9  12
ENDBRANCH   7   8
ENDBRANCH   6   7
ENDBRANCH   3   6
ENDBRANCH   2   3
TORSDOF 6
ENDMDL
MODEL      160
REMARK 921   NORMALIZED FREE ENERGY PREDICTED BY IDOCK:   -3.40 KCAL/MOL
REMARK 922        TOTAL FREE ENERGY PREDICTED BY IDOCK:   -5.07 KCAL/MOL
REMARK 923 INTER-LIGAND FREE ENERGY PREDICTED BY IDOCK:   -4.84 KCAL/MOL
REMARK 924 INTRA-LIGAND FREE ENERGY PREDICTED BY IDOCK:   -0.24 KCAL/MOL
REMARK 927      BINDING AFFINITY PREDICTED BY RF-SCORE:    0.00 PKD
ROOT
HETATM    1  C   UNL     1     -10.805   6.304  72.524  1.00  0.00    -0.273 C  
HETATM    2  C   UNL     1     -11.076   6.701  71.074  1.00  0.00    -0.282 C  
ENDROOT
BRANCH   2   3
HETATM    3  N   UNL     1     -11.736   8.008  70.905  1.00  0.00    -0.279 NA 
BRANCH   3   4
HETATM    4  C   UNL     1     -12.795   8.268  71.902  1.00  0.00    -0.344 C  
HETATM    5  C   UNL     1     -14.138   8.761  71.362  1.00  0.00    -0.311 C  
ENDBRANCH   3   4
BRANCH   3   6
HETATM    6  C   UNL     1     -10.749   9.117  70.894  1.00  0.00    -0.275 C  
BRANCH   6   7
HETATM    7  C   UNL     1     -11.329  10.537  71.035  1.00  0.00     0.003 C  
BRANCH   7   8
HETATM    8  N   UNL     1     -10.991  11.388  69.913  1.00  0.00    -0.471 N  
HETATM    9  C   UNL     1     -11.847  11.505  68.838  1.00  0.00    -0.341 C  
HETATM   10  H   UNL     1     -10.111  11.904  69.917  1.00  0.00     0.000 HD 
HETATM   11  O   UNL     1     -12.898  10.878  68.747  1.00  0.00     0.168 OA 
BRANCH   9  12
HETATM   12  C   UNL     1     -11.455  12.464  67.770  1.00  0.00    -0.383 A  
HETATM   13  C   UNL     1     -11.824  13.812  67.810  1.00  0.00    -0.404 A  
HETATM   14  C   UNL     1     -11.421  14.679  66.788  1.00  0.00    -0.371 A  
HETATM   15  C   UNL     1     -10.679  14.211  65.700  1.00  0.00    -0.313 A  
HETATM   16  C   UNL     1     -10.244  12.883  65.708  1.00  0.00    -0.298 A  
HETATM   17  N   UNL     1     -10.182  15.109  64.750  1.00  0.00    -0.403 NA 
HETATM   18  H2  UNL     1      -9.632  15.818  65.234  1.00  0.00     0.000 HD 
HETATM   19  H1  UNL     1      -9.640  14.768  63.956  1.00  0.00     0.000 HD 
HETATM   20  C   UNL     1     -10.642  12.009  66.725  1.00  0.00    -0.260 A  
ENDBRANCH   9  12
ENDBRANCH   7   8
ENDBRANCH   6   7
ENDBRANCH   3   6
ENDBRANCH   2   3
TORSDOF 6
ENDMDL
MODEL      161
REMARK 921   NORMALIZED FREE ENERGY PREDICTED BY IDOCK:   -3.39 KCAL/MOL
REMARK 922        TOTAL FREE ENERGY PREDICTED BY IDOCK:   -5.06 KCAL/MOL
REMARK 923 INTER-LIGAND FREE ENERGY PREDICTED BY IDOCK:   -4.98 KCAL/MOL
REMARK 924 INTRA-LIGAND FREE ENERGY PREDICTED BY IDOCK:   -0.07 KCAL/MOL
REMARK 927      BINDING AFFINITY PREDICTED BY RF-SCORE:    0.00 PKD
ROOT
HETATM    1  C   UNL     1     -11.208   9.783  70.510  1.00  0.00    -0.381 C  
HETATM    2  C   UNL     1     -12.578  10.257  70.990  1.00  0.00    -0.390 C  
ENDROOT
BRANCH   2   3
HETATM    3  N   UNL     1     -12.844  11.691  70.778  1.00  0.00    -0.176 NA 
BRANCH   3   4
HETATM    4  C   UNL     1     -13.071  12.442  72.030  1.00  0.00    -0.365 C  
HETATM    5  C   UNL     1     -13.194  13.961  71.905  1.00  0.00    -0.480 C  
ENDBRANCH   3   4
BRANCH   3   6
HETATM    6  C   UNL     1     -11.769  12.329  69.977  1.00  0.00    -0.242 C  
BRANCH   6   7
HETATM    7  C   UNL     1     -12.220  13.036  68.685  1.00  0.00    -0.002 C  
BRANCH   7   8
HETATM    8  N   UNL     1     -11.758  12.357  67.492  1.00  0.00    -0.368 N  
HETATM    9  C   UNL     1     -10.410  12.241  67.227  1.00  0.00    -0.214 C  
HETATM   10  H   UNL     1     -12.437  11.961  66.841  1.00  0.00     0.000 HD 
HETATM   11  O   UNL     1      -9.542  12.733  67.942  1.00  0.00    -0.198 OA 
BRANCH   9  12
HETATM   12  C   UNL     1     -10.028  11.457  66.021  1.00  0.00    -0.269 A  
HETATM   13  C   UNL     1      -9.085  10.426  66.074  1.00  0.00    -0.187 A  
HETATM   14  C   UNL     1      -8.767   9.708  64.915  1.00  0.00    -0.207 A  
HETATM   15  C   UNL     1      -9.354  10.028  63.688  1.00  0.00    -0.253 A  
HETATM   16  C   UNL     1     -10.354  11.003  63.658  1.00  0.00    -0.415 A  
HETATM   17  N   UNL     1      -9.118   9.227  62.566  1.00  0.00    -0.483 NA 
HETATM   18  H2  UNL     1      -9.364   8.265  62.799  1.00  0.00     0.000 HD 
HETATM   19  H1  UNL     1      -9.546   9.460  61.670  1.00  0.00     0.000 HD 
HETATM   20  C   UNL     1     -10.679  11.727  64.811  1.00  0.00    -0.355 A  
ENDBRANCH   9  12
ENDBRANCH   7   8
ENDBRANCH   6   7
ENDBRANCH   3   6
ENDBRANCH   2   3
TORSDOF 6
ENDMDL
MODEL      162
REMARK 921   NORMALIZED FREE ENERGY PREDICTED BY IDOCK:   -3.39 KCAL/MOL
REMARK 922        TOTAL FREE ENERGY PREDICTED BY IDOCK:   -5.05 KCAL/MOL
REMARK 923 INTER-LIGAND FREE ENERGY PREDICTED BY IDOCK:   -4.64 KCAL/MOL
REMARK 924 INTRA-LIGAND FREE ENERGY PREDICTED BY IDOCK:   -0.41 KCAL/MOL
REMARK 927      BINDING AFFINITY PREDICTED BY RF-SCORE:    0.00 PKD
ROOT
HETATM    1  C   UNL     1      -9.336  15.594  66.026  1.00  0.00    -0.384 C  
HETATM    2  C   UNL     1     -10.117  14.326  66.369  1.00  0.00    -0.288 C  
ENDROOT
BRANCH   2   3
HETATM    3  N   UNL     1     -11.515  14.319  65.903  1.00  0.00    -0.329 NA 
BRANCH   3   4
HETATM    4  C   UNL     1     -11.647  14.300  64.431  1.00  0.00    -0.344 C  
HETATM    5  C   UNL     1     -12.076  12.975  63.799  1.00  0.00    -0.574 C  
ENDBRANCH   3   4
BRANCH   3   6
HETATM    6  C   UNL     1     -12.284  13.202  66.507  1.00  0.00    -0.291 C  
BRANCH   6   7
HETATM    7  C   UNL     1     -11.543  12.373  67.573  1.00  0.00    -0.365 C  
BRANCH   7   8
HETATM    8  N   UNL     1     -11.248  11.028  67.124  1.00  0.00    -0.274 N  
HETATM    9  C   UNL     1     -10.198  10.320  67.671  1.00  0.00    -0.205 C  
HETATM   10  H   UNL     1     -11.821  10.601  66.397  1.00  0.00     0.000 HD 
HETATM   11  O   UNL     1      -9.441  10.790  68.515  1.00  0.00    -0.165 OA 
BRANCH   9  12
HETATM   12  C   UNL     1     -10.020   8.918  67.207  1.00  0.00    -0.277 A  
HETATM   13  C   UNL     1      -8.987   8.549  66.339  1.00  0.00    -0.201 A  
HETATM   14  C   UNL     1      -8.852   7.214  65.939  1.00  0.00    -0.128 A  
HETATM   15  C   UNL     1      -9.759   6.241  66.368  1.00  0.00    -0.099 A  
HETATM   16  C   UNL     1     -10.737   6.600  67.298  1.00  0.00    -0.427 A  
HETATM   17  N   UNL     1      -9.542   4.894  66.058  1.00  0.00    -0.164 NA 
HETATM   18  H2  UNL     1      -8.612   4.634  66.386  1.00  0.00     0.000 HD 
HETATM   19  H1  UNL     1     -10.204   4.183  66.371  1.00  0.00     0.000 HD 
HETATM   20  C   UNL     1     -10.881   7.932  67.703  1.00  0.00    -0.125 A  
ENDBRANCH   9  12
ENDBRANCH   7   8
ENDBRANCH   6   7
ENDBRANCH   3   6
ENDBRANCH   2   3
TORSDOF 6
ENDMDL
MODEL      163
REMARK 921   NORMALIZED FREE ENERGY PREDICTED BY IDOCK:   -3.38 KCAL/MOL
REMARK 922        TOTAL FREE ENERGY PREDICTED BY IDOCK:   -5.05 KCAL/MOL
REMARK 923 INTER-LIGAND FREE ENERGY PREDICTED BY IDOCK:   -4.94 KCAL/MOL
REMARK 924 INTRA-LIGAND FREE ENERGY PREDICTED BY IDOCK:   -0.11 KCAL/MOL
REMARK 927      BINDING AFFINITY PREDICTED BY RF-SCORE:    0.00 PKD
ROOT
HETATM    1  C   UNL     1     -14.132  14.008  72.016  1.00  0.00    -0.600 C  
HETATM    2  C   UNL     1     -12.893  13.132  71.837  1.00  0.00    -0.225 C  
ENDROOT
BRANCH   2   3
HETATM    3  N   UNL     1     -12.652  12.680  70.456  1.00  0.00    -0.165 NA 
BRANCH   3   4
HETATM    4  C   UNL     1     -11.728  13.551  69.701  1.00  0.00    -0.314 C  
HETATM    5  C   UNL     1     -11.918  13.601  68.185  1.00  0.00    -0.390 C  
ENDBRANCH   3   4
BRANCH   3   6
HETATM    6  C   UNL     1     -12.184  11.271  70.419  1.00  0.00    -0.365 C  
BRANCH   6   7
HETATM    7  C   UNL     1     -12.707  10.357  71.542  1.00  0.00    -0.459 C  
BRANCH   7   8
HETATM    8  N   UNL     1     -12.301   8.977  71.369  1.00  0.00    -0.308 N  
HETATM    9  C   UNL     1     -10.986   8.605  71.552  1.00  0.00    -0.290 C  
HETATM   10  H   UNL     1     -12.994   8.275  71.108  1.00  0.00     0.000 HD 
HETATM   11  O   UNL     1     -10.094   9.404  71.820  1.00  0.00    -0.200 OA 
BRANCH   9  12
HETATM   12  C   UNL     1     -10.677   7.154  71.433  1.00  0.00    -0.245 A  
HETATM   13  C   UNL     1     -10.406   6.552  70.200  1.00  0.00    -0.241 A  
HETATM   14  C   UNL     1     -10.108   5.186  70.139  1.00  0.00    -0.342 A  
HETATM   15  C   UNL     1     -10.109   4.398  71.293  1.00  0.00    -0.132 A  
HETATM   16  C   UNL     1     -10.299   5.021  72.529  1.00  0.00    -0.255 A  
HETATM   17  N   UNL     1      -9.692   3.064  71.233  1.00  0.00    -0.158 NA 
HETATM   18  H2  UNL     1      -8.758   3.036  70.826  1.00  0.00     0.000 HD 
HETATM   19  H1  UNL     1      -9.693   2.488  72.076  1.00  0.00     0.000 HD 
HETATM   20  C   UNL     1     -10.598   6.386  72.601  1.00  0.00    -0.250 A  
ENDBRANCH   9  12
ENDBRANCH   7   8
ENDBRANCH   6   7
ENDBRANCH   3   6
ENDBRANCH   2   3
TORSDOF 6
ENDMDL
MODEL      164
REMARK 921   NORMALIZED FREE ENERGY PREDICTED BY IDOCK:   -3.37 KCAL/MOL
REMARK 922        TOTAL FREE ENERGY PREDICTED BY IDOCK:   -5.03 KCAL/MOL
REMARK 923 INTER-LIGAND FREE ENERGY PREDICTED BY IDOCK:   -4.47 KCAL/MOL
REMARK 924 INTRA-LIGAND FREE ENERGY PREDICTED BY IDOCK:   -0.56 KCAL/MOL
REMARK 927      BINDING AFFINITY PREDICTED BY RF-SCORE:    0.00 PKD
ROOT
HETATM    1  C   UNL     1     -11.007   6.248  68.006  1.00  0.00    -0.418 C  
HETATM    2  C   UNL     1      -9.602   6.471  68.565  1.00  0.00    -0.123 C  
ENDROOT
BRANCH   2   3
HETATM    3  N   UNL     1      -8.672   7.146  67.643  1.00  0.00    -0.121 NA 
BRANCH   3   4
HETATM    4  C   UNL     1      -9.290   7.532  66.358  1.00  0.00    -0.157 C  
HETATM    5  C   UNL     1      -8.532   8.560  65.516  1.00  0.00    -0.183 C  
ENDBRANCH   3   4
BRANCH   3   6
HETATM    6  C   UNL     1      -8.029   8.321  68.284  1.00  0.00    -0.119 C  
BRANCH   6   7
HETATM    7  C   UNL     1      -8.893   9.094  69.297  1.00  0.00    -0.144 C  
BRANCH   7   8
HETATM    8  N   UNL     1      -9.836   9.986  68.654  1.00  0.00    -0.155 N  
HETATM    9  C   UNL     1      -9.429  11.219  68.188  1.00  0.00    -0.184 C  
HETATM   10  H   UNL     1     -10.809   9.700  68.546  1.00  0.00     0.000 HD 
HETATM   11  O   UNL     1      -8.287  11.645  68.327  1.00  0.00    -0.145 OA 
BRANCH   9  12
HETATM   12  C   UNL     1     -10.447  12.034  67.470  1.00  0.00    -0.234 A  
HETATM   13  C   UNL     1     -10.910  13.254  67.972  1.00  0.00    -0.261 A  
HETATM   14  C   UNL     1     -11.859  13.991  67.255  1.00  0.00    -0.445 A  
HETATM   15  C   UNL     1     -12.381  13.510  66.051  1.00  0.00    -0.433 A  
HETATM   16  C   UNL     1     -11.854  12.333  65.515  1.00  0.00    -0.420 A  
HETATM   17  N   UNL     1     -13.237  14.311  65.287  1.00  0.00    -0.598 NA 
HETATM   18  H2  UNL     1     -12.768  15.198  65.103  1.00  0.00     0.000 HD 
HETATM   19  H1  UNL     1     -13.618  13.961  64.408  1.00  0.00     0.000 HD 
HETATM   20  C   UNL     1     -10.906  11.588  66.225  1.00  0.00    -0.333 A  
ENDBRANCH   9  12
ENDBRANCH   7   8
ENDBRANCH   6   7
ENDBRANCH   3   6
ENDBRANCH   2   3
TORSDOF 6
ENDMDL
MODEL      165
REMARK 921   NORMALIZED FREE ENERGY PREDICTED BY IDOCK:   -3.35 KCAL/MOL
REMARK 922        TOTAL FREE ENERGY PREDICTED BY IDOCK:   -5.00 KCAL/MOL
REMARK 923 INTER-LIGAND FREE ENERGY PREDICTED BY IDOCK:   -4.89 KCAL/MOL
REMARK 924 INTRA-LIGAND FREE ENERGY PREDICTED BY IDOCK:   -0.11 KCAL/MOL
REMARK 927      BINDING AFFINITY PREDICTED BY RF-SCORE:    0.00 PKD
ROOT
HETATM    1  C   UNL     1      -9.481   6.747  72.923  1.00  0.00    -0.156 C  
HETATM    2  C   UNL     1     -10.864   7.370  73.107  1.00  0.00    -0.386 C  
ENDROOT
BRANCH   2   3
HETATM    3  N   UNL     1     -11.583   7.656  71.853  1.00  0.00    -0.270 NA 
BRANCH   3   4
HETATM    4  C   UNL     1     -12.891   8.312  72.058  1.00  0.00    -0.340 C  
HETATM    5  C   UNL     1     -14.097   7.660  71.381  1.00  0.00    -0.479 C  
ENDBRANCH   3   4
BRANCH   3   6
HETATM    6  C   UNL     1     -10.746   8.449  70.916  1.00  0.00    -0.222 C  
BRANCH   6   7
HETATM    7  C   UNL     1     -10.127   7.670  69.741  1.00  0.00    -0.196 C  
BRANCH   7   8
HETATM    8  N   UNL     1      -9.876   8.511  68.589  1.00  0.00    -0.165 N  
HETATM    9  C   UNL     1     -10.328   8.141  67.340  1.00  0.00    -0.281 C  
HETATM   10  H   UNL     1      -9.361   9.384  68.703  1.00  0.00     0.000 HD 
HETATM   11  O   UNL     1     -10.913   7.084  67.124  1.00  0.00    -0.357 OA 
BRANCH   9  12
HETATM   12  C   UNL     1     -10.096   9.105  66.230  1.00  0.00    -0.319 A  
HETATM   13  C   UNL     1     -10.760  10.334  66.163  1.00  0.00    -0.042 A  
HETATM   14  C   UNL     1     -10.499  11.214  65.106  1.00  0.00    -0.341 A  
HETATM   15  C   UNL     1      -9.604  10.870  64.089  1.00  0.00    -0.277 A  
HETATM   16  C   UNL     1      -8.884   9.678  64.206  1.00  0.00    -0.260 A  
HETATM   17  N   UNL     1      -9.264  11.805  63.106  1.00  0.00    -0.640 NA 
HETATM   18  H2  UNL     1      -8.917  12.646  63.568  1.00  0.00     0.000 HD 
HETATM   19  H1  UNL     1      -8.610  11.555  62.364  1.00  0.00     0.000 HD 
HETATM   20  C   UNL     1      -9.138   8.792  65.258  1.00  0.00    -0.156 A  
ENDBRANCH   9  12
ENDBRANCH   7   8
ENDBRANCH   6   7
ENDBRANCH   3   6
ENDBRANCH   2   3
TORSDOF 6
ENDMDL
MODEL      166
REMARK 921   NORMALIZED FREE ENERGY PREDICTED BY IDOCK:   -3.35 KCAL/MOL
REMARK 922        TOTAL FREE ENERGY PREDICTED BY IDOCK:   -5.00 KCAL/MOL
REMARK 923 INTER-LIGAND FREE ENERGY PREDICTED BY IDOCK:   -4.66 KCAL/MOL
REMARK 924 INTRA-LIGAND FREE ENERGY PREDICTED BY IDOCK:   -0.33 KCAL/MOL
REMARK 927      BINDING AFFINITY PREDICTED BY RF-SCORE:    0.00 PKD
ROOT
HETATM    1  C   UNL     1     -11.034   6.706  67.149  1.00  0.00    -0.478 C  
HETATM    2  C   UNL     1     -10.156   7.792  67.769  1.00  0.00    -0.189 C  
ENDROOT
BRANCH   2   3
HETATM    3  N   UNL     1     -10.597   8.258  69.096  1.00  0.00    -0.202 NA 
BRANCH   3   4
HETATM    4  C   UNL     1      -9.941   7.553  70.217  1.00  0.00    -0.192 C  
HETATM    5  C   UNL     1      -8.529   7.024  69.962  1.00  0.00    -0.140 C  
ENDBRANCH   3   4
BRANCH   3   6
HETATM    6  C   UNL     1     -10.432   9.726  69.238  1.00  0.00    -0.219 C  
BRANCH   6   7
HETATM    7  C   UNL     1     -10.036  10.488  67.960  1.00  0.00    -0.165 C  
BRANCH   7   8
HETATM    8  N   UNL     1      -9.963  11.919  68.168  1.00  0.00    -0.192 N  
HETATM    9  C   UNL     1     -11.087  12.706  68.033  1.00  0.00    -0.251 C  
HETATM   10  H   UNL     1      -9.071  12.349  68.415  1.00  0.00     0.000 HD 
HETATM   11  O   UNL     1     -12.179  12.263  67.693  1.00  0.00    -0.442 OA 
BRANCH   9  12
HETATM   12  C   UNL     1     -10.934  14.154  68.344  1.00  0.00    -0.270 A  
HETATM   13  C   UNL     1     -11.443  14.719  69.518  1.00  0.00    -0.331 A  
HETATM   14  C   UNL     1     -11.263  16.083  69.773  1.00  0.00    -0.344 A  
HETATM   15  C   UNL     1     -10.608  16.906  68.852  1.00  0.00    -0.353 A  
HETATM   16  C   UNL     1     -10.031  16.320  67.723  1.00  0.00    -0.246 A  
HETATM   17  N   UNL     1     -10.331  18.239  69.174  1.00  0.00    -0.419 NA 
HETATM   18  H2  UNL     1      -9.809  18.256  70.050  1.00  0.00     0.000 HD 
HETATM   19  H1  UNL     1      -9.852  18.839  68.503  1.00  0.00     0.000 HD 
HETATM   20  C   UNL     1     -10.205  14.957  67.459  1.00  0.00    -0.233 A  
ENDBRANCH   9  12
ENDBRANCH   7   8
ENDBRANCH   6   7
ENDBRANCH   3   6
ENDBRANCH   2   3
TORSDOF 6
ENDMDL
MODEL      167
REMARK 921   NORMALIZED FREE ENERGY PREDICTED BY IDOCK:   -3.34 KCAL/MOL
REMARK 922        TOTAL FREE ENERGY PREDICTED BY IDOCK:   -4.99 KCAL/MOL
REMARK 923 INTER-LIGAND FREE ENERGY PREDICTED BY IDOCK:   -4.47 KCAL/MOL
REMARK 924 INTRA-LIGAND FREE ENERGY PREDICTED BY IDOCK:   -0.52 KCAL/MOL
REMARK 927      BINDING AFFINITY PREDICTED BY RF-SCORE:    0.00 PKD
ROOT
HETATM    1  C   UNL     1      -6.915   3.257  72.956  1.00  0.00    -0.039 C  
HETATM    2  C   UNL     1      -6.634   4.608  72.300  1.00  0.00    -0.038 C  
ENDROOT
BRANCH   2   3
HETATM    3  N   UNL     1      -7.829   5.308  71.795  1.00  0.00    -0.108 NA 
BRANCH   3   4
HETATM    4  C   UNL     1      -7.515   6.468  70.935  1.00  0.00    -0.084 C  
HETATM    5  C   UNL     1      -7.849   7.849  71.500  1.00  0.00    -0.100 C  
ENDBRANCH   3   4
BRANCH   3   6
HETATM    6  C   UNL     1      -8.749   4.376  71.094  1.00  0.00    -0.106 C  
BRANCH   6   7
HETATM    7  C   UNL     1     -10.220   4.414  71.545  1.00  0.00    -0.097 C  
BRANCH   7   8
HETATM    8  N   UNL     1     -10.698   5.763  71.769  1.00  0.00    -0.242 N  
HETATM    9  C   UNL     1     -11.320   6.463  70.757  1.00  0.00    -0.350 C  
HETATM   10  H   UNL     1     -10.572   6.198  72.683  1.00  0.00     0.000 HD 
HETATM   11  O   UNL     1     -11.462   6.018  69.623  1.00  0.00    -0.394 OA 
BRANCH   9  12
HETATM   12  C   UNL     1     -11.850   7.811  71.102  1.00  0.00    -0.311 A  
HETATM   13  C   UNL     1     -11.195   8.986  70.718  1.00  0.00    -0.329 A  
HETATM   14  C   UNL     1     -11.739  10.231  71.055  1.00  0.00    -0.461 A  
HETATM   15  C   UNL     1     -12.916  10.323  71.802  1.00  0.00    -0.469 A  
HETATM   16  C   UNL     1     -13.607   9.148  72.110  1.00  0.00    -0.534 A  
HETATM   17  N   UNL     1     -13.510  11.569  72.027  1.00  0.00    -0.453 NA 
HETATM   18  H2  UNL     1     -13.666  12.019  71.125  1.00  0.00     0.000 HD 
HETATM   19  H1  UNL     1     -14.369  11.637  72.573  1.00  0.00     0.000 HD 
HETATM   20  C   UNL     1     -13.072   7.899  71.779  1.00  0.00    -0.352 A  
ENDBRANCH   9  12
ENDBRANCH   7   8
ENDBRANCH   6   7
ENDBRANCH   3   6
ENDBRANCH   2   3
TORSDOF 6
ENDMDL
MODEL      168
REMARK 921   NORMALIZED FREE ENERGY PREDICTED BY IDOCK:   -3.33 KCAL/MOL
REMARK 922        TOTAL FREE ENERGY PREDICTED BY IDOCK:   -4.98 KCAL/MOL
REMARK 923 INTER-LIGAND FREE ENERGY PREDICTED BY IDOCK:   -4.46 KCAL/MOL
REMARK 924 INTRA-LIGAND FREE ENERGY PREDICTED BY IDOCK:   -0.52 KCAL/MOL
REMARK 927      BINDING AFFINITY PREDICTED BY RF-SCORE:    0.00 PKD
ROOT
HETATM    1  C   UNL     1     -12.710  14.214  65.186  1.00  0.00    -0.387 C  
HETATM    2  C   UNL     1     -11.289  13.749  64.871  1.00  0.00    -0.347 C  
ENDROOT
BRANCH   2   3
HETATM    3  N   UNL     1     -10.922  12.447  65.457  1.00  0.00    -0.284 NA 
BRANCH   3   4
HETATM    4  C   UNL     1     -11.824  12.014  66.545  1.00  0.00    -0.158 C  
HETATM    5  C   UNL     1     -11.160  11.545  67.840  1.00  0.00    -0.317 C  
ENDBRANCH   3   4
BRANCH   3   6
HETATM    6  C   UNL     1     -10.819  11.393  64.417  1.00  0.00    -0.330 C  
BRANCH   6   7
HETATM    7  C   UNL     1      -9.458  10.681  64.311  1.00  0.00    -0.274 C  
BRANCH   7   8
HETATM    8  N   UNL     1      -9.525   9.292  64.716  1.00  0.00    -0.432 N  
HETATM    9  C   UNL     1      -9.074   8.901  65.959  1.00  0.00    -0.214 C  
HETATM   10  H   UNL     1      -9.909   8.597  64.076  1.00  0.00     0.000 HD 
HETATM   11  O   UNL     1      -8.559   9.675  66.760  1.00  0.00    -0.132 OA 
BRANCH   9  12
HETATM   12  C   UNL     1      -9.257   7.468  66.319  1.00  0.00    -0.194 A  
HETATM   13  C   UNL     1     -10.498   6.953  66.706  1.00  0.00    -0.300 A  
HETATM   14  C   UNL     1     -10.624   5.596  67.024  1.00  0.00    -0.358 A  
HETATM   15  C   UNL     1      -9.516   4.745  66.993  1.00  0.00    -0.152 A  
HETATM   16  C   UNL     1      -8.298   5.248  66.527  1.00  0.00    -0.108 A  
HETATM   17  N   UNL     1      -9.679   3.370  67.196  1.00  0.00    -0.357 NA 
HETATM   18  H2  UNL     1     -10.367   3.026  66.526  1.00  0.00     0.000 HD 
HETATM   19  H1  UNL     1      -8.870   2.749  67.173  1.00  0.00     0.000 HD 
HETATM   20  C   UNL     1      -8.162   6.603  66.208  1.00  0.00    -0.120 A  
ENDBRANCH   9  12
ENDBRANCH   7   8
ENDBRANCH   6   7
ENDBRANCH   3   6
ENDBRANCH   2   3
TORSDOF 6
ENDMDL
MODEL      169
REMARK 921   NORMALIZED FREE ENERGY PREDICTED BY IDOCK:   -3.33 KCAL/MOL
REMARK 922        TOTAL FREE ENERGY PREDICTED BY IDOCK:   -4.98 KCAL/MOL
REMARK 923 INTER-LIGAND FREE ENERGY PREDICTED BY IDOCK:   -4.43 KCAL/MOL
REMARK 924 INTRA-LIGAND FREE ENERGY PREDICTED BY IDOCK:   -0.55 KCAL/MOL
REMARK 927      BINDING AFFINITY PREDICTED BY RF-SCORE:    0.00 PKD
ROOT
HETATM    1  C   UNL     1     -10.017   7.453  73.412  1.00  0.00    -0.365 C  
HETATM    2  C   UNL     1     -11.047   6.765  72.517  1.00  0.00    -0.264 C  
ENDROOT
BRANCH   2   3
HETATM    3  N   UNL     1     -11.202   7.367  71.181  1.00  0.00    -0.253 NA 
BRANCH   3   4
HETATM    4  C   UNL     1     -11.126   6.386  70.079  1.00  0.00    -0.379 C  
HETATM    5  C   UNL     1     -11.713   6.818  68.735  1.00  0.00     0.438 C  
ENDBRANCH   3   4
BRANCH   3   6
HETATM    6  C   UNL     1     -12.454   8.160  71.084  1.00  0.00    -0.182 C  
BRANCH   6   7
HETATM    7  C   UNL     1     -12.279   9.687  70.995  1.00  0.00    -0.323 C  
BRANCH   7   8
HETATM    8  N   UNL     1     -11.999  10.136  69.647  1.00  0.00    -0.485 N  
HETATM    9  C   UNL     1     -10.698  10.285  69.213  1.00  0.00    -0.234 C  
HETATM   10  H   UNL     1     -12.770  10.343  69.012  1.00  0.00     0.000 HD 
HETATM   11  O   UNL     1      -9.725  10.098  69.937  1.00  0.00    -0.222 OA 
BRANCH   9  12
HETATM   12  C   UNL     1     -10.505  10.672  67.789  1.00  0.00    -0.258 A  
HETATM   13  C   UNL     1     -11.279  11.663  67.178  1.00  0.00    -0.371 A  
HETATM   14  C   UNL     1     -11.053  12.002  65.839  1.00  0.00    -0.369 A  
HETATM   15  C   UNL     1     -10.081  11.338  65.085  1.00  0.00    -0.275 A  
HETATM   16  C   UNL     1      -9.257  10.409  65.724  1.00  0.00    -0.210 A  
HETATM   17  N   UNL     1      -9.784  11.768  63.787  1.00  0.00    -0.478 NA 
HETATM   18  H2  UNL     1      -9.543  12.758  63.823  1.00  0.00     0.000 HD 
HETATM   19  H1  UNL     1      -9.075  11.284  63.236  1.00  0.00     0.000 HD 
HETATM   20  C   UNL     1      -9.476  10.063  67.062  1.00  0.00    -0.197 A  
ENDBRANCH   9  12
ENDBRANCH   7   8
ENDBRANCH   6   7
ENDBRANCH   3   6
ENDBRANCH   2   3
TORSDOF 6
ENDMDL
MODEL      170
REMARK 921   NORMALIZED FREE ENERGY PREDICTED BY IDOCK:   -3.31 KCAL/MOL
REMARK 922        TOTAL FREE ENERGY PREDICTED BY IDOCK:   -4.94 KCAL/MOL
REMARK 923 INTER-LIGAND FREE ENERGY PREDICTED BY IDOCK:   -4.31 KCAL/MOL
REMARK 924 INTRA-LIGAND FREE ENERGY PREDICTED BY IDOCK:   -0.63 KCAL/MOL
REMARK 927      BINDING AFFINITY PREDICTED BY RF-SCORE:    0.00 PKD
ROOT
HETATM    1  C   UNL     1      -6.139   5.146  66.715  1.00  0.00    -0.030 C  
HETATM    2  C   UNL     1      -7.458   4.456  66.371  1.00  0.00    -0.082 C  
ENDROOT
BRANCH   2   3
HETATM    3  N   UNL     1      -8.640   5.007  67.059  1.00  0.00    -0.106 NA 
BRANCH   3   4
HETATM    4  C   UNL     1      -9.478   5.867  66.198  1.00  0.00    -0.106 C  
HETATM    5  C   UNL     1     -10.562   6.688  66.897  1.00  0.00    -0.376 C  
ENDBRANCH   3   4
BRANCH   3   6
HETATM    6  C   UNL     1      -9.459   3.932  67.675  1.00  0.00    -0.185 C  
BRANCH   6   7
HETATM    7  C   UNL     1      -9.342   3.786  69.203  1.00  0.00    -0.173 C  
BRANCH   7   8
HETATM    8  N   UNL     1     -10.239   4.672  69.915  1.00  0.00    -0.189 N  
HETATM    9  C   UNL     1      -9.800   5.899  70.368  1.00  0.00    -0.182 C  
HETATM   10  H   UNL     1     -11.204   4.386  70.084  1.00  0.00     0.000 HD 
HETATM   11  O   UNL     1      -8.643   6.286  70.241  1.00  0.00    -0.134 OA 
BRANCH   9  12
HETATM   12  C   UNL     1     -10.812   6.775  71.018  1.00  0.00    -0.280 A  
HETATM   13  C   UNL     1     -12.185   6.534  70.905  1.00  0.00    -0.225 A  
HETATM   14  C   UNL     1     -13.099   7.379  71.545  1.00  0.00    -0.424 A  
HETATM   15  C   UNL     1     -12.663   8.490  72.273  1.00  0.00    -0.367 A  
HETATM   16  C   UNL     1     -11.290   8.678  72.449  1.00  0.00    -0.353 A  
HETATM   17  N   UNL     1     -13.578   9.255  73.004  1.00  0.00    -0.856 NA 
HETATM   18  H2  UNL     1     -14.083   8.634  73.636  1.00  0.00     0.000 HD 
HETATM   19  H1  UNL     1     -13.260  10.065  73.536  1.00  0.00     0.000 HD 
HETATM   20  C   UNL     1     -10.368   7.838  71.813  1.00  0.00    -0.243 A  
ENDBRANCH   9  12
ENDBRANCH   7   8
ENDBRANCH   6   7
ENDBRANCH   3   6
ENDBRANCH   2   3
TORSDOF 6
ENDMDL
MODEL      171
REMARK 921   NORMALIZED FREE ENERGY PREDICTED BY IDOCK:   -3.30 KCAL/MOL
REMARK 922        TOTAL FREE ENERGY PREDICTED BY IDOCK:   -4.94 KCAL/MOL
REMARK 923 INTER-LIGAND FREE ENERGY PREDICTED BY IDOCK:   -4.43 KCAL/MOL
REMARK 924 INTRA-LIGAND FREE ENERGY PREDICTED BY IDOCK:   -0.51 KCAL/MOL
REMARK 927      BINDING AFFINITY PREDICTED BY RF-SCORE:    0.00 PKD
ROOT
HETATM    1  C   UNL     1      -9.554  10.621  63.630  1.00  0.00    -0.360 C  
HETATM    2  C   UNL     1     -10.873  11.197  64.144  1.00  0.00    -0.285 C  
ENDROOT
BRANCH   2   3
HETATM    3  N   UNL     1     -10.732  12.357  65.041  1.00  0.00    -0.284 NA 
BRANCH   3   4
HETATM    4  C   UNL     1     -10.767  13.656  64.337  1.00  0.00    -0.354 C  
HETATM    5  C   UNL     1     -11.580  14.771  64.996  1.00  0.00    -0.378 C  
ENDBRANCH   3   4
BRANCH   3   6
HETATM    6  C   UNL     1     -11.742  12.329  66.128  1.00  0.00    -0.376 C  
BRANCH   6   7
HETATM    7  C   UNL     1     -11.282  11.713  67.462  1.00  0.00    -0.293 C  
BRANCH   7   8
HETATM    8  N   UNL     1     -11.084  10.281  67.372  1.00  0.00    -0.285 N  
HETATM    9  C   UNL     1      -9.813   9.745  67.394  1.00  0.00    -0.174 C  
HETATM   10  H   UNL     1     -11.891   9.663  67.291  1.00  0.00     0.000 HD 
HETATM   11  O   UNL     1      -8.797  10.432  67.442  1.00  0.00    -0.132 OA 
BRANCH   9  12
HETATM   12  C   UNL     1      -9.710   8.261  67.378  1.00  0.00    -0.225 A  
HETATM   13  C   UNL     1     -10.778   7.447  66.989  1.00  0.00    -0.389 A  
HETATM   14  C   UNL     1     -10.630   6.055  66.979  1.00  0.00    -0.385 A  
HETATM   15  C   UNL     1      -9.434   5.457  67.385  1.00  0.00    -0.120 A  
HETATM   16  C   UNL     1      -8.346   6.277  67.693  1.00  0.00    -0.117 A  
HETATM   17  N   UNL     1      -9.260   4.075  67.256  1.00  0.00    -0.151 NA 
HETATM   18  H2  UNL     1      -9.433   3.818  66.284  1.00  0.00     0.000 HD 
HETATM   19  H1  UNL     1      -8.386   3.638  67.552  1.00  0.00     0.000 HD 
HETATM   20  C   UNL     1      -8.484   7.669  67.707  1.00  0.00    -0.122 A  
ENDBRANCH   9  12
ENDBRANCH   7   8
ENDBRANCH   6   7
ENDBRANCH   3   6
ENDBRANCH   2   3
TORSDOF 6
ENDMDL
MODEL      172
REMARK 921   NORMALIZED FREE ENERGY PREDICTED BY IDOCK:   -3.26 KCAL/MOL
REMARK 922        TOTAL FREE ENERGY PREDICTED BY IDOCK:   -4.88 KCAL/MOL
REMARK 923 INTER-LIGAND FREE ENERGY PREDICTED BY IDOCK:   -4.56 KCAL/MOL
REMARK 924 INTRA-LIGAND FREE ENERGY PREDICTED BY IDOCK:   -0.32 KCAL/MOL
REMARK 927      BINDING AFFINITY PREDICTED BY RF-SCORE:    0.00 PKD
ROOT
HETATM    1  C   UNL     1     -12.695  14.101  65.102  1.00  0.00    -0.387 C  
HETATM    2  C   UNL     1     -11.941  13.026  65.884  1.00  0.00    -0.435 C  
ENDROOT
BRANCH   2   3
HETATM    3  N   UNL     1     -10.552  13.377  66.231  1.00  0.00    -0.287 NA 
BRANCH   3   4
HETATM    4  C   UNL     1     -10.425  14.685  66.905  1.00  0.00    -0.270 C  
HETATM    5  C   UNL     1      -9.511  15.714  66.237  1.00  0.00    -0.351 C  
ENDBRANCH   3   4
BRANCH   3   6
HETATM    6  C   UNL     1      -9.909  12.311  67.041  1.00  0.00    -0.205 C  
BRANCH   6   7
HETATM    7  C   UNL     1     -10.824  11.152  67.479  1.00  0.00    -0.254 C  
BRANCH   7   8
HETATM    8  N   UNL     1     -10.409   9.879  66.928  1.00  0.00    -0.239 N  
HETATM    9  C   UNL     1     -10.346   8.756  67.726  1.00  0.00    -0.237 C  
HETATM   10  H   UNL     1     -10.160   9.812  65.941  1.00  0.00     0.000 HD 
HETATM   11  O   UNL     1     -10.585   8.774  68.929  1.00  0.00    -0.215 OA 
BRANCH   9  12
HETATM   12  C   UNL     1      -9.988   7.476  67.056  1.00  0.00    -0.304 A  
HETATM   13  C   UNL     1      -8.698   7.225  66.577  1.00  0.00    -0.141 A  
HETATM   14  C   UNL     1      -8.405   6.000  65.965  1.00  0.00    -0.134 A  
HETATM   15  C   UNL     1      -9.395   5.028  65.792  1.00  0.00    -0.160 A  
HETATM   16  C   UNL     1     -10.658   5.253  66.347  1.00  0.00    -0.338 A  
HETATM   17  N   UNL     1      -9.061   3.767  65.289  1.00  0.00    -0.136 NA 
HETATM   18  H2  UNL     1      -8.322   3.374  65.872  1.00  0.00     0.000 HD 
HETATM   19  H1  UNL     1      -9.783   3.057  65.163  1.00  0.00     0.000 HD 
HETATM   20  C   UNL     1     -10.960   6.474  66.959  1.00  0.00    -0.466 A  
ENDBRANCH   9  12
ENDBRANCH   7   8
ENDBRANCH   6   7
ENDBRANCH   3   6
ENDBRANCH   2   3
TORSDOF 6
ENDMDL
MODEL      173
REMARK 921   NORMALIZED FREE ENERGY PREDICTED BY IDOCK:   -3.25 KCAL/MOL
REMARK 922        TOTAL FREE ENERGY PREDICTED BY IDOCK:   -4.86 KCAL/MOL
REMARK 923 INTER-LIGAND FREE ENERGY PREDICTED BY IDOCK:   -4.51 KCAL/MOL
REMARK 924 INTRA-LIGAND FREE ENERGY PREDICTED BY IDOCK:   -0.35 KCAL/MOL
REMARK 927      BINDING AFFINITY PREDICTED BY RF-SCORE:    0.00 PKD
ROOT
HETATM    1  C   UNL     1     -13.082  14.270  72.406  1.00  0.00    -0.519 C  
HETATM    2  C   UNL     1     -12.176  13.883  71.238  1.00  0.00    -0.268 C  
ENDROOT
BRANCH   2   3
HETATM    3  N   UNL     1     -11.870  14.982  70.305  1.00  0.00    -0.287 NA 
BRANCH   3   4
HETATM    4  C   UNL     1     -10.668  15.756  70.677  1.00  0.00    -0.173 C  
HETATM    5  C   UNL     1      -9.635  15.989  69.573  1.00  0.00    -0.200 C  
ENDBRANCH   3   4
BRANCH   3   6
HETATM    6  C   UNL     1     -11.761  14.493  68.907  1.00  0.00    -0.319 C  
BRANCH   6   7
HETATM    7  C   UNL     1     -12.201  13.037  68.665  1.00  0.00    -0.002 C  
BRANCH   7   8
HETATM    8  N   UNL     1     -11.713  12.511  67.407  1.00  0.00    -0.370 N  
HETATM    9  C   UNL     1     -10.542  11.784  67.358  1.00  0.00    -0.224 C  
HETATM   10  H   UNL     1     -12.239  12.681  66.550  1.00  0.00     0.000 HD 
HETATM   11  O   UNL     1      -9.837  11.582  68.342  1.00  0.00    -0.193 OA 
BRANCH   9  12
HETATM   12  C   UNL     1     -10.161  11.215  66.037  1.00  0.00    -0.292 A  
HETATM   13  C   UNL     1     -10.802  11.593  64.853  1.00  0.00    -0.359 A  
HETATM   14  C   UNL     1     -10.400  11.039  63.632  1.00  0.00    -0.415 A  
HETATM   15  C   UNL     1      -9.383  10.082  63.577  1.00  0.00    -0.256 A  
HETATM   16  C   UNL     1      -8.692   9.771  64.751  1.00  0.00    -0.216 A  
HETATM   17  N   UNL     1      -8.911   9.628  62.341  1.00  0.00    -0.231 NA 
HETATM   18  H2  UNL     1      -8.622  10.437  61.790  1.00  0.00     0.000 HD 
HETATM   19  H1  UNL     1      -8.168   8.930  62.301  1.00  0.00     0.000 HD 
HETATM   20  C   UNL     1      -9.087  10.318  65.977  1.00  0.00    -0.189 A  
ENDBRANCH   9  12
ENDBRANCH   7   8
ENDBRANCH   6   7
ENDBRANCH   3   6
ENDBRANCH   2   3
TORSDOF 6
ENDMDL
MODEL      174
REMARK 921   NORMALIZED FREE ENERGY PREDICTED BY IDOCK:   -3.25 KCAL/MOL
REMARK 922        TOTAL FREE ENERGY PREDICTED BY IDOCK:   -4.86 KCAL/MOL
REMARK 923 INTER-LIGAND FREE ENERGY PREDICTED BY IDOCK:   -4.47 KCAL/MOL
REMARK 924 INTRA-LIGAND FREE ENERGY PREDICTED BY IDOCK:   -0.39 KCAL/MOL
REMARK 927      BINDING AFFINITY PREDICTED BY RF-SCORE:    0.00 PKD
ROOT
HETATM    1  C   UNL     1      -8.349   3.351  66.090  1.00  0.00    -0.103 C  
HETATM    2  C   UNL     1      -8.955   4.287  67.135  1.00  0.00    -0.123 C  
ENDROOT
BRANCH   2   3
HETATM    3  N   UNL     1      -8.016   4.735  68.179  1.00  0.00    -0.085 NA 
BRANCH   3   4
HETATM    4  C   UNL     1      -6.996   5.685  67.687  1.00  0.00    -0.066 C  
HETATM    5  C   UNL     1      -6.950   7.054  68.367  1.00  0.00    -0.076 C  
ENDBRANCH   3   4
BRANCH   3   6
HETATM    6  C   UNL     1      -8.734   5.304  69.347  1.00  0.00    -0.100 C  
BRANCH   6   7
HETATM    7  C   UNL     1     -10.271   5.254  69.284  1.00  0.00    -0.231 C  
BRANCH   7   8
HETATM    8  N   UNL     1     -10.883   6.513  69.656  1.00  0.00    -0.272 N  
HETATM    9  C   UNL     1     -11.417   6.689  70.915  1.00  0.00    -0.347 C  
HETATM   10  H   UNL     1     -10.919   7.277  68.980  1.00  0.00     0.000 HD 
HETATM   11  O   UNL     1     -11.450   5.800  71.760  1.00  0.00    -0.236 OA 
BRANCH   9  12
HETATM   12  C   UNL     1     -11.952   8.041  71.234  1.00  0.00    -0.321 A  
HETATM   13  C   UNL     1     -11.396   9.205  70.695  1.00  0.00    -0.323 A  
HETATM   14  C   UNL     1     -11.941  10.454  71.015  1.00  0.00    -0.481 A  
HETATM   15  C   UNL     1     -13.019  10.563  71.897  1.00  0.00    -0.447 A  
HETATM   16  C   UNL     1     -13.621   9.393  72.367  1.00  0.00    -0.498 A  
HETATM   17  N   UNL     1     -13.628  11.804  72.113  1.00  0.00    -0.445 NA 
HETATM   18  H2  UNL     1     -13.912  12.184  71.211  1.00  0.00     0.000 HD 
HETATM   19  H1  UNL     1     -14.415  11.883  72.758  1.00  0.00     0.000 HD 
HETATM   20  C   UNL     1     -13.083   8.140  72.053  1.00  0.00    -0.317 A  
ENDBRANCH   9  12
ENDBRANCH   7   8
ENDBRANCH   6   7
ENDBRANCH   3   6
ENDBRANCH   2   3
TORSDOF 6
ENDMDL
MODEL      175
REMARK 921   NORMALIZED FREE ENERGY PREDICTED BY IDOCK:   -3.24 KCAL/MOL
REMARK 922        TOTAL FREE ENERGY PREDICTED BY IDOCK:   -4.85 KCAL/MOL
REMARK 923 INTER-LIGAND FREE ENERGY PREDICTED BY IDOCK:   -4.58 KCAL/MOL
REMARK 924 INTRA-LIGAND FREE ENERGY PREDICTED BY IDOCK:   -0.27 KCAL/MOL
REMARK 927      BINDING AFFINITY PREDICTED BY RF-SCORE:    0.00 PKD
ROOT
HETATM    1  C   UNL     1      -7.177  14.908  69.151  1.00  0.00    -0.153 C  
HETATM    2  C   UNL     1      -7.971  15.388  67.937  1.00  0.00    -0.135 C  
ENDROOT
BRANCH   2   3
HETATM    3  N   UNL     1      -9.302  15.937  68.250  1.00  0.00    -0.192 NA 
BRANCH   3   4
HETATM    4  C   UNL     1      -9.528  17.290  67.700  1.00  0.00    -0.246 C  
HETATM    5  C   UNL     1      -9.272  18.465  68.645  1.00  0.00    -0.328 C  
ENDBRANCH   3   4
BRANCH   3   6
HETATM    6  C   UNL     1     -10.385  15.016  67.821  1.00  0.00    -0.245 C  
BRANCH   6   7
HETATM    7  C   UNL     1     -11.207  14.369  68.951  1.00  0.00    -0.262 C  
BRANCH   7   8
HETATM    8  N   UNL     1     -10.953  12.949  69.079  1.00  0.00    -0.371 N  
HETATM    9  C   UNL     1     -11.462  12.059  68.157  1.00  0.00    -0.322 C  
HETATM   10  H   UNL     1     -10.393  12.605  69.859  1.00  0.00     0.000 HD 
HETATM   11  O   UNL     1     -12.181  12.400  67.222  1.00  0.00    -0.478 OA 
BRANCH   9  12
HETATM   12  C   UNL     1     -11.082  10.630  68.323  1.00  0.00    -0.334 A  
HETATM   13  C   UNL     1     -10.723   9.826  67.237  1.00  0.00    -0.296 A  
HETATM   14  C   UNL     1     -10.361   8.490  67.444  1.00  0.00    -0.356 A  
HETATM   15  C   UNL     1     -10.385   7.930  68.724  1.00  0.00    -0.203 A  
HETATM   16  C   UNL     1     -10.665   8.759  69.813  1.00  0.00    -0.220 A  
HETATM   17  N   UNL     1      -9.907   6.632  68.932  1.00  0.00    -0.138 NA 
HETATM   18  H2  UNL     1      -8.952   6.579  68.576  1.00  0.00     0.000 HD 
HETATM   19  H1  UNL     1      -9.924   6.222  69.867  1.00  0.00     0.000 HD 
HETATM   20  C   UNL     1     -11.028  10.096  69.616  1.00  0.00    -0.305 A  
ENDBRANCH   9  12
ENDBRANCH   7   8
ENDBRANCH   6   7
ENDBRANCH   3   6
ENDBRANCH   2   3
TORSDOF 6
ENDMDL
MODEL      176
REMARK 921   NORMALIZED FREE ENERGY PREDICTED BY IDOCK:   -3.23 KCAL/MOL
REMARK 922        TOTAL FREE ENERGY PREDICTED BY IDOCK:   -4.84 KCAL/MOL
REMARK 923 INTER-LIGAND FREE ENERGY PREDICTED BY IDOCK:   -4.52 KCAL/MOL
REMARK 924 INTRA-LIGAND FREE ENERGY PREDICTED BY IDOCK:   -0.32 KCAL/MOL
REMARK 927      BINDING AFFINITY PREDICTED BY RF-SCORE:    0.00 PKD
ROOT
HETATM    1  C   UNL     1     -12.370  13.573  70.418  1.00  0.00    -0.397 C  
HETATM    2  C   UNL     1     -11.215  13.845  69.455  1.00  0.00    -0.224 C  
ENDROOT
BRANCH   2   3
HETATM    3  N   UNL     1     -11.362  13.226  68.125  1.00  0.00    -0.270 NA 
BRANCH   3   4
HETATM    4  C   UNL     1     -12.161  11.983  68.138  1.00  0.00     0.029 C  
HETATM    5  C   UNL     1     -11.448  10.715  68.612  1.00  0.00    -0.332 C  
ENDBRANCH   3   4
BRANCH   3   6
HETATM    6  C   UNL     1     -11.913  14.187  67.137  1.00  0.00    -0.426 C  
BRANCH   6   7
HETATM    7  C   UNL     1     -11.004  14.517  65.938  1.00  0.00    -0.320 C  
BRANCH   7   8
HETATM    8  N   UNL     1     -10.351  15.802  66.075  1.00  0.00    -0.320 N  
HETATM    9  C   UNL     1      -8.994  15.878  66.308  1.00  0.00    -0.346 C  
HETATM   10  H   UNL     1     -10.900  16.659  65.998  1.00  0.00     0.000 HD 
HETATM   11  O   UNL     1      -8.283  14.889  66.458  1.00  0.00    -0.051 OA 
BRANCH   9  12
HETATM   12  C   UNL     1      -8.396  17.241  66.353  1.00  0.00    -0.315 A  
HETATM   13  C   UNL     1      -7.209  17.553  65.683  1.00  0.00     0.185 A  
HETATM   14  C   UNL     1      -6.692  18.852  65.744  1.00  0.00    -0.303 A  
HETATM   15  C   UNL     1      -7.327  19.844  66.497  1.00  0.00    -0.265 A  
HETATM   16  C   UNL     1      -8.555  19.547  67.095  1.00  0.00    -0.337 A  
HETATM   17  N   UNL     1      -6.866  21.164  66.452  1.00  0.00    -0.554 NA 
HETATM   18  H2  UNL     1      -6.844  21.464  65.477  1.00  0.00     0.000 HD 
HETATM   19  H1  UNL     1      -7.330  21.888  67.001  1.00  0.00     0.000 HD 
HETATM   20  C   UNL     1      -9.080  18.251  67.040  1.00  0.00    -0.271 A  
ENDBRANCH   9  12
ENDBRANCH   7   8
ENDBRANCH   6   7
ENDBRANCH   3   6
ENDBRANCH   2   3
TORSDOF 6
ENDMDL
MODEL      177
REMARK 921   NORMALIZED FREE ENERGY PREDICTED BY IDOCK:   -3.23 KCAL/MOL
REMARK 922        TOTAL FREE ENERGY PREDICTED BY IDOCK:   -4.84 KCAL/MOL
REMARK 923 INTER-LIGAND FREE ENERGY PREDICTED BY IDOCK:   -4.45 KCAL/MOL
REMARK 924 INTRA-LIGAND FREE ENERGY PREDICTED BY IDOCK:   -0.38 KCAL/MOL
REMARK 927      BINDING AFFINITY PREDICTED BY RF-SCORE:    0.00 PKD
ROOT
HETATM    1  C   UNL     1      -6.809   2.456  70.652  1.00  0.00    -0.033 C  
HETATM    2  C   UNL     1      -8.281   2.790  70.415  1.00  0.00    -0.045 C  
ENDROOT
BRANCH   2   3
HETATM    3  N   UNL     1      -8.516   3.994  69.600  1.00  0.00    -0.060 NA 
BRANCH   3   4
HETATM    4  C   UNL     1      -9.232   3.722  68.336  1.00  0.00    -0.157 C  
HETATM    5  C   UNL     1      -9.526   2.255  68.018  1.00  0.00    -0.199 C  
ENDBRANCH   3   4
BRANCH   3   6
HETATM    6  C   UNL     1      -9.216   5.048  70.377  1.00  0.00    -0.148 C  
BRANCH   6   7
HETATM    7  C   UNL     1     -10.654   5.371  69.933  1.00  0.00    -0.281 C  
BRANCH   7   8
HETATM    8  N   UNL     1     -10.941   6.790  69.967  1.00  0.00    -0.274 N  
HETATM    9  C   UNL     1     -11.843   7.301  70.876  1.00  0.00    -0.316 C  
HETATM   10  H   UNL     1     -10.471   7.416  69.314  1.00  0.00     0.000 HD 
HETATM   11  O   UNL     1     -12.478   6.600  71.658  1.00  0.00    -0.352 OA 
BRANCH   9  12
HETATM   12  C   UNL     1     -12.014   8.780  70.893  1.00  0.00    -0.235 A  
HETATM   13  C   UNL     1     -12.975   9.407  71.691  1.00  0.00    -0.471 A  
HETATM   14  C   UNL     1     -13.090  10.802  71.683  1.00  0.00    -0.551 A  
HETATM   15  C   UNL     1     -12.277  11.585  70.859  1.00  0.00    -0.322 A  
HETATM   16  C   UNL     1     -11.265  10.958  70.127  1.00  0.00    -0.317 A  
HETATM   17  N   UNL     1     -12.320  12.980  70.950  1.00  0.00    -0.400 NA 
HETATM   18  H2  UNL     1     -12.145  13.245  71.919  1.00  0.00     0.000 HD 
HETATM   19  H1  UNL     1     -11.726  13.552  70.348  1.00  0.00     0.000 HD 
HETATM   20  C   UNL     1     -11.143   9.565  70.128  1.00  0.00    -0.294 A  
ENDBRANCH   9  12
ENDBRANCH   7   8
ENDBRANCH   6   7
ENDBRANCH   3   6
ENDBRANCH   2   3
TORSDOF 6
ENDMDL
MODEL      178
REMARK 921   NORMALIZED FREE ENERGY PREDICTED BY IDOCK:   -3.20 KCAL/MOL
REMARK 922        TOTAL FREE ENERGY PREDICTED BY IDOCK:   -4.80 KCAL/MOL
REMARK 923 INTER-LIGAND FREE ENERGY PREDICTED BY IDOCK:   -4.23 KCAL/MOL
REMARK 924 INTRA-LIGAND FREE ENERGY PREDICTED BY IDOCK:   -0.57 KCAL/MOL
REMARK 927      BINDING AFFINITY PREDICTED BY RF-SCORE:    0.00 PKD
ROOT
HETATM    1  C   UNL     1      -6.626  10.716  66.789  1.00  0.00    -0.091 C  
HETATM    2  C   UNL     1      -7.335   9.579  66.054  1.00  0.00    -0.097 C  
ENDROOT
BRANCH   2   3
HETATM    3  N   UNL     1      -8.750   9.838  65.737  1.00  0.00    -0.137 NA 
BRANCH   3   4
HETATM    4  C   UNL     1      -9.061   9.732  64.296  1.00  0.00    -0.246 C  
HETATM    5  C   UNL     1      -9.675  10.967  63.635  1.00  0.00    -0.364 C  
ENDBRANCH   3   4
BRANCH   3   6
HETATM    6  C   UNL     1      -9.653   8.965  66.528  1.00  0.00    -0.232 C  
BRANCH   6   7
HETATM    7  C   UNL     1     -10.226   9.580  67.818  1.00  0.00    -0.216 C  
BRANCH   7   8
HETATM    8  N   UNL     1      -9.997  11.007  67.902  1.00  0.00    -0.171 N  
HETATM    9  C   UNL     1     -10.904  11.896  67.365  1.00  0.00    -0.243 C  
HETATM   10  H   UNL     1      -9.156  11.358  68.362  1.00  0.00     0.000 HD 
HETATM   11  O   UNL     1     -11.910  11.543  66.758  1.00  0.00    -0.511 OA 
BRANCH   9  12
HETATM   12  C   UNL     1     -10.626  13.344  67.570  1.00  0.00    -0.255 A  
HETATM   13  C   UNL     1      -9.673  14.031  66.812  1.00  0.00    -0.283 A  
HETATM   14  C   UNL     1      -9.455  15.396  67.032  1.00  0.00    -0.232 A  
HETATM   15  C   UNL     1     -10.155  16.084  68.027  1.00  0.00    -0.240 A  
HETATM   16  C   UNL     1     -11.162  15.412  68.724  1.00  0.00    -0.305 A  
HETATM   17  N   UNL     1     -10.014  17.470  68.155  1.00  0.00    -0.303 NA 
HETATM   18  H2  UNL     1     -10.229  17.900  67.256  1.00  0.00     0.000 HD 
HETATM   19  H1  UNL     1     -10.525  17.972  68.882  1.00  0.00     0.000 HD 
HETATM   20  C   UNL     1     -11.387  14.047  68.511  1.00  0.00    -0.308 A  
ENDBRANCH   9  12
ENDBRANCH   7   8
ENDBRANCH   6   7
ENDBRANCH   3   6
ENDBRANCH   2   3
TORSDOF 6
ENDMDL
MODEL      179
REMARK 921   NORMALIZED FREE ENERGY PREDICTED BY IDOCK:   -3.18 KCAL/MOL
REMARK 922        TOTAL FREE ENERGY PREDICTED BY IDOCK:   -4.77 KCAL/MOL
REMARK 923 INTER-LIGAND FREE ENERGY PREDICTED BY IDOCK:   -4.48 KCAL/MOL
REMARK 924 INTRA-LIGAND FREE ENERGY PREDICTED BY IDOCK:   -0.29 KCAL/MOL
REMARK 927      BINDING AFFINITY PREDICTED BY RF-SCORE:    0.00 PKD
ROOT
HETATM    1  C   UNL     1      -6.515  14.270  69.721  1.00  0.00    -0.142 C  
HETATM    2  C   UNL     1      -7.010  13.667  68.407  1.00  0.00    -0.104 C  
ENDROOT
BRANCH   2   3
HETATM    3  N   UNL     1      -8.461  13.420  68.350  1.00  0.00    -0.159 NA 
BRANCH   3   4
HETATM    4  C   UNL     1      -9.224  14.519  67.723  1.00  0.00    -0.194 C  
HETATM    5  C   UNL     1      -9.988  14.179  66.442  1.00  0.00    -0.302 C  
ENDBRANCH   3   4
BRANCH   3   6
HETATM    6  C   UNL     1      -8.766  12.129  67.682  1.00  0.00    -0.172 C  
BRANCH   6   7
HETATM    7  C   UNL     1      -8.393  10.858  68.466  1.00  0.00    -0.142 C  
BRANCH   7   8
HETATM    8  N   UNL     1      -9.551  10.183  69.013  1.00  0.00    -0.186 N  
HETATM    9  C   UNL     1      -9.454   9.459  70.183  1.00  0.00    -0.240 C  
HETATM   10  H   UNL     1     -10.447  10.243  68.529  1.00  0.00     0.000 HD 
HETATM   11  O   UNL     1      -8.399   9.306  70.791  1.00  0.00    -0.188 OA 
BRANCH   9  12
HETATM   12  C   UNL     1     -10.712   8.867  70.712  1.00  0.00    -0.287 A  
HETATM   13  C   UNL     1     -11.501   9.526  71.661  1.00  0.00    -0.433 A  
HETATM   14  C   UNL     1     -12.683   8.935  72.120  1.00  0.00    -0.470 A  
HETATM   15  C   UNL     1     -13.078   7.672  71.669  1.00  0.00    -0.353 A  
HETATM   16  C   UNL     1     -12.330   7.057  70.662  1.00  0.00    -0.239 A  
HETATM   17  N   UNL     1     -14.319   7.148  72.045  1.00  0.00    -0.637 NA 
HETATM   18  H2  UNL     1     -15.043   7.820  71.791  1.00  0.00     0.000 HD 
HETATM   19  H1  UNL     1     -14.607   6.226  71.715  1.00  0.00     0.000 HD 
HETATM   20  C   UNL     1     -11.146   7.639  70.197  1.00  0.00    -0.229 A  
ENDBRANCH   9  12
ENDBRANCH   7   8
ENDBRANCH   6   7
ENDBRANCH   3   6
ENDBRANCH   2   3
TORSDOF 6
ENDMDL
MODEL      180
REMARK 921   NORMALIZED FREE ENERGY PREDICTED BY IDOCK:   -3.14 KCAL/MOL
REMARK 922        TOTAL FREE ENERGY PREDICTED BY IDOCK:   -4.72 KCAL/MOL
REMARK 923 INTER-LIGAND FREE ENERGY PREDICTED BY IDOCK:   -4.47 KCAL/MOL
REMARK 924 INTRA-LIGAND FREE ENERGY PREDICTED BY IDOCK:   -0.26 KCAL/MOL
REMARK 927      BINDING AFFINITY PREDICTED BY RF-SCORE:    0.00 PKD
ROOT
HETATM    1  C   UNL     1      -9.927   4.561  66.678  1.00  0.00    -0.253 C  
HETATM    2  C   UNL     1     -10.187   5.495  67.859  1.00  0.00    -0.181 C  
ENDROOT
BRANCH   2   3
HETATM    3  N   UNL     1      -8.977   5.935  68.575  1.00  0.00    -0.114 NA 
BRANCH   3   4
HETATM    4  C   UNL     1      -7.944   6.512  67.689  1.00  0.00    -0.114 C  
HETATM    5  C   UNL     1      -7.522   7.953  67.977  1.00  0.00    -0.108 C  
ENDBRANCH   3   4
BRANCH   3   6
HETATM    6  C   UNL     1      -9.308   6.881  69.671  1.00  0.00    -0.145 C  
BRANCH   6   7
HETATM    7  C   UNL     1     -10.789   7.286  69.788  1.00  0.00    -0.235 C  
BRANCH   7   8
HETATM    8  N   UNL     1     -11.115   8.439  68.974  1.00  0.00    -0.415 N  
HETATM    9  C   UNL     1     -10.584   9.677  69.266  1.00  0.00    -0.219 C  
HETATM   10  H   UNL     1     -11.743   8.333  68.177  1.00  0.00     0.000 HD 
HETATM   11  O   UNL     1      -9.860   9.885  70.235  1.00  0.00    -0.253 OA 
BRANCH   9  12
HETATM   12  C   UNL     1     -10.910  10.785  68.328  1.00  0.00    -0.276 A  
HETATM   13  C   UNL     1     -10.733  10.664  66.946  1.00  0.00    -0.297 A  
HETATM   14  C   UNL     1     -11.065  11.730  66.101  1.00  0.00    -0.358 A  
HETATM   15  C   UNL     1     -11.544  12.936  66.621  1.00  0.00    -0.372 A  
HETATM   16  C   UNL     1     -11.796  13.021  67.992  1.00  0.00    -0.391 A  
HETATM   17  N   UNL     1     -11.985  13.946  65.759  1.00  0.00    -0.378 NA 
HETATM   18  H2  UNL     1     -12.697  13.556  65.143  1.00  0.00     0.000 HD 
HETATM   19  H1  UNL     1     -12.335  14.826  66.139  1.00  0.00     0.000 HD 
HETATM   20  C   UNL     1     -11.467  11.961  68.845  1.00  0.00    -0.358 A  
ENDBRANCH   9  12
ENDBRANCH   7   8
ENDBRANCH   6   7
ENDBRANCH   3   6
ENDBRANCH   2   3
TORSDOF 6
ENDMDL
MODEL      181
REMARK 921   NORMALIZED FREE ENERGY PREDICTED BY IDOCK:   -3.13 KCAL/MOL
REMARK 922        TOTAL FREE ENERGY PREDICTED BY IDOCK:   -4.71 KCAL/MOL
REMARK 923 INTER-LIGAND FREE ENERGY PREDICTED BY IDOCK:   -4.30 KCAL/MOL
REMARK 924 INTRA-LIGAND FREE ENERGY PREDICTED BY IDOCK:   -0.41 KCAL/MOL
REMARK 927      BINDING AFFINITY PREDICTED BY RF-SCORE:    0.00 PKD
ROOT
HETATM    1  C   UNL     1      -7.336   5.799  64.571  1.00  0.00    -0.069 C  
HETATM    2  C   UNL     1      -7.587   5.723  66.076  1.00  0.00    -0.087 C  
ENDROOT
BRANCH   2   3
HETATM    3  N   UNL     1      -9.008   5.748  66.466  1.00  0.00    -0.125 NA 
BRANCH   3   4
HETATM    4  C   UNL     1      -9.729   4.497  66.151  1.00  0.00    -0.207 C  
HETATM    5  C   UNL     1      -9.496   3.317  67.095  1.00  0.00    -0.178 C  
ENDBRANCH   3   4
BRANCH   3   6
HETATM    6  C   UNL     1      -9.172   6.096  67.900  1.00  0.00    -0.115 C  
BRANCH   6   7
HETATM    7  C   UNL     1     -10.541   6.673  68.302  1.00  0.00    -0.241 C  
BRANCH   7   8
HETATM    8  N   UNL     1     -10.823   7.936  67.653  1.00  0.00    -0.505 N  
HETATM    9  C   UNL     1     -10.640   9.126  68.324  1.00  0.00    -0.174 C  
HETATM   10  H   UNL     1     -11.161   7.945  66.690  1.00  0.00     0.000 HD 
HETATM   11  O   UNL     1     -10.282   9.187  69.496  1.00  0.00    -0.190 OA 
BRANCH   9  12
HETATM   12  C   UNL     1     -10.878  10.376  67.551  1.00  0.00    -0.358 A  
HETATM   13  C   UNL     1     -11.558  11.469  68.098  1.00  0.00    -0.378 A  
HETATM   14  C   UNL     1     -11.746  12.628  67.337  1.00  0.00    -0.432 A  
HETATM   15  C   UNL     1     -11.293  12.702  66.016  1.00  0.00    -0.327 A  
HETATM   16  C   UNL     1     -10.545  11.639  65.505  1.00  0.00    -0.329 A  
HETATM   17  N   UNL     1     -11.382  13.906  65.310  1.00  0.00    -0.306 NA 
HETATM   18  H2  UNL     1     -10.914  14.632  65.851  1.00  0.00     0.000 HD 
HETATM   19  H1  UNL     1     -11.052  13.960  64.346  1.00  0.00     0.000 HD 
HETATM   20  C   UNL     1     -10.351  10.476  66.258  1.00  0.00    -0.276 A  
ENDBRANCH   9  12
ENDBRANCH   7   8
ENDBRANCH   6   7
ENDBRANCH   3   6
ENDBRANCH   2   3
TORSDOF 6
ENDMDL
MODEL      182
REMARK 921   NORMALIZED FREE ENERGY PREDICTED BY IDOCK:   -3.13 KCAL/MOL
REMARK 922        TOTAL FREE ENERGY PREDICTED BY IDOCK:   -4.70 KCAL/MOL
REMARK 923 INTER-LIGAND FREE ENERGY PREDICTED BY IDOCK:   -4.10 KCAL/MOL
REMARK 924 INTRA-LIGAND FREE ENERGY PREDICTED BY IDOCK:   -0.61 KCAL/MOL
REMARK 927      BINDING AFFINITY PREDICTED BY RF-SCORE:    0.00 PKD
ROOT
HETATM    1  C   UNL     1      -8.768  11.306  67.486  1.00  0.00    -0.138 C  
HETATM    2  C   UNL     1     -10.241  11.712  67.454  1.00  0.00    -0.203 C  
ENDROOT
BRANCH   2   3
HETATM    3  N   UNL     1     -10.709  12.430  68.653  1.00  0.00    -0.232 NA 
BRANCH   3   4
HETATM    4  C   UNL     1     -10.760  13.897  68.480  1.00  0.00    -0.257 C  
HETATM    5  C   UNL     1     -10.991  14.727  69.743  1.00  0.00    -0.261 C  
ENDBRANCH   3   4
BRANCH   3   6
HETATM    6  C   UNL     1     -12.022  11.916  69.117  1.00  0.00    -0.276 C  
BRANCH   6   7
HETATM    7  C   UNL     1     -11.986  10.968  70.329  1.00  0.00    -0.365 C  
BRANCH   7   8
HETATM    8  N   UNL     1     -11.705   9.598  69.955  1.00  0.00    -0.450 N  
HETATM    9  C   UNL     1     -10.446   9.065  70.134  1.00  0.00    -0.214 C  
HETATM   10  H   UNL     1     -12.445   9.022  69.554  1.00  0.00     0.000 HD 
HETATM   11  O   UNL     1      -9.499   9.715  70.567  1.00  0.00    -0.256 OA 
BRANCH   9  12
HETATM   12  C   UNL     1     -10.271   7.627  69.796  1.00  0.00    -0.210 A  
HETATM   13  C   UNL     1     -10.576   7.119  68.529  1.00  0.00    -0.219 A  
HETATM   14  C   UNL     1     -10.384   5.761  68.254  1.00  0.00    -0.265 A  
HETATM   15  C   UNL     1      -9.919   4.887  69.242  1.00  0.00    -0.199 A  
HETATM   16  C   UNL     1      -9.539   5.414  70.478  1.00  0.00    -0.232 A  
HETATM   17  N   UNL     1      -9.618   3.559  68.919  1.00  0.00    -0.135 NA 
HETATM   18  H2  UNL     1      -8.950   3.558  68.149  1.00  0.00     0.000 HD 
HETATM   19  H1  UNL     1      -9.279   2.921  69.640  1.00  0.00     0.000 HD 
HETATM   20  C   UNL     1      -9.728   6.771  70.763  1.00  0.00    -0.187 A  
ENDBRANCH   9  12
ENDBRANCH   7   8
ENDBRANCH   6   7
ENDBRANCH   3   6
ENDBRANCH   2   3
TORSDOF 6
ENDMDL
MODEL      183
REMARK 921   NORMALIZED FREE ENERGY PREDICTED BY IDOCK:   -3.12 KCAL/MOL
REMARK 922        TOTAL FREE ENERGY PREDICTED BY IDOCK:   -4.69 KCAL/MOL
REMARK 923 INTER-LIGAND FREE ENERGY PREDICTED BY IDOCK:   -4.38 KCAL/MOL
REMARK 924 INTRA-LIGAND FREE ENERGY PREDICTED BY IDOCK:   -0.32 KCAL/MOL
REMARK 927      BINDING AFFINITY PREDICTED BY RF-SCORE:    0.00 PKD
ROOT
HETATM    1  C   UNL     1      -7.734   4.886  67.503  1.00  0.00    -0.091 C  
HETATM    2  C   UNL     1      -9.166   5.143  67.036  1.00  0.00    -0.117 C  
ENDROOT
BRANCH   2   3
HETATM    3  N   UNL     1      -9.750   6.411  67.508  1.00  0.00    -0.118 NA 
BRANCH   3   4
HETATM    4  C   UNL     1      -9.866   6.496  68.979  1.00  0.00    -0.143 C  
HETATM    5  C   UNL     1     -11.214   6.102  69.584  1.00  0.00    -0.488 C  
ENDBRANCH   3   4
BRANCH   3   6
HETATM    6  C   UNL     1      -9.009   7.582  66.976  1.00  0.00    -0.130 C  
BRANCH   6   7
HETATM    7  C   UNL     1      -9.775   8.470  65.979  1.00  0.00    -0.125 C  
BRANCH   7   8
HETATM    8  N   UNL     1     -10.062   9.785  66.514  1.00  0.00    -0.236 N  
HETATM    9  C   UNL     1     -10.555  10.782  65.699  1.00  0.00    -0.129 C  
HETATM   10  H   UNL     1      -9.897   9.976  67.502  1.00  0.00     0.000 HD 
HETATM   11  O   UNL     1     -10.733  10.635  64.493  1.00  0.00    -0.236 OA 
BRANCH   9  12
HETATM   12  C   UNL     1     -10.897  12.075  66.351  1.00  0.00    -0.314 A  
HETATM   13  C   UNL     1     -11.928  12.895  65.881  1.00  0.00    -0.504 A  
HETATM   14  C   UNL     1     -12.220  14.097  66.536  1.00  0.00    -0.463 A  
HETATM   15  C   UNL     1     -11.472  14.513  67.641  1.00  0.00    -0.353 A  
HETATM   16  C   UNL     1     -10.499  13.652  68.154  1.00  0.00    -0.250 A  
HETATM   17  N   UNL     1     -11.851  15.654  68.356  1.00  0.00    -0.467 NA 
HETATM   18  H2  UNL     1     -12.822  15.543  68.648  1.00  0.00     0.000 HD 
HETATM   19  H1  UNL     1     -11.306  15.959  69.163  1.00  0.00     0.000 HD 
HETATM   20  C   UNL     1     -10.199  12.449  67.506  1.00  0.00    -0.214 A  
ENDBRANCH   9  12
ENDBRANCH   7   8
ENDBRANCH   6   7
ENDBRANCH   3   6
ENDBRANCH   2   3
TORSDOF 6
ENDMDL
MODEL      184
REMARK 921   NORMALIZED FREE ENERGY PREDICTED BY IDOCK:   -3.12 KCAL/MOL
REMARK 922        TOTAL FREE ENERGY PREDICTED BY IDOCK:   -4.69 KCAL/MOL
REMARK 923 INTER-LIGAND FREE ENERGY PREDICTED BY IDOCK:   -4.39 KCAL/MOL
REMARK 924 INTRA-LIGAND FREE ENERGY PREDICTED BY IDOCK:   -0.30 KCAL/MOL
REMARK 927      BINDING AFFINITY PREDICTED BY RF-SCORE:    0.00 PKD
ROOT
HETATM    1  C   UNL     1     -11.940  14.780  64.529  1.00  0.00    -0.451 C  
HETATM    2  C   UNL     1     -12.132  14.451  66.009  1.00  0.00    -0.357 C  
ENDROOT
BRANCH   2   3
HETATM    3  N   UNL     1     -10.911  14.012  66.707  1.00  0.00    -0.292 NA 
BRANCH   3   4
HETATM    4  C   UNL     1     -10.679  14.711  67.988  1.00  0.00    -0.246 C  
HETATM    5  C   UNL     1     -10.936  16.218  68.002  1.00  0.00    -0.328 C  
ENDBRANCH   3   4
BRANCH   3   6
HETATM    6  C   UNL     1     -10.899  12.541  66.908  1.00  0.00    -0.248 C  
BRANCH   6   7
HETATM    7  C   UNL     1     -11.692  12.020  68.121  1.00  0.00    -0.333 C  
BRANCH   7   8
HETATM    8  N   UNL     1     -10.837  11.441  69.136  1.00  0.00    -0.263 N  
HETATM    9  C   UNL     1     -10.488  10.108  69.082  1.00  0.00    -0.222 C  
HETATM   10  H   UNL     1     -10.490  12.024  69.897  1.00  0.00     0.000 HD 
HETATM   11  O   UNL     1     -10.906   9.339  68.222  1.00  0.00    -0.179 OA 
BRANCH   9  12
HETATM   12  C   UNL     1      -9.540   9.620  70.121  1.00  0.00    -0.300 A  
HETATM   13  C   UNL     1      -8.156   9.776  69.996  1.00  0.00    -0.203 A  
HETATM   14  C   UNL     1      -7.305   9.312  71.006  1.00  0.00    -0.091 A  
HETATM   15  C   UNL     1      -7.816   8.659  72.132  1.00  0.00    -0.021 A  
HETATM   16  C   UNL     1      -9.202   8.580  72.289  1.00  0.00    -0.343 A  
HETATM   17  N   UNL     1      -6.966   8.308  73.186  1.00  0.00    -0.126 NA 
HETATM   18  H2  UNL     1      -6.474   9.147  73.496  1.00  0.00     0.000 HD 
HETATM   19  H1  UNL     1      -7.338   7.832  74.008  1.00  0.00     0.000 HD 
HETATM   20  C   UNL     1     -10.060   9.040  71.285  1.00  0.00    -0.384 A  
ENDBRANCH   9  12
ENDBRANCH   7   8
ENDBRANCH   6   7
ENDBRANCH   3   6
ENDBRANCH   2   3
TORSDOF 6
ENDMDL
MODEL      185
REMARK 921   NORMALIZED FREE ENERGY PREDICTED BY IDOCK:   -3.10 KCAL/MOL
REMARK 922        TOTAL FREE ENERGY PREDICTED BY IDOCK:   -4.66 KCAL/MOL
REMARK 923 INTER-LIGAND FREE ENERGY PREDICTED BY IDOCK:   -4.52 KCAL/MOL
REMARK 924 INTRA-LIGAND FREE ENERGY PREDICTED BY IDOCK:   -0.14 KCAL/MOL
REMARK 927      BINDING AFFINITY PREDICTED BY RF-SCORE:    0.00 PKD
ROOT
HETATM    1  C   UNL     1      -6.423   4.401  64.369  1.00  0.00    -0.038 C  
HETATM    2  C   UNL     1      -7.615   5.135  63.757  1.00  0.00    -0.069 C  
ENDROOT
BRANCH   2   3
HETATM    3  N   UNL     1      -8.355   5.998  64.695  1.00  0.00    -0.107 NA 
BRANCH   3   4
HETATM    4  C   UNL     1      -8.615   5.362  66.003  1.00  0.00    -0.127 C  
HETATM    5  C   UNL     1      -9.348   4.020  65.978  1.00  0.00    -0.168 C  
ENDBRANCH   3   4
BRANCH   3   6
HETATM    6  C   UNL     1      -7.677   7.306  64.879  1.00  0.00    -0.117 C  
BRANCH   6   7
HETATM    7  C   UNL     1      -8.011   8.392  63.840  1.00  0.00    -0.158 C  
BRANCH   7   8
HETATM    8  N   UNL     1      -8.783   9.480  64.402  1.00  0.00    -0.197 N  
HETATM    9  C   UNL     1      -9.572  10.272  63.594  1.00  0.00    -0.277 C  
HETATM   10  H   UNL     1      -8.743   9.663  65.405  1.00  0.00     0.000 HD 
HETATM   11  O   UNL     1      -9.631  10.137  62.376  1.00  0.00    -0.276 OA 
BRANCH   9  12
HETATM   12  C   UNL     1     -10.392  11.314  64.270  1.00  0.00    -0.399 A  
HETATM   13  C   UNL     1     -11.121  12.267  63.552  1.00  0.00    -0.533 A  
HETATM   14  C   UNL     1     -11.888  13.220  64.231  1.00  0.00    -0.469 A  
HETATM   15  C   UNL     1     -11.913  13.258  65.629  1.00  0.00    -0.412 A  
HETATM   16  C   UNL     1     -11.250  12.254  66.338  1.00  0.00    -0.370 A  
HETATM   17  N   UNL     1     -12.776  14.137  66.292  1.00  0.00    -0.487 NA 
HETATM   18  H2  UNL     1     -13.725  13.970  65.958  1.00  0.00     0.000 HD 
HETATM   19  H1  UNL     1     -12.794  14.165  67.312  1.00  0.00     0.000 HD 
HETATM   20  C   UNL     1     -10.480  11.297  65.667  1.00  0.00    -0.317 A  
ENDBRANCH   9  12
ENDBRANCH   7   8
ENDBRANCH   6   7
ENDBRANCH   3   6
ENDBRANCH   2   3
TORSDOF 6
ENDMDL
MODEL      186
REMARK 921   NORMALIZED FREE ENERGY PREDICTED BY IDOCK:   -3.10 KCAL/MOL
REMARK 922        TOTAL FREE ENERGY PREDICTED BY IDOCK:   -4.66 KCAL/MOL
REMARK 923 INTER-LIGAND FREE ENERGY PREDICTED BY IDOCK:   -4.45 KCAL/MOL
REMARK 924 INTRA-LIGAND FREE ENERGY PREDICTED BY IDOCK:   -0.21 KCAL/MOL
REMARK 927      BINDING AFFINITY PREDICTED BY RF-SCORE:    0.00 PKD
ROOT
HETATM    1  C   UNL     1     -10.882   6.962  67.120  1.00  0.00    -0.447 C  
HETATM    2  C   UNL     1     -10.342   8.381  67.291  1.00  0.00    -0.299 C  
ENDROOT
BRANCH   2   3
HETATM    3  N   UNL     1     -10.649   9.006  68.589  1.00  0.00    -0.195 NA 
BRANCH   3   4
HETATM    4  C   UNL     1      -9.591   8.813  69.603  1.00  0.00    -0.171 C  
HETATM    5  C   UNL     1      -8.171   8.596  69.077  1.00  0.00    -0.122 C  
ENDBRANCH   3   4
BRANCH   3   6
HETATM    6  C   UNL     1     -10.966  10.449  68.437  1.00  0.00    -0.264 C  
BRANCH   6   7
HETATM    7  C   UNL     1      -9.895  11.303  67.734  1.00  0.00    -0.173 C  
BRANCH   7   8
HETATM    8  N   UNL     1     -10.240  12.710  67.704  1.00  0.00    -0.214 N  
HETATM    9  C   UNL     1      -9.254  13.672  67.645  1.00  0.00    -0.213 C  
HETATM   10  H   UNL     1     -11.220  12.991  67.727  1.00  0.00     0.000 HD 
HETATM   11  O   UNL     1      -8.056  13.407  67.661  1.00  0.00    -0.148 OA 
BRANCH   9  12
HETATM   12  C   UNL     1      -9.703  15.087  67.536  1.00  0.00    -0.215 A  
HETATM   13  C   UNL     1      -9.845  15.909  68.658  1.00  0.00    -0.212 A  
HETATM   14  C   UNL     1     -10.259  17.238  68.505  1.00  0.00    -0.358 A  
HETATM   15  C   UNL     1     -10.568  17.753  67.242  1.00  0.00    -0.316 A  
HETATM   16  C   UNL     1     -10.345  16.952  66.120  1.00  0.00    -0.327 A  
HETATM   17  N   UNL     1     -10.863  19.112  67.091  1.00  0.00    -0.460 NA 
HETATM   18  H2  UNL     1     -10.092  19.654  67.480  1.00  0.00     0.000 HD 
HETATM   19  H1  UNL     1     -11.088  19.488  66.170  1.00  0.00     0.000 HD 
HETATM   20  C   UNL     1      -9.932  15.623  66.263  1.00  0.00    -0.315 A  
ENDBRANCH   9  12
ENDBRANCH   7   8
ENDBRANCH   6   7
ENDBRANCH   3   6
ENDBRANCH   2   3
TORSDOF 6
ENDMDL
MODEL      187
REMARK 921   NORMALIZED FREE ENERGY PREDICTED BY IDOCK:   -3.09 KCAL/MOL
REMARK 922        TOTAL FREE ENERGY PREDICTED BY IDOCK:   -4.65 KCAL/MOL
REMARK 923 INTER-LIGAND FREE ENERGY PREDICTED BY IDOCK:   -4.19 KCAL/MOL
REMARK 924 INTRA-LIGAND FREE ENERGY PREDICTED BY IDOCK:   -0.46 KCAL/MOL
REMARK 927      BINDING AFFINITY PREDICTED BY RF-SCORE:    0.00 PKD
ROOT
HETATM    1  C   UNL     1     -12.001  11.837  69.823  1.00  0.00    -0.392 C  
HETATM    2  C   UNL     1     -11.203  12.984  69.205  1.00  0.00    -0.199 C  
ENDROOT
BRANCH   2   3
HETATM    3  N   UNL     1     -12.014  13.980  68.483  1.00  0.00    -0.359 NA 
BRANCH   3   4
HETATM    4  C   UNL     1     -11.377  15.311  68.399  1.00  0.00    -0.329 C  
HETATM    5  C   UNL     1     -10.621  15.788  69.640  1.00  0.00    -0.295 C  
ENDBRANCH   3   4
BRANCH   3   6
HETATM    6  C   UNL     1     -12.388  13.497  67.129  1.00  0.00    -0.173 C  
BRANCH   6   7
HETATM    7  C   UNL     1     -11.221  13.248  66.156  1.00  0.00    -0.296 C  
BRANCH   7   8
HETATM    8  N   UNL     1     -10.898  11.843  66.024  1.00  0.00    -0.288 N  
HETATM    9  C   UNL     1      -9.658  11.370  66.397  1.00  0.00    -0.205 C  
HETATM   10  H   UNL     1     -11.595  11.197  65.653  1.00  0.00     0.000 HD 
HETATM   11  O   UNL     1      -8.758  12.098  66.807  1.00  0.00    -0.194 OA 
BRANCH   9  12
HETATM   12  C   UNL     1      -9.444   9.900  66.303  1.00  0.00    -0.245 A  
HETATM   13  C   UNL     1     -10.306   8.984  66.912  1.00  0.00    -0.324 A  
HETATM   14  C   UNL     1     -10.071   7.610  66.786  1.00  0.00    -0.325 A  
HETATM   15  C   UNL     1      -8.961   7.133  66.083  1.00  0.00    -0.140 A  
HETATM   16  C   UNL     1      -8.151   8.050  65.408  1.00  0.00    -0.135 A  
HETATM   17  N   UNL     1      -8.805   5.760  65.863  1.00  0.00    -0.149 NA 
HETATM   18  H2  UNL     1      -9.649   5.409  65.409  1.00  0.00     0.000 HD 
HETATM   19  H1  UNL     1      -7.995   5.412  65.350  1.00  0.00     0.000 HD 
HETATM   20  C   UNL     1      -8.378   9.425  65.529  1.00  0.00    -0.139 A  
ENDBRANCH   9  12
ENDBRANCH   7   8
ENDBRANCH   6   7
ENDBRANCH   3   6
ENDBRANCH   2   3
TORSDOF 6
ENDMDL
MODEL      188
REMARK 921   NORMALIZED FREE ENERGY PREDICTED BY IDOCK:   -3.08 KCAL/MOL
REMARK 922        TOTAL FREE ENERGY PREDICTED BY IDOCK:   -4.63 KCAL/MOL
REMARK 923 INTER-LIGAND FREE ENERGY PREDICTED BY IDOCK:   -4.46 KCAL/MOL
REMARK 924 INTRA-LIGAND FREE ENERGY PREDICTED BY IDOCK:   -0.18 KCAL/MOL
REMARK 927      BINDING AFFINITY PREDICTED BY RF-SCORE:    0.00 PKD
ROOT
HETATM    1  C   UNL     1     -10.285  14.586  65.627  1.00  0.00    -0.379 C  
HETATM    2  C   UNL     1     -11.102  14.087  66.817  1.00  0.00    -0.306 C  
ENDROOT
BRANCH   2   3
HETATM    3  N   UNL     1     -10.357  13.238  67.764  1.00  0.00    -0.229 NA 
BRANCH   3   4
HETATM    4  C   UNL     1     -11.116  12.915  68.990  1.00  0.00    -0.233 C  
HETATM    5  C   UNL     1     -12.022  14.014  69.545  1.00  0.00    -0.390 C  
ENDBRANCH   3   4
BRANCH   3   6
HETATM    6  C   UNL     1      -9.869  11.996  67.113  1.00  0.00    -0.196 C  
BRANCH   6   7
HETATM    7  C   UNL     1     -10.934  10.921  66.828  1.00  0.00    -0.185 C  
BRANCH   7   8
HETATM    8  N   UNL     1     -10.999   9.915  67.867  1.00  0.00    -0.436 N  
HETATM    9  C   UNL     1     -10.239   8.767  67.782  1.00  0.00    -0.228 C  
HETATM   10  H   UNL     1     -11.612  10.057  68.670  1.00  0.00     0.000 HD 
HETATM   11  O   UNL     1      -9.517   8.512  66.823  1.00  0.00    -0.165 OA 
BRANCH   9  12
HETATM   12  C   UNL     1     -10.309   7.829  68.934  1.00  0.00    -0.224 A  
HETATM   13  C   UNL     1     -10.126   8.257  70.253  1.00  0.00    -0.195 A  
HETATM   14  C   UNL     1     -10.213   7.339  71.306  1.00  0.00    -0.198 A  
HETATM   15  C   UNL     1     -10.449   5.984  71.059  1.00  0.00    -0.229 A  
HETATM   16  C   UNL     1     -10.712   5.577  69.749  1.00  0.00    -0.355 A  
HETATM   17  N   UNL     1     -10.652   5.101  72.125  1.00  0.00    -0.220 NA 
HETATM   18  H2  UNL     1     -11.414   5.461  72.700  1.00  0.00     0.000 HD 
HETATM   19  H1  UNL     1     -10.825   4.111  71.946  1.00  0.00     0.000 HD 
HETATM   20  C   UNL     1     -10.627   6.487  68.690  1.00  0.00    -0.289 A  
ENDBRANCH   9  12
ENDBRANCH   7   8
ENDBRANCH   6   7
ENDBRANCH   3   6
ENDBRANCH   2   3
TORSDOF 6
ENDMDL
MODEL      189
REMARK 921   NORMALIZED FREE ENERGY PREDICTED BY IDOCK:   -3.07 KCAL/MOL
REMARK 922        TOTAL FREE ENERGY PREDICTED BY IDOCK:   -4.62 KCAL/MOL
REMARK 923 INTER-LIGAND FREE ENERGY PREDICTED BY IDOCK:   -4.27 KCAL/MOL
REMARK 924 INTRA-LIGAND FREE ENERGY PREDICTED BY IDOCK:   -0.36 KCAL/MOL
REMARK 927      BINDING AFFINITY PREDICTED BY RF-SCORE:    0.00 PKD
ROOT
HETATM    1  C   UNL     1      -9.576  11.089  62.553  1.00  0.00    -0.215 C  
HETATM    2  C   UNL     1      -9.407  11.640  63.968  1.00  0.00     0.047 C  
ENDROOT
BRANCH   2   3
HETATM    3  N   UNL     1      -9.693  10.675  65.044  1.00  0.00    -0.254 NA 
BRANCH   3   4
HETATM    4  C   UNL     1      -8.502  10.301  65.835  1.00  0.00    -0.150 C  
HETATM    5  C   UNL     1      -7.773   9.024  65.414  1.00  0.00    -0.095 C  
ENDBRANCH   3   4
BRANCH   3   6
HETATM    6  C   UNL     1     -10.777  11.160  65.936  1.00  0.00    -0.198 C  
BRANCH   6   7
HETATM    7  C   UNL     1     -10.786  10.582  67.363  1.00  0.00    -0.291 C  
BRANCH   7   8
HETATM    8  N   UNL     1     -11.147  11.569  68.359  1.00  0.00    -0.215 N  
HETATM    9  C   UNL     1     -12.003  11.244  69.390  1.00  0.00    -0.341 C  
HETATM   10  H   UNL     1     -10.765  12.513  68.297  1.00  0.00     0.000 HD 
HETATM   11  O   UNL     1     -12.535  10.144  69.499  1.00  0.00     0.114 OA 
BRANCH   9  12
HETATM   12  C   UNL     1     -12.253  12.298  70.411  1.00  0.00    -0.371 A  
HETATM   13  C   UNL     1     -11.664  13.563  70.332  1.00  0.00    -0.201 A  
HETATM   14  C   UNL     1     -11.939  14.526  71.310  1.00  0.00    -0.396 A  
HETATM   15  C   UNL     1     -12.773  14.232  72.392  1.00  0.00    -0.292 A  
HETATM   16  C   UNL     1     -13.422  12.996  72.421  1.00  0.00    -0.615 A  
HETATM   17  N   UNL     1     -13.134  15.239  73.295  1.00  0.00    -0.498 NA 
HETATM   18  H2  UNL     1     -13.548  16.009  72.769  1.00  0.00     0.000 HD 
HETATM   19  H1  UNL     1     -13.743  15.025  74.085  1.00  0.00     0.000 HD 
HETATM   20  C   UNL     1     -13.153  12.027  71.449  1.00  0.00    -0.295 A  
ENDBRANCH   9  12
ENDBRANCH   7   8
ENDBRANCH   6   7
ENDBRANCH   3   6
ENDBRANCH   2   3
TORSDOF 6
ENDMDL
MODEL      190
REMARK 921   NORMALIZED FREE ENERGY PREDICTED BY IDOCK:   -3.02 KCAL/MOL
REMARK 922        TOTAL FREE ENERGY PREDICTED BY IDOCK:   -4.55 KCAL/MOL
REMARK 923 INTER-LIGAND FREE ENERGY PREDICTED BY IDOCK:   -4.22 KCAL/MOL
REMARK 924 INTRA-LIGAND FREE ENERGY PREDICTED BY IDOCK:   -0.33 KCAL/MOL
REMARK 927      BINDING AFFINITY PREDICTED BY RF-SCORE:    0.00 PKD
ROOT
HETATM    1  C   UNL     1     -11.923  14.466  64.692  1.00  0.00    -0.475 C  
HETATM    2  C   UNL     1     -12.262  13.980  66.101  1.00  0.00    -0.465 C  
ENDROOT
BRANCH   2   3
HETATM    3  N   UNL     1     -11.096  13.626  66.929  1.00  0.00    -0.299 NA 
BRANCH   3   4
HETATM    4  C   UNL     1     -11.170  14.151  68.308  1.00  0.00    -0.272 C  
HETATM    5  C   UNL     1     -11.659  15.591  68.468  1.00  0.00    -0.379 C  
ENDBRANCH   3   4
BRANCH   3   6
HETATM    6  C   UNL     1     -10.865  12.160  66.943  1.00  0.00    -0.250 C  
BRANCH   6   7
HETATM    7  C   UNL     1     -11.785  11.341  67.868  1.00  0.00    -0.214 C  
BRANCH   7   8
HETATM    8  N   UNL     1     -11.044  10.564  68.840  1.00  0.00    -0.245 N  
HETATM    9  C   UNL     1     -10.524   9.332  68.505  1.00  0.00    -0.206 C  
HETATM   10  H   UNL     1     -10.907  10.932  69.782  1.00  0.00     0.000 HD 
HETATM   11  O   UNL     1     -10.692   8.810  67.407  1.00  0.00    -0.267 OA 
BRANCH   9  12
HETATM   12  C   UNL     1      -9.710   8.643  69.542  1.00  0.00    -0.179 A  
HETATM   13  C   UNL     1      -9.978   8.778  70.908  1.00  0.00    -0.279 A  
HETATM   14  C   UNL     1      -9.192   8.100  71.847  1.00  0.00    -0.243 A  
HETATM   15  C   UNL     1      -8.113   7.309  71.442  1.00  0.00    -0.102 A  
HETATM   16  C   UNL     1      -7.902   7.113  70.075  1.00  0.00    -0.113 A  
HETATM   17  N   UNL     1      -7.412   6.544  72.380  1.00  0.00    -0.094 NA 
HETATM   18  H2  UNL     1      -8.079   5.950  72.874  1.00  0.00     0.000 HD 
HETATM   19  H1  UNL     1      -6.624   5.966  72.085  1.00  0.00     0.000 HD 
HETATM   20  C   UNL     1      -8.682   7.787  69.129  1.00  0.00    -0.139 A  
ENDBRANCH   9  12
ENDBRANCH   7   8
ENDBRANCH   6   7
ENDBRANCH   3   6
ENDBRANCH   2   3
TORSDOF 6
ENDMDL
MODEL      191
REMARK 921   NORMALIZED FREE ENERGY PREDICTED BY IDOCK:   -2.96 KCAL/MOL
REMARK 922        TOTAL FREE ENERGY PREDICTED BY IDOCK:   -4.48 KCAL/MOL
REMARK 923 INTER-LIGAND FREE ENERGY PREDICTED BY IDOCK:   -4.15 KCAL/MOL
REMARK 924 INTRA-LIGAND FREE ENERGY PREDICTED BY IDOCK:   -0.33 KCAL/MOL
REMARK 927      BINDING AFFINITY PREDICTED BY RF-SCORE:    0.00 PKD
ROOT
HETATM    1  C   UNL     1      -8.067   7.514  70.768  1.00  0.00    -0.108 C  
HETATM    2  C   UNL     1      -8.870   8.813  70.729  1.00  0.00    -0.191 C  
ENDROOT
BRANCH   2   3
HETATM    3  N   UNL     1      -8.344   9.836  69.807  1.00  0.00    -0.162 NA 
BRANCH   3   4
HETATM    4  C   UNL     1      -6.872   9.814  69.678  1.00  0.00    -0.072 C  
HETATM    5  C   UNL     1      -6.194  11.143  69.343  1.00  0.00    -0.079 C  
ENDBRANCH   3   4
BRANCH   3   6
HETATM    6  C   UNL     1      -8.984   9.742  68.471  1.00  0.00    -0.124 C  
BRANCH   6   7
HETATM    7  C   UNL     1     -10.322  10.485  68.310  1.00  0.00    -0.168 C  
BRANCH   7   8
HETATM    8  N   UNL     1     -10.146  11.909  68.110  1.00  0.00    -0.192 N  
HETATM    9  C   UNL     1     -11.106  12.649  67.451  1.00  0.00    -0.273 C  
HETATM   10  H   UNL     1      -9.305  12.368  68.459  1.00  0.00     0.000 HD 
HETATM   11  O   UNL     1     -12.118  12.153  66.966  1.00  0.00    -0.591 OA 
BRANCH   9  12
HETATM   12  C   UNL     1     -10.878  14.117  67.364  1.00  0.00    -0.291 A  
HETATM   13  C   UNL     1     -11.438  15.011  68.281  1.00  0.00    -0.349 A  
HETATM   14  C   UNL     1     -11.185  16.383  68.166  1.00  0.00    -0.273 A  
HETATM   15  C   UNL     1     -10.403  16.883  67.121  1.00  0.00    -0.304 A  
HETATM   16  C   UNL     1      -9.780  15.978  66.258  1.00  0.00    -0.332 A  
HETATM   17  N   UNL     1     -10.061  18.239  67.088  1.00  0.00    -0.339 NA 
HETATM   18  H2  UNL     1      -9.610  18.479  67.971  1.00  0.00     0.000 HD 
HETATM   19  H1  UNL     1      -9.489  18.605  66.325  1.00  0.00     0.000 HD 
HETATM   20  C   UNL     1     -10.027  14.606  66.365  1.00  0.00    -0.296 A  
ENDBRANCH   9  12
ENDBRANCH   7   8
ENDBRANCH   6   7
ENDBRANCH   3   6
ENDBRANCH   2   3
TORSDOF 6
ENDMDL
MODEL      192
REMARK 921   NORMALIZED FREE ENERGY PREDICTED BY IDOCK:   -2.92 KCAL/MOL
REMARK 922        TOTAL FREE ENERGY PREDICTED BY IDOCK:   -4.43 KCAL/MOL
REMARK 923 INTER-LIGAND FREE ENERGY PREDICTED BY IDOCK:   -4.04 KCAL/MOL
REMARK 924 INTRA-LIGAND FREE ENERGY PREDICTED BY IDOCK:   -0.39 KCAL/MOL
REMARK 927      BINDING AFFINITY PREDICTED BY RF-SCORE:    0.00 PKD
ROOT
HETATM    1  C   UNL     1     -11.892  12.979  69.165  1.00  0.00    -0.360 C  
HETATM    2  C   UNL     1     -12.066  13.703  67.830  1.00  0.00    -0.283 C  
ENDROOT
BRANCH   2   3
HETATM    3  N   UNL     1     -10.807  14.045  67.145  1.00  0.00    -0.283 NA 
BRANCH   3   4
HETATM    4  C   UNL     1     -10.206  15.312  67.610  1.00  0.00    -0.242 C  
HETATM    5  C   UNL     1      -8.987  15.196  68.526  1.00  0.00    -0.186 C  
ENDBRANCH   3   4
BRANCH   3   6
HETATM    6  C   UNL     1      -9.821  12.938  67.238  1.00  0.00    -0.218 C  
BRANCH   6   7
HETATM    7  C   UNL     1      -9.933  11.843  66.161  1.00  0.00    -0.228 C  
BRANCH   7   8
HETATM    8  N   UNL     1      -9.998  10.512  66.728  1.00  0.00    -0.196 N  
HETATM    9  C   UNL     1      -9.660   9.410  65.972  1.00  0.00    -0.261 C  
HETATM   10  H   UNL     1     -10.296  10.389  67.696  1.00  0.00     0.000 HD 
HETATM   11  O   UNL     1      -9.338   9.481  64.789  1.00  0.00    -0.245 OA 
BRANCH   9  12
HETATM   12  C   UNL     1      -9.679   8.091  66.661  1.00  0.00    -0.313 A  
HETATM   13  C   UNL     1     -10.844   7.567  67.229  1.00  0.00    -0.297 A  
HETATM   14  C   UNL     1     -10.816   6.316  67.857  1.00  0.00    -0.417 A  
HETATM   15  C   UNL     1      -9.626   5.590  67.957  1.00  0.00    -0.125 A  
HETATM   16  C   UNL     1      -8.486   6.081  67.317  1.00  0.00    -0.104 A  
HETATM   17  N   UNL     1      -9.637   4.292  68.479  1.00  0.00    -0.153 NA 
HETATM   18  H2  UNL     1     -10.309   3.737  67.948  1.00  0.00     0.000 HD 
HETATM   19  H1  UNL     1      -8.768   3.761  68.552  1.00  0.00     0.000 HD 
HETATM   20  C   UNL     1      -8.504   7.330  66.687  1.00  0.00    -0.124 A  
ENDBRANCH   9  12
ENDBRANCH   7   8
ENDBRANCH   6   7
ENDBRANCH   3   6
ENDBRANCH   2   3
TORSDOF 6
ENDMDL
MODEL      193
REMARK 921   NORMALIZED FREE ENERGY PREDICTED BY IDOCK:   -2.90 KCAL/MOL
REMARK 922        TOTAL FREE ENERGY PREDICTED BY IDOCK:   -4.39 KCAL/MOL
REMARK 923 INTER-LIGAND FREE ENERGY PREDICTED BY IDOCK:   -4.06 KCAL/MOL
REMARK 924 INTRA-LIGAND FREE ENERGY PREDICTED BY IDOCK:   -0.33 KCAL/MOL
REMARK 927      BINDING AFFINITY PREDICTED BY RF-SCORE:    0.00 PKD
ROOT
HETATM    1  C   UNL     1      -7.405  10.822  68.844  1.00  0.00    -0.104 C  
HETATM    2  C   UNL     1      -8.617  10.371  68.031  1.00  0.00    -0.123 C  
ENDROOT
BRANCH   2   3
HETATM    3  N   UNL     1      -9.919  10.777  68.589  1.00  0.00    -0.174 NA 
BRANCH   3   4
HETATM    4  C   UNL     1     -10.683  11.684  67.708  1.00  0.00    -0.204 C  
HETATM    5  C   UNL     1     -11.897  12.379  68.327  1.00  0.00    -0.364 C  
ENDBRANCH   3   4
BRANCH   3   6
HETATM    6  C   UNL     1     -10.743   9.598  68.960  1.00  0.00    -0.211 C  
BRANCH   6   7
HETATM    7  C   UNL     1     -11.000   9.401  70.465  1.00  0.00    -0.274 C  
BRANCH   7   8
HETATM    8  N   UNL     1     -10.596   8.091  70.931  1.00  0.00    -0.211 N  
HETATM    9  C   UNL     1     -11.540   7.154  71.296  1.00  0.00    -0.294 C  
HETATM   10  H   UNL     1      -9.605   7.859  70.989  1.00  0.00     0.000 HD 
HETATM   11  O   UNL     1     -12.746   7.382  71.295  1.00  0.00    -0.349 OA 
BRANCH   9  12
HETATM   12  C   UNL     1     -11.036   5.809  71.684  1.00  0.00    -0.308 A  
HETATM   13  C   UNL     1     -10.149   5.088  70.879  1.00  0.00    -0.302 A  
HETATM   14  C   UNL     1      -9.692   3.831  71.292  1.00  0.00    -0.245 A  
HETATM   15  C   UNL     1     -10.135   3.264  72.489  1.00  0.00    -0.159 A  
HETATM   16  C   UNL     1     -10.955   4.023  73.327  1.00  0.00    -0.313 A  
HETATM   17  N   UNL     1      -9.579   2.064  72.946  1.00  0.00    -0.081 NA 
HETATM   18  H2  UNL     1      -8.567   2.178  73.000  1.00  0.00     0.000 HD 
HETATM   19  H1  UNL     1      -9.903   1.649  73.821  1.00  0.00     0.000 HD 
HETATM   20  C   UNL     1     -11.418   5.280  72.923  1.00  0.00    -0.339 A  
ENDBRANCH   9  12
ENDBRANCH   7   8
ENDBRANCH   6   7
ENDBRANCH   3   6
ENDBRANCH   2   3
TORSDOF 6
ENDMDL
MODEL      194
REMARK 921   NORMALIZED FREE ENERGY PREDICTED BY IDOCK:   -2.89 KCAL/MOL
REMARK 922        TOTAL FREE ENERGY PREDICTED BY IDOCK:   -4.38 KCAL/MOL
REMARK 923 INTER-LIGAND FREE ENERGY PREDICTED BY IDOCK:   -4.14 KCAL/MOL
REMARK 924 INTRA-LIGAND FREE ENERGY PREDICTED BY IDOCK:   -0.25 KCAL/MOL
REMARK 927      BINDING AFFINITY PREDICTED BY RF-SCORE:    0.00 PKD
ROOT
HETATM    1  C   UNL     1     -11.698   8.029  71.739  1.00  0.00    -0.335 C  
HETATM    2  C   UNL     1     -13.057   8.723  71.663  1.00  0.00    -0.352 C  
ENDROOT
BRANCH   2   3
HETATM    3  N   UNL     1     -13.005  10.136  71.246  1.00  0.00    -0.386 NA 
BRANCH   3   4
HETATM    4  C   UNL     1     -13.496  11.074  72.277  1.00  0.00     0.070 C  
HETATM    5  C   UNL     1     -13.172  12.554  72.065  1.00  0.00    -0.524 C  
ENDBRANCH   3   4
BRANCH   3   6
HETATM    6  C   UNL     1     -11.642  10.521  70.801  1.00  0.00    -0.338 C  
BRANCH   6   7
HETATM    7  C   UNL     1     -11.524  11.030  69.353  1.00  0.00    -0.294 C  
BRANCH   7   8
HETATM    8  N   UNL     1     -10.443  11.979  69.184  1.00  0.00    -0.425 N  
HETATM    9  C   UNL     1      -9.861  12.167  67.948  1.00  0.00    -0.199 C  
HETATM   10  H   UNL     1     -10.108  12.511  69.987  1.00  0.00     0.000 HD 
HETATM   11  O   UNL     1     -10.182  11.527  66.951  1.00  0.00    -0.208 OA 
BRANCH   9  12
HETATM   12  C   UNL     1      -8.813  13.219  67.853  1.00  0.00    -0.192 A  
HETATM   13  C   UNL     1      -9.131  14.578  67.756  1.00  0.00    -0.190 A  
HETATM   14  C   UNL     1      -8.111  15.532  67.682  1.00  0.00    -0.162 A  
HETATM   15  C   UNL     1      -6.767  15.147  67.669  1.00  0.00    -0.176 A  
HETATM   16  C   UNL     1      -6.455  13.798  67.848  1.00  0.00    -0.165 A  
HETATM   17  N   UNL     1      -5.758  16.116  67.715  1.00  0.00    -0.131 NA 
HETATM   18  H2  UNL     1      -5.916  16.706  68.532  1.00  0.00     0.000 HD 
HETATM   19  H1  UNL     1      -4.777  15.835  67.706  1.00  0.00     0.000 HD 
HETATM   20  C   UNL     1      -7.468  12.836  67.923  1.00  0.00    -0.127 A  
ENDBRANCH   9  12
ENDBRANCH   7   8
ENDBRANCH   6   7
ENDBRANCH   3   6
ENDBRANCH   2   3
TORSDOF 6
ENDMDL
MODEL      195
REMARK 921   NORMALIZED FREE ENERGY PREDICTED BY IDOCK:   -2.88 KCAL/MOL
REMARK 922        TOTAL FREE ENERGY PREDICTED BY IDOCK:   -4.37 KCAL/MOL
REMARK 923 INTER-LIGAND FREE ENERGY PREDICTED BY IDOCK:   -4.12 KCAL/MOL
REMARK 924 INTRA-LIGAND FREE ENERGY PREDICTED BY IDOCK:   -0.25 KCAL/MOL
REMARK 927      BINDING AFFINITY PREDICTED BY RF-SCORE:    0.00 PKD
ROOT
HETATM    1  C   UNL     1      -6.268   4.675  66.571  1.00  0.00    -0.032 C  
HETATM    2  C   UNL     1      -7.795   4.635  66.539  1.00  0.00    -0.099 C  
ENDROOT
BRANCH   2   3
HETATM    3  N   UNL     1      -8.455   5.751  67.239  1.00  0.00    -0.108 NA 
BRANCH   3   4
HETATM    4  C   UNL     1      -8.605   5.530  68.693  1.00  0.00    -0.103 C  
HETATM    5  C   UNL     1      -9.291   4.232  69.121  1.00  0.00    -0.229 C  
ENDBRANCH   3   4
BRANCH   3   6
HETATM    6  C   UNL     1      -7.766   7.040  66.979  1.00  0.00    -0.107 C  
BRANCH   6   7
HETATM    7  C   UNL     1      -8.277   7.846  65.770  1.00  0.00    -0.130 C  
BRANCH   7   8
HETATM    8  N   UNL     1      -8.949   9.068  66.162  1.00  0.00    -0.165 N  
HETATM    9  C   UNL     1     -10.189   9.024  66.763  1.00  0.00    -0.271 C  
HETATM   10  H   UNL     1      -8.501   9.968  65.991  1.00  0.00     0.000 HD 
HETATM   11  O   UNL     1     -10.805   7.980  66.956  1.00  0.00    -0.283 OA 
BRANCH   9  12
HETATM   12  C   UNL     1     -10.767  10.323  67.204  1.00  0.00    -0.303 A  
HETATM   13  C   UNL     1     -11.161  10.549  68.527  1.00  0.00    -0.329 A  
HETATM   14  C   UNL     1     -11.687  11.792  68.898  1.00  0.00    -0.384 A  
HETATM   15  C   UNL     1     -11.859  12.809  67.954  1.00  0.00    -0.339 A  
HETATM   16  C   UNL     1     -11.388  12.605  66.655  1.00  0.00    -0.379 A  
HETATM   17  N   UNL     1     -12.273  14.082  68.362  1.00  0.00    -0.541 NA 
HETATM   18  H2  UNL     1     -11.631  14.415  69.080  1.00  0.00     0.000 HD 
HETATM   19  H1  UNL     1     -12.399  14.825  67.674  1.00  0.00     0.000 HD 
HETATM   20  C   UNL     1     -10.861  11.366  66.275  1.00  0.00    -0.318 A  
ENDBRANCH   9  12
ENDBRANCH   7   8
ENDBRANCH   6   7
ENDBRANCH   3   6
ENDBRANCH   2   3
TORSDOF 6
ENDMDL
MODEL      196
REMARK 921   NORMALIZED FREE ENERGY PREDICTED BY IDOCK:   -2.86 KCAL/MOL
REMARK 922        TOTAL FREE ENERGY PREDICTED BY IDOCK:   -4.35 KCAL/MOL
REMARK 923 INTER-LIGAND FREE ENERGY PREDICTED BY IDOCK:   -4.59 KCAL/MOL
REMARK 924 INTRA-LIGAND FREE ENERGY PREDICTED BY IDOCK:    0.25 KCAL/MOL
REMARK 927      BINDING AFFINITY PREDICTED BY RF-SCORE:    0.00 PKD
ROOT
HETATM    1  C   UNL     1      -7.673   7.731  65.845  1.00  0.00    -0.094 C  
HETATM    2  C   UNL     1      -8.647   8.731  66.468  1.00  0.00    -0.118 C  
ENDROOT
BRANCH   2   3
HETATM    3  N   UNL     1      -8.401  10.138  66.105  1.00  0.00    -0.127 NA 
BRANCH   3   4
HETATM    4  C   UNL     1      -8.080  10.332  64.676  1.00  0.00    -0.154 C  
HETATM    5  C   UNL     1      -9.154   9.917  63.670  1.00  0.00    -0.294 C  
ENDBRANCH   3   4
BRANCH   3   6
HETATM    6  C   UNL     1      -9.537  11.008  66.504  1.00  0.00    -0.195 C  
BRANCH   6   7
HETATM    7  C   UNL     1      -9.805  12.225  65.600  1.00  0.00    -0.231 C  
BRANCH   7   8
HETATM    8  N   UNL     1      -9.763  13.477  66.328  1.00  0.00    -0.326 N  
HETATM    9  C   UNL     1     -10.079  14.663  65.701  1.00  0.00    -0.363 C  
HETATM   10  H   UNL     1      -9.498  13.480  67.313  1.00  0.00     0.000 HD 
HETATM   11  O   UNL     1     -10.361  14.737  64.508  1.00  0.00    -0.202 OA 
BRANCH   9  12
HETATM   12  C   UNL     1     -10.088  15.887  66.547  1.00  0.00    -0.293 A  
HETATM   13  C   UNL     1     -10.285  17.162  66.006  1.00  0.00    -0.332 A  
HETATM   14  C   UNL     1     -10.298  18.283  66.844  1.00  0.00    -0.404 A  
HETATM   15  C   UNL     1     -10.082  18.155  68.219  1.00  0.00    -0.386 A  
HETATM   16  C   UNL     1      -9.967  16.873  68.762  1.00  0.00    -0.276 A  
HETATM   17  N   UNL     1     -10.216  19.267  69.057  1.00  0.00    -0.573 NA 
HETATM   18  H2  UNL     1     -11.143  19.668  68.913  1.00  0.00     0.000 HD 
HETATM   19  H1  UNL     1     -10.058  19.174  70.061  1.00  0.00     0.000 HD 
HETATM   20  C   UNL     1      -9.953  15.747  67.933  1.00  0.00    -0.227 A  
ENDBRANCH   9  12
ENDBRANCH   7   8
ENDBRANCH   6   7
ENDBRANCH   3   6
ENDBRANCH   2   3
TORSDOF 6
ENDMDL
MODEL      197
REMARK 921   NORMALIZED FREE ENERGY PREDICTED BY IDOCK:   -2.86 KCAL/MOL
REMARK 922        TOTAL FREE ENERGY PREDICTED BY IDOCK:   -4.33 KCAL/MOL
REMARK 923 INTER-LIGAND FREE ENERGY PREDICTED BY IDOCK:   -3.78 KCAL/MOL
REMARK 924 INTRA-LIGAND FREE ENERGY PREDICTED BY IDOCK:   -0.55 KCAL/MOL
REMARK 927      BINDING AFFINITY PREDICTED BY RF-SCORE:    0.00 PKD
ROOT
HETATM    1  C   UNL     1      -5.450   9.115  72.707  1.00  0.00    -0.073 C  
HETATM    2  C   UNL     1      -5.906   7.990  71.780  1.00  0.00    -0.036 C  
ENDROOT
BRANCH   2   3
HETATM    3  N   UNL     1      -6.993   7.152  72.317  1.00  0.00    -0.064 NA 
BRANCH   3   4
HETATM    4  C   UNL     1      -6.541   5.821  72.775  1.00  0.00    -0.068 C  
HETATM    5  C   UNL     1      -7.546   4.676  72.648  1.00  0.00    -0.086 C  
ENDBRANCH   3   4
BRANCH   3   6
HETATM    6  C   UNL     1      -7.733   7.849  73.399  1.00  0.00    -0.149 C  
BRANCH   6   7
HETATM    7  C   UNL     1      -9.201   8.198  73.095  1.00  0.00    -0.266 C  
BRANCH   7   8
HETATM    8  N   UNL     1      -9.669   7.604  71.859  1.00  0.00    -0.161 N  
HETATM    9  C   UNL     1      -9.663   8.329  70.686  1.00  0.00    -0.171 C  
HETATM   10  H   UNL     1     -10.005   6.641  71.858  1.00  0.00     0.000 HD 
HETATM   11  O   UNL     1      -9.316   9.505  70.626  1.00  0.00    -0.254 OA 
BRANCH   9  12
HETATM   12  C   UNL     1     -10.085   7.611  69.452  1.00  0.00    -0.196 A  
HETATM   13  C   UNL     1     -10.258   8.272  68.232  1.00  0.00    -0.246 A  
HETATM   14  C   UNL     1     -10.644   7.552  67.095  1.00  0.00    -0.415 A  
HETATM   15  C   UNL     1     -10.894   6.179  67.165  1.00  0.00    -0.360 A  
HETATM   16  C   UNL     1     -10.639   5.512  68.366  1.00  0.00    -0.210 A  
HETATM   17  N   UNL     1     -11.161   5.453  65.999  1.00  0.00    -0.789 NA 
HETATM   18  H2  UNL     1     -10.397   5.608  65.342  1.00  0.00     0.000 HD 
HETATM   19  H1  UNL     1     -11.343   4.451  66.050  1.00  0.00     0.000 HD 
HETATM   20  C   UNL     1     -10.254   6.223  69.508  1.00  0.00    -0.239 A  
ENDBRANCH   9  12
ENDBRANCH   7   8
ENDBRANCH   6   7
ENDBRANCH   3   6
ENDBRANCH   2   3
TORSDOF 6
ENDMDL
MODEL      198
REMARK 921   NORMALIZED FREE ENERGY PREDICTED BY IDOCK:   -2.84 KCAL/MOL
REMARK 922        TOTAL FREE ENERGY PREDICTED BY IDOCK:   -4.32 KCAL/MOL
REMARK 923 INTER-LIGAND FREE ENERGY PREDICTED BY IDOCK:   -4.36 KCAL/MOL
REMARK 924 INTRA-LIGAND FREE ENERGY PREDICTED BY IDOCK:    0.04 KCAL/MOL
REMARK 927      BINDING AFFINITY PREDICTED BY RF-SCORE:    0.00 PKD
ROOT
HETATM    1  C   UNL     1      -9.708  17.346  68.552  1.00  0.00    -0.304 C  
HETATM    2  C   UNL     1      -9.521  18.056  67.212  1.00  0.00    -0.260 C  
ENDROOT
BRANCH   2   3
HETATM    3  N   UNL     1      -9.024  17.197  66.123  1.00  0.00    -0.473 NA 
BRANCH   3   4
HETATM    4  C   UNL     1      -7.597  16.836  66.260  1.00  0.00    -0.240 C  
HETATM    5  C   UNL     1      -6.654  17.943  66.734  1.00  0.00    -0.216 C  
ENDBRANCH   3   4
BRANCH   3   6
HETATM    6  C   UNL     1      -9.855  15.976  65.972  1.00  0.00    -0.337 C  
BRANCH   6   7
HETATM    7  C   UNL     1      -9.397  14.744  66.774  1.00  0.00    -0.249 C  
BRANCH   7   8
HETATM    8  N   UNL     1      -9.089  13.612  65.925  1.00  0.00    -0.382 N  
HETATM    9  C   UNL     1      -9.205  12.324  66.404  1.00  0.00    -0.203 C  
HETATM   10  H   UNL     1      -8.784  13.769  64.964  1.00  0.00     0.000 HD 
HETATM   11  O   UNL     1      -9.521  12.065  67.561  1.00  0.00    -0.173 OA 
BRANCH   9  12
HETATM   12  C   UNL     1      -8.946  11.223  65.437  1.00  0.00    -0.106 A  
HETATM   13  C   UNL     1      -8.038  10.194  65.708  1.00  0.00    -0.142 A  
HETATM   14  C   UNL     1      -7.837   9.173  64.773  1.00  0.00    -0.119 A  
HETATM   15  C   UNL     1      -8.508   9.180  63.546  1.00  0.00    -0.189 A  
HETATM   16  C   UNL     1      -9.473  10.163  63.317  1.00  0.00    -0.302 A  
HETATM   17  N   UNL     1      -8.388   8.093  62.674  1.00  0.00    -0.347 NA 
HETATM   18  H2  UNL     1      -8.649   7.245  63.178  1.00  0.00     0.000 HD 
HETATM   19  H1  UNL     1      -8.878   8.097  61.779  1.00  0.00     0.000 HD 
HETATM   20  C   UNL     1      -9.681  11.189  64.245  1.00  0.00    -0.315 A  
ENDBRANCH   9  12
ENDBRANCH   7   8
ENDBRANCH   6   7
ENDBRANCH   3   6
ENDBRANCH   2   3
TORSDOF 6
ENDMDL
MODEL      199
REMARK 921   NORMALIZED FREE ENERGY PREDICTED BY IDOCK:   -2.83 KCAL/MOL
REMARK 922        TOTAL FREE ENERGY PREDICTED BY IDOCK:   -4.30 KCAL/MOL
REMARK 923 INTER-LIGAND FREE ENERGY PREDICTED BY IDOCK:   -4.00 KCAL/MOL
REMARK 924 INTRA-LIGAND FREE ENERGY PREDICTED BY IDOCK:   -0.31 KCAL/MOL
REMARK 927      BINDING AFFINITY PREDICTED BY RF-SCORE:    0.00 PKD
ROOT
HETATM    1  C   UNL     1     -10.112  11.164  65.314  1.00  0.00    -0.329 C  
HETATM    2  C   UNL     1     -11.264  11.482  66.267  1.00  0.00    -0.222 C  
ENDROOT
BRANCH   2   3
HETATM    3  N   UNL     1     -10.859  12.114  67.535  1.00  0.00    -0.234 NA 
BRANCH   3   4
HETATM    4  C   UNL     1     -11.452  13.452  67.744  1.00  0.00    -0.316 C  
HETATM    5  C   UNL     1     -11.987  14.165  66.502  1.00  0.00    -0.466 C  
ENDBRANCH   3   4
BRANCH   3   6
HETATM    6  C   UNL     1     -11.142  11.234  68.696  1.00  0.00    -0.232 C  
BRANCH   6   7
HETATM    7  C   UNL     1      -9.939  10.457  69.263  1.00  0.00    -0.228 C  
BRANCH   7   8
HETATM    8  N   UNL     1     -10.336   9.251  69.959  1.00  0.00    -0.203 N  
HETATM    9  C   UNL     1      -9.403   8.490  70.633  1.00  0.00    -0.174 C  
HETATM   10  H   UNL     1     -11.314   8.961  69.951  1.00  0.00     0.000 HD 
HETATM   11  O   UNL     1      -8.205   8.755  70.645  1.00  0.00    -0.113 OA 
BRANCH   9  12
HETATM   12  C   UNL     1      -9.915   7.313  71.386  1.00  0.00    -0.193 A  
HETATM   13  C   UNL     1     -10.993   7.410  72.271  1.00  0.00    -0.296 A  
HETATM   14  C   UNL     1     -11.447   6.272  72.948  1.00  0.00    -0.126 A  
HETATM   15  C   UNL     1     -10.816   5.036  72.780  1.00  0.00    -0.244 A  
HETATM   16  C   UNL     1      -9.794   4.930  71.834  1.00  0.00    -0.241 A  
HETATM   17  N   UNL     1     -11.353   3.887  73.369  1.00  0.00    -0.209 NA 
HETATM   18  H2  UNL     1     -12.324   3.796  73.069  1.00  0.00     0.000 HD 
HETATM   19  H1  UNL     1     -10.893   2.985  73.246  1.00  0.00     0.000 HD 
HETATM   20  C   UNL     1      -9.332   6.062  71.153  1.00  0.00    -0.174 A  
ENDBRANCH   9  12
ENDBRANCH   7   8
ENDBRANCH   6   7
ENDBRANCH   3   6
ENDBRANCH   2   3
TORSDOF 6
ENDMDL
MODEL      200
REMARK 921   NORMALIZED FREE ENERGY PREDICTED BY IDOCK:   -2.79 KCAL/MOL
REMARK 922        TOTAL FREE ENERGY PREDICTED BY IDOCK:   -4.25 KCAL/MOL
REMARK 923 INTER-LIGAND FREE ENERGY PREDICTED BY IDOCK:   -3.73 KCAL/MOL
REMARK 924 INTRA-LIGAND FREE ENERGY PREDICTED BY IDOCK:   -0.52 KCAL/MOL
REMARK 927      BINDING AFFINITY PREDICTED BY RF-SCORE:    0.00 PKD
ROOT
HETATM    1  C   UNL     1      -7.588   4.472  72.865  1.00  0.00    -0.086 C  
HETATM    2  C   UNL     1      -7.345   5.959  72.612  1.00  0.00    -0.091 C  
ENDROOT
BRANCH   2   3
HETATM    3  N   UNL     1      -8.230   6.565  71.600  1.00  0.00    -0.112 NA 
BRANCH   3   4
HETATM    4  C   UNL     1      -7.501   7.204  70.485  1.00  0.00    -0.087 C  
HETATM    5  C   UNL     1      -7.106   8.669  70.677  1.00  0.00    -0.056 C  
ENDBRANCH   3   4
BRANCH   3   6
HETATM    6  C   UNL     1      -9.214   5.582  71.081  1.00  0.00    -0.149 C  
BRANCH   6   7
HETATM    7  C   UNL     1     -10.690   6.016  71.129  1.00  0.00    -0.264 C  
BRANCH   7   8
HETATM    8  N   UNL     1     -10.957   7.169  70.294  1.00  0.00    -0.256 N  
HETATM    9  C   UNL     1     -11.149   8.413  70.857  1.00  0.00    -0.254 C  
HETATM   10  H   UNL     1     -11.003   7.059  69.281  1.00  0.00     0.000 HD 
HETATM   11  O   UNL     1     -11.153   8.607  72.069  1.00  0.00    -0.321 OA 
BRANCH   9  12
HETATM   12  C   UNL     1     -11.336   9.552  69.918  1.00  0.00    -0.161 A  
HETATM   13  C   UNL     1     -10.934   9.486  68.580  1.00  0.00    -0.113 A  
HETATM   14  C   UNL     1     -11.143  10.579  67.731  1.00  0.00    -0.382 A  
HETATM   15  C   UNL     1     -11.720  11.759  68.209  1.00  0.00    -0.310 A  
HETATM   16  C   UNL     1     -12.193  11.789  69.523  1.00  0.00    -0.232 A  
HETATM   17  N   UNL     1     -12.031  12.797  67.324  1.00  0.00    -0.416 NA 
HETATM   18  H2  UNL     1     -12.627  12.423  66.586  1.00  0.00     0.000 HD 
HETATM   19  H1  UNL     1     -12.452  13.659  67.672  1.00  0.00     0.000 HD 
HETATM   20  C   UNL     1     -11.989  10.702  70.379  1.00  0.00    -0.436 A  
ENDBRANCH   9  12
ENDBRANCH   7   8
ENDBRANCH   6   7
ENDBRANCH   3   6
ENDBRANCH   2   3
TORSDOF 6
ENDMDL
MODEL      201
REMARK 921   NORMALIZED FREE ENERGY PREDICTED BY IDOCK:   -2.78 KCAL/MOL
REMARK 922        TOTAL FREE ENERGY PREDICTED BY IDOCK:   -4.24 KCAL/MOL
REMARK 923 INTER-LIGAND FREE ENERGY PREDICTED BY IDOCK:   -3.92 KCAL/MOL
REMARK 924 INTRA-LIGAND FREE ENERGY PREDICTED BY IDOCK:   -0.32 KCAL/MOL
REMARK 927      BINDING AFFINITY PREDICTED BY RF-SCORE:    0.00 PKD
ROOT
HETATM    1  C   UNL     1     -10.465  11.654  66.074  1.00  0.00    -0.294 C  
HETATM    2  C   UNL     1      -9.286  11.149  65.243  1.00  0.00    -0.219 C  
ENDROOT
BRANCH   2   3
HETATM    3  N   UNL     1      -9.185   9.682  65.145  1.00  0.00    -0.230 NA 
BRANCH   3   4
HETATM    4  C   UNL     1      -7.797   9.179  65.213  1.00  0.00    -0.105 C  
HETATM    5  C   UNL     1      -6.763   9.905  64.351  1.00  0.00    -0.125 C  
ENDBRANCH   3   4
BRANCH   3   6
HETATM    6  C   UNL     1     -10.031   9.010  66.164  1.00  0.00    -0.241 C  
BRANCH   6   7
HETATM    7  C   UNL     1      -9.519   7.651  66.676  1.00  0.00    -0.198 C  
BRANCH   7   8
HETATM    8  N   UNL     1      -9.781   7.456  68.087  1.00  0.00    -0.149 N  
HETATM    9  C   UNL     1     -10.267   6.251  68.550  1.00  0.00    -0.176 C  
HETATM   10  H   UNL     1      -9.606   8.216  68.744  1.00  0.00     0.000 HD 
HETATM   11  O   UNL     1     -10.544   5.311  67.811  1.00  0.00    -0.143 OA 
BRANCH   9  12
HETATM   12  C   UNL     1     -10.429   6.114  70.023  1.00  0.00    -0.294 A  
HETATM   13  C   UNL     1      -9.703   5.179  70.766  1.00  0.00    -0.255 A  
HETATM   14  C   UNL     1      -9.880   5.096  72.152  1.00  0.00    -0.222 A  
HETATM   15  C   UNL     1     -10.803   5.915  72.808  1.00  0.00    -0.252 A  
HETATM   16  C   UNL     1     -11.464   6.902  72.073  1.00  0.00    -0.310 A  
HETATM   17  N   UNL     1     -10.883   5.905  74.205  1.00  0.00    -0.355 NA 
HETATM   18  H2  UNL     1      -9.956   6.099  74.582  1.00  0.00     0.000 HD 
HETATM   19  H1  UNL     1     -11.557   6.503  74.684  1.00  0.00     0.000 HD 
HETATM   20  C   UNL     1     -11.294   6.993  70.687  1.00  0.00    -0.349 A  
ENDBRANCH   9  12
ENDBRANCH   7   8
ENDBRANCH   6   7
ENDBRANCH   3   6
ENDBRANCH   2   3
TORSDOF 6
ENDMDL
MODEL      202
REMARK 921   NORMALIZED FREE ENERGY PREDICTED BY IDOCK:   -2.78 KCAL/MOL
REMARK 922        TOTAL FREE ENERGY PREDICTED BY IDOCK:   -4.23 KCAL/MOL
REMARK 923 INTER-LIGAND FREE ENERGY PREDICTED BY IDOCK:   -3.85 KCAL/MOL
REMARK 924 INTRA-LIGAND FREE ENERGY PREDICTED BY IDOCK:   -0.38 KCAL/MOL
REMARK 927      BINDING AFFINITY PREDICTED BY RF-SCORE:    0.00 PKD
ROOT
HETATM    1  C   UNL     1      -8.832   5.015  72.009  1.00  0.00    -0.139 C  
HETATM    2  C   UNL     1      -8.289   6.442  72.064  1.00  0.00    -0.109 C  
ENDROOT
BRANCH   2   3
HETATM    3  N   UNL     1      -8.946   7.388  71.145  1.00  0.00    -0.143 NA 
BRANCH   3   4
HETATM    4  C   UNL     1      -8.000   8.132  70.287  1.00  0.00    -0.103 C  
HETATM    5  C   UNL     1      -7.866   9.631  70.556  1.00  0.00    -0.150 C  
ENDBRANCH   3   4
BRANCH   3   6
HETATM    6  C   UNL     1      -9.977   6.713  70.316  1.00  0.00    -0.174 C  
BRANCH   6   7
HETATM    7  C   UNL     1     -11.418   7.228  70.482  1.00  0.00    -0.279 C  
BRANCH   7   8
HETATM    8  N   UNL     1     -11.504   8.671  70.403  1.00  0.00    -0.426 N  
HETATM    9  C   UNL     1     -11.228   9.327  69.222  1.00  0.00     0.092 C  
HETATM   10  H   UNL     1     -11.772   9.207  71.228  1.00  0.00     0.000 HD 
HETATM   11  O   UNL     1     -10.856   8.749  68.205  1.00  0.00    -0.111 OA 
BRANCH   9  12
HETATM   12  C   UNL     1     -11.421  10.803  69.212  1.00  0.00    -0.369 A  
HETATM   13  C   UNL     1     -12.150  11.462  70.207  1.00  0.00    -0.459 A  
HETATM   14  C   UNL     1     -12.294  12.854  70.162  1.00  0.00    -0.249 A  
HETATM   15  C   UNL     1     -11.746  13.600  69.115  1.00  0.00    -0.329 A  
HETATM   16  C   UNL     1     -10.950  12.945  68.172  1.00  0.00    -0.273 A  
HETATM   17  N   UNL     1     -11.795  14.997  69.147  1.00  0.00    -0.375 NA 
HETATM   18  H2  UNL     1     -11.376  15.314  70.022  1.00  0.00     0.000 HD 
HETATM   19  H1  UNL     1     -11.395  15.542  68.383  1.00  0.00     0.000 HD 
HETATM   20  C   UNL     1     -10.801  11.555  68.207  1.00  0.00    -0.257 A  
ENDBRANCH   9  12
ENDBRANCH   7   8
ENDBRANCH   6   7
ENDBRANCH   3   6
ENDBRANCH   2   3
TORSDOF 6
ENDMDL
MODEL      203
REMARK 921   NORMALIZED FREE ENERGY PREDICTED BY IDOCK:   -2.77 KCAL/MOL
REMARK 922        TOTAL FREE ENERGY PREDICTED BY IDOCK:   -4.22 KCAL/MOL
REMARK 923 INTER-LIGAND FREE ENERGY PREDICTED BY IDOCK:   -3.77 KCAL/MOL
REMARK 924 INTRA-LIGAND FREE ENERGY PREDICTED BY IDOCK:   -0.45 KCAL/MOL
REMARK 927      BINDING AFFINITY PREDICTED BY RF-SCORE:    0.00 PKD
ROOT
HETATM    1  C   UNL     1     -11.235   8.686  71.295  1.00  0.00    -0.338 C  
HETATM    2  C   UNL     1     -12.664   9.228  71.310  1.00  0.00    -0.299 C  
ENDROOT
BRANCH   2   3
HETATM    3  N   UNL     1     -12.806  10.603  70.801  1.00  0.00    -0.365 NA 
BRANCH   3   4
HETATM    4  C   UNL     1     -13.070  11.601  71.859  1.00  0.00    -0.385 C  
HETATM    5  C   UNL     1     -12.917  13.071  71.468  1.00  0.00    -0.398 C  
ENDBRANCH   3   4
BRANCH   3   6
HETATM    6  C   UNL     1     -11.631  11.007  69.989  1.00  0.00    -0.344 C  
BRANCH   6   7
HETATM    7  C   UNL     1     -11.832  11.004  68.462  1.00  0.00    -0.216 C  
BRANCH   7   8
HETATM    8  N   UNL     1     -10.613  10.698  67.742  1.00  0.00    -0.217 N  
HETATM    9  C   UNL     1     -10.313   9.398  67.393  1.00  0.00    -0.263 C  
HETATM   10  H   UNL     1      -9.971  11.450  67.492  1.00  0.00     0.000 HD 
HETATM   11  O   UNL     1     -11.016   8.441  67.702  1.00  0.00    -0.084 OA 
BRANCH   9  12
HETATM   12  C   UNL     1      -9.081   9.189  66.584  1.00  0.00    -0.182 A  
HETATM   13  C   UNL     1      -8.678   7.918  66.161  1.00  0.00    -0.181 A  
HETATM   14  C   UNL     1      -7.518   7.772  65.392  1.00  0.00    -0.081 A  
HETATM   15  C   UNL     1      -6.729   8.879  65.064  1.00  0.00    -0.069 A  
HETATM   16  C   UNL     1      -7.181  10.152  65.419  1.00  0.00    -0.144 A  
HETATM   17  N   UNL     1      -5.642   8.734  64.196  1.00  0.00    -0.064 NA 
HETATM   18  H2  UNL     1      -5.975   8.308  63.331  1.00  0.00     0.000 HD 
HETATM   19  H1  UNL     1      -5.066   9.541  63.956  1.00  0.00     0.000 HD 
HETATM   20  C   UNL     1      -8.339  10.308  66.189  1.00  0.00    -0.140 A  
ENDBRANCH   9  12
ENDBRANCH   7   8
ENDBRANCH   6   7
ENDBRANCH   3   6
ENDBRANCH   2   3
TORSDOF 6
ENDMDL
MODEL      204
REMARK 921   NORMALIZED FREE ENERGY PREDICTED BY IDOCK:   -2.77 KCAL/MOL
REMARK 922        TOTAL FREE ENERGY PREDICTED BY IDOCK:   -4.22 KCAL/MOL
REMARK 923 INTER-LIGAND FREE ENERGY PREDICTED BY IDOCK:   -3.86 KCAL/MOL
REMARK 924 INTRA-LIGAND FREE ENERGY PREDICTED BY IDOCK:   -0.36 KCAL/MOL
REMARK 927      BINDING AFFINITY PREDICTED BY RF-SCORE:    0.00 PKD
ROOT
HETATM    1  C   UNL     1      -7.306   5.319  67.848  1.00  0.00    -0.076 C  
HETATM    2  C   UNL     1      -8.310   6.212  67.120  1.00  0.00    -0.105 C  
ENDROOT
BRANCH   2   3
HETATM    3  N   UNL     1      -8.132   7.656  67.352  1.00  0.00    -0.118 NA 
BRANCH   3   4
HETATM    4  C   UNL     1      -6.843   7.998  67.990  1.00  0.00    -0.072 C  
HETATM    5  C   UNL     1      -6.439   9.472  67.969  1.00  0.00    -0.061 C  
ENDBRANCH   3   4
BRANCH   3   6
HETATM    6  C   UNL     1      -8.315   8.434  66.101  1.00  0.00    -0.125 C  
BRANCH   6   7
HETATM    7  C   UNL     1      -9.735   8.967  65.839  1.00  0.00    -0.189 C  
BRANCH   7   8
HETATM    8  N   UNL     1      -9.915  10.323  66.312  1.00  0.00    -0.224 N  
HETATM    9  C   UNL     1     -10.453  11.289  65.488  1.00  0.00    -0.265 C  
HETATM   10  H   UNL     1      -9.641  10.566  67.264  1.00  0.00     0.000 HD 
HETATM   11  O   UNL     1     -10.761  11.077  64.319  1.00  0.00    -0.368 OA 
BRANCH   9  12
HETATM   12  C   UNL     1     -10.676  12.633  66.086  1.00  0.00    -0.293 A  
HETATM   13  C   UNL     1     -11.877  12.976  66.715  1.00  0.00    -0.451 A  
HETATM   14  C   UNL     1     -12.036  14.249  67.274  1.00  0.00    -0.439 A  
HETATM   15  C   UNL     1     -11.019  15.205  67.185  1.00  0.00    -0.326 A  
HETATM   16  C   UNL     1      -9.794  14.829  66.629  1.00  0.00    -0.270 A  
HETATM   17  N   UNL     1     -11.145  16.429  67.851  1.00  0.00    -0.297 NA 
HETATM   18  H2  UNL     1     -11.325  16.241  68.837  1.00  0.00     0.000 HD 
HETATM   19  H1  UNL     1     -10.403  17.126  67.786  1.00  0.00     0.000 HD 
HETATM   20  C   UNL     1      -9.626  13.559  66.067  1.00  0.00    -0.179 A  
ENDBRANCH   9  12
ENDBRANCH   7   8
ENDBRANCH   6   7
ENDBRANCH   3   6
ENDBRANCH   2   3
TORSDOF 6
ENDMDL
MODEL      205
REMARK 921   NORMALIZED FREE ENERGY PREDICTED BY IDOCK:   -2.77 KCAL/MOL
REMARK 922        TOTAL FREE ENERGY PREDICTED BY IDOCK:   -4.22 KCAL/MOL
REMARK 923 INTER-LIGAND FREE ENERGY PREDICTED BY IDOCK:   -3.70 KCAL/MOL
REMARK 924 INTRA-LIGAND FREE ENERGY PREDICTED BY IDOCK:   -0.51 KCAL/MOL
REMARK 927      BINDING AFFINITY PREDICTED BY RF-SCORE:    0.00 PKD
ROOT
HETATM    1  C   UNL     1     -10.179  11.298  65.900  1.00  0.00    -0.298 C  
HETATM    2  C   UNL     1     -11.263  11.231  66.975  1.00  0.00    -0.255 C  
ENDROOT
BRANCH   2   3
HETATM    3  N   UNL     1     -10.924  11.915  68.236  1.00  0.00    -0.215 NA 
BRANCH   3   4
HETATM    4  C   UNL     1     -11.818  13.048  68.552  1.00  0.00    -0.325 C  
HETATM    5  C   UNL     1     -12.073  13.326  70.034  1.00  0.00    -0.385 C  
ENDBRANCH   3   4
BRANCH   3   6
HETATM    6  C   UNL     1     -10.871  10.962  69.373  1.00  0.00    -0.240 C  
BRANCH   6   7
HETATM    7  C   UNL     1      -9.568  10.154  69.517  1.00  0.00    -0.221 C  
BRANCH   7   8
HETATM    8  N   UNL     1      -9.719   8.778  69.092  1.00  0.00    -0.172 N  
HETATM    9  C   UNL     1      -8.951   8.272  68.065  1.00  0.00    -0.138 C  
HETATM   10  H   UNL     1     -10.400   8.178  69.558  1.00  0.00     0.000 HD 
HETATM   11  O   UNL     1      -8.148   8.951  67.432  1.00  0.00    -0.107 OA 
BRANCH   9  12
HETATM   12  C   UNL     1      -9.117   6.827  67.752  1.00  0.00    -0.117 A  
HETATM   13  C   UNL     1      -9.302   5.867  68.752  1.00  0.00    -0.133 A  
HETATM   14  C   UNL     1      -9.467   4.520  68.408  1.00  0.00    -0.209 A  
HETATM   15  C   UNL     1      -9.415   4.109  67.073  1.00  0.00    -0.192 A  
HETATM   16  C   UNL     1      -9.312   5.081  66.076  1.00  0.00    -0.161 A  
HETATM   17  N   UNL     1      -9.699   2.781  66.736  1.00  0.00    -0.369 NA 
HETATM   18  H2  UNL     1     -10.618   2.544  67.110  1.00  0.00     0.000 HD 
HETATM   19  H1  UNL     1      -9.662   2.480  65.762  1.00  0.00     0.000 HD 
HETATM   20  C   UNL     1      -9.147   6.430  66.409  1.00  0.00    -0.168 A  
ENDBRANCH   9  12
ENDBRANCH   7   8
ENDBRANCH   6   7
ENDBRANCH   3   6
ENDBRANCH   2   3
TORSDOF 6
ENDMDL
MODEL      206
REMARK 921   NORMALIZED FREE ENERGY PREDICTED BY IDOCK:   -2.75 KCAL/MOL
REMARK 922        TOTAL FREE ENERGY PREDICTED BY IDOCK:   -4.20 KCAL/MOL
REMARK 923 INTER-LIGAND FREE ENERGY PREDICTED BY IDOCK:   -4.77 KCAL/MOL
REMARK 924 INTRA-LIGAND FREE ENERGY PREDICTED BY IDOCK:    0.58 KCAL/MOL
REMARK 927      BINDING AFFINITY PREDICTED BY RF-SCORE:    0.00 PKD
ROOT
HETATM    1  C   UNL     1     -11.608  16.352  69.292  1.00  0.00    -0.084 C  
HETATM    2  C   UNL     1     -11.148  15.717  70.603  1.00  0.00    -0.359 C  
ENDROOT
BRANCH   2   3
HETATM    3  N   UNL     1     -11.798  14.435  70.928  1.00  0.00    -0.308 NA 
BRANCH   3   4
HETATM    4  C   UNL     1     -12.778  14.532  72.030  1.00  0.00    -0.338 C  
HETATM    5  C   UNL     1     -14.256  14.519  71.635  1.00  0.00    -0.554 C  
ENDBRANCH   3   4
BRANCH   3   6
HETATM    6  C   UNL     1     -12.425  13.824  69.728  1.00  0.00    -0.162 C  
BRANCH   6   7
HETATM    7  C   UNL     1     -11.529  13.712  68.482  1.00  0.00    -0.312 C  
BRANCH   7   8
HETATM    8  N   UNL     1     -11.278  12.337  68.101  1.00  0.00    -0.248 N  
HETATM    9  C   UNL     1     -10.300  12.032  67.177  1.00  0.00    -0.213 C  
HETATM   10  H   UNL     1     -11.829  11.588  68.519  1.00  0.00     0.000 HD 
HETATM   11  O   UNL     1      -9.632  12.886  66.601  1.00  0.00    -0.245 OA 
BRANCH   9  12
HETATM   12  C   UNL     1     -10.058  10.589  66.908  1.00  0.00    -0.265 A  
HETATM   13  C   UNL     1     -10.569   9.584  67.735  1.00  0.00    -0.318 A  
HETATM   14  C   UNL     1     -10.325   8.239  67.435  1.00  0.00    -0.350 A  
HETATM   15  C   UNL     1      -9.545   7.879  66.332  1.00  0.00    -0.181 A  
HETATM   16  C   UNL     1      -9.108   8.884  65.465  1.00  0.00    -0.248 A  
HETATM   17  N   UNL     1      -9.411   6.533  65.976  1.00  0.00    -0.355 NA 
HETATM   18  H2  UNL     1     -10.343   6.138  65.853  1.00  0.00     0.000 HD 
HETATM   19  H1  UNL     1      -8.842   6.270  65.170  1.00  0.00     0.000 HD 
HETATM   20  C   UNL     1      -9.346  10.231  65.757  1.00  0.00    -0.233 A  
ENDBRANCH   9  12
ENDBRANCH   7   8
ENDBRANCH   6   7
ENDBRANCH   3   6
ENDBRANCH   2   3
TORSDOF 6
ENDMDL
MODEL      207
REMARK 921   NORMALIZED FREE ENERGY PREDICTED BY IDOCK:   -2.71 KCAL/MOL
REMARK 922        TOTAL FREE ENERGY PREDICTED BY IDOCK:   -4.13 KCAL/MOL
REMARK 923 INTER-LIGAND FREE ENERGY PREDICTED BY IDOCK:   -3.80 KCAL/MOL
REMARK 924 INTRA-LIGAND FREE ENERGY PREDICTED BY IDOCK:   -0.34 KCAL/MOL
REMARK 927      BINDING AFFINITY PREDICTED BY RF-SCORE:    0.00 PKD
ROOT
HETATM    1  C   UNL     1     -10.145  18.174  67.519  1.00  0.00    -0.358 C  
HETATM    2  C   UNL     1     -10.381  16.728  67.953  1.00  0.00    -0.319 C  
ENDROOT
BRANCH   2   3
HETATM    3  N   UNL     1      -9.517  15.736  67.290  1.00  0.00    -0.211 NA 
BRANCH   3   4
HETATM    4  C   UNL     1      -8.105  15.801  67.722  1.00  0.00    -0.144 C  
HETATM    5  C   UNL     1      -7.767  15.146  69.062  1.00  0.00    -0.177 C  
ENDBRANCH   3   4
BRANCH   3   6
HETATM    6  C   UNL     1     -10.046  14.358  67.453  1.00  0.00    -0.243 C  
BRANCH   6   7
HETATM    7  C   UNL     1      -9.614  13.339  66.383  1.00  0.00    -0.254 C  
BRANCH   7   8
HETATM    8  N   UNL     1      -9.973  11.980  66.734  1.00  0.00    -0.199 N  
HETATM    9  C   UNL     1      -9.162  11.231  67.560  1.00  0.00    -0.158 C  
HETATM   10  H   UNL     1     -10.834  11.574  66.367  1.00  0.00     0.000 HD 
HETATM   11  O   UNL     1      -8.091  11.640  67.999  1.00  0.00    -0.124 OA 
BRANCH   9  12
HETATM   12  C   UNL     1      -9.651   9.876  67.931  1.00  0.00    -0.157 A  
HETATM   13  C   UNL     1     -10.177   9.597  69.197  1.00  0.00    -0.212 A  
HETATM   14  C   UNL     1     -10.637   8.309  69.496  1.00  0.00    -0.216 A  
HETATM   15  C   UNL     1     -10.548   7.279  68.556  1.00  0.00    -0.175 A  
HETATM   16  C   UNL     1     -10.098   7.583  67.269  1.00  0.00    -0.300 A  
HETATM   17  N   UNL     1     -11.119   6.030  68.826  1.00  0.00    -0.322 NA 
HETATM   18  H2  UNL     1     -12.102   6.170  69.058  1.00  0.00     0.000 HD 
HETATM   19  H1  UNL     1     -11.054   5.278  68.140  1.00  0.00     0.000 HD 
HETATM   20  C   UNL     1      -9.636   8.867  66.960  1.00  0.00    -0.232 A  
ENDBRANCH   9  12
ENDBRANCH   7   8
ENDBRANCH   6   7
ENDBRANCH   3   6
ENDBRANCH   2   3
TORSDOF 6
ENDMDL
MODEL      208
REMARK 921   NORMALIZED FREE ENERGY PREDICTED BY IDOCK:   -2.69 KCAL/MOL
REMARK 922        TOTAL FREE ENERGY PREDICTED BY IDOCK:   -4.11 KCAL/MOL
REMARK 923 INTER-LIGAND FREE ENERGY PREDICTED BY IDOCK:   -3.67 KCAL/MOL
REMARK 924 INTRA-LIGAND FREE ENERGY PREDICTED BY IDOCK:   -0.44 KCAL/MOL
REMARK 927      BINDING AFFINITY PREDICTED BY RF-SCORE:    0.00 PKD
ROOT
HETATM    1  C   UNL     1      -8.091   7.375  70.847  1.00  0.00    -0.105 C  
HETATM    2  C   UNL     1      -9.153   8.471  70.777  1.00  0.00    -0.165 C  
ENDROOT
BRANCH   2   3
HETATM    3  N   UNL     1      -9.086   9.319  69.574  1.00  0.00    -0.152 NA 
BRANCH   3   4
HETATM    4  C   UNL     1      -7.761   9.314  68.921  1.00  0.00    -0.079 C  
HETATM    5  C   UNL     1      -6.891  10.555  69.126  1.00  0.00    -0.074 C  
ENDBRANCH   3   4
BRANCH   3   6
HETATM    6  C   UNL     1     -10.147   8.963  68.599  1.00  0.00    -0.188 C  
BRANCH   6   7
HETATM    7  C   UNL     1     -11.490   9.697  68.764  1.00  0.00     0.269 C  
BRANCH   7   8
HETATM    8  N   UNL     1     -11.385  11.115  68.488  1.00  0.00    -0.256 N  
HETATM    9  C   UNL     1     -11.683  12.044  69.462  1.00  0.00    -0.342 C  
HETATM   10  H   UNL     1     -11.088  11.429  67.564  1.00  0.00     0.000 HD 
HETATM   11  O   UNL     1     -12.090  11.737  70.579  1.00  0.00    -0.363 OA 
BRANCH   9  12
HETATM   12  C   UNL     1     -11.468  13.474  69.114  1.00  0.00    -0.345 A  
HETATM   13  C   UNL     1     -10.768  13.862  67.968  1.00  0.00    -0.255 A  
HETATM   14  C   UNL     1     -10.602  15.221  67.674  1.00  0.00    -0.270 A  
HETATM   15  C   UNL     1     -11.100  16.206  68.532  1.00  0.00    -0.357 A  
HETATM   16  C   UNL     1     -11.868  15.813  69.630  1.00  0.00    -0.352 A  
HETATM   17  N   UNL     1     -11.032  17.555  68.166  1.00  0.00    -0.238 NA 
HETATM   18  H2  UNL     1     -11.479  17.665  67.256  1.00  0.00     0.000 HD 
HETATM   19  H1  UNL     1     -11.395  18.275  68.792  1.00  0.00     0.000 HD 
HETATM   20  C   UNL     1     -12.039  14.457  69.931  1.00  0.00    -0.398 A  
ENDBRANCH   9  12
ENDBRANCH   7   8
ENDBRANCH   6   7
ENDBRANCH   3   6
ENDBRANCH   2   3
TORSDOF 6
ENDMDL
MODEL      209
REMARK 921   NORMALIZED FREE ENERGY PREDICTED BY IDOCK:   -2.68 KCAL/MOL
REMARK 922        TOTAL FREE ENERGY PREDICTED BY IDOCK:   -4.09 KCAL/MOL
REMARK 923 INTER-LIGAND FREE ENERGY PREDICTED BY IDOCK:   -4.11 KCAL/MOL
REMARK 924 INTRA-LIGAND FREE ENERGY PREDICTED BY IDOCK:    0.02 KCAL/MOL
REMARK 927      BINDING AFFINITY PREDICTED BY RF-SCORE:    0.00 PKD
ROOT
HETATM    1  C   UNL     1     -11.453  12.067  69.118  1.00  0.00    -0.357 C  
HETATM    2  C   UNL     1     -11.958  11.519  70.452  1.00  0.00    -0.368 C  
ENDROOT
BRANCH   2   3
HETATM    3  N   UNL     1     -11.293  10.284  70.902  1.00  0.00    -0.336 NA 
BRANCH   3   4
HETATM    4  C   UNL     1     -12.122   9.463  71.809  1.00  0.00    -0.382 C  
HETATM    5  C   UNL     1     -13.614   9.796  71.862  1.00  0.00    -0.421 C  
ENDBRANCH   3   4
BRANCH   3   6
HETATM    6  C   UNL     1     -10.820   9.471  69.753  1.00  0.00    -0.243 C  
BRANCH   6   7
HETATM    7  C   UNL     1      -9.415   8.858  69.892  1.00  0.00    -0.170 C  
BRANCH   7   8
HETATM    8  N   UNL     1      -9.374   7.467  69.492  1.00  0.00    -0.156 N  
HETATM    9  C   UNL     1      -9.733   7.094  68.214  1.00  0.00    -0.144 C  
HETATM   10  H   UNL     1      -9.077   6.757  70.162  1.00  0.00     0.000 HD 
HETATM   11  O   UNL     1     -10.143   7.889  67.373  1.00  0.00    -0.183 OA 
BRANCH   9  12
HETATM   12  C   UNL     1      -9.582   5.654  67.868  1.00  0.00    -0.133 A  
HETATM   13  C   UNL     1      -9.205   4.698  68.816  1.00  0.00    -0.179 A  
HETATM   14  C   UNL     1      -9.089   3.353  68.447  1.00  0.00    -0.206 A  
HETATM   15  C   UNL     1      -9.311   2.949  67.127  1.00  0.00    -0.118 A  
HETATM   16  C   UNL     1      -9.767   3.895  66.205  1.00  0.00    -0.176 A  
HETATM   17  N   UNL     1      -9.309   1.589  66.799  1.00  0.00    -0.339 NA 
HETATM   18  H2  UNL     1      -9.981   1.112  67.399  1.00  0.00     0.000 HD 
HETATM   19  H1  UNL     1      -9.471   1.294  65.836  1.00  0.00     0.000 HD 
HETATM   20  C   UNL     1      -9.886   5.241  66.565  1.00  0.00    -0.204 A  
ENDBRANCH   9  12
ENDBRANCH   7   8
ENDBRANCH   6   7
ENDBRANCH   3   6
ENDBRANCH   2   3
TORSDOF 6
ENDMDL
MODEL      210
REMARK 921   NORMALIZED FREE ENERGY PREDICTED BY IDOCK:   -2.63 KCAL/MOL
REMARK 922        TOTAL FREE ENERGY PREDICTED BY IDOCK:   -4.03 KCAL/MOL
REMARK 923 INTER-LIGAND FREE ENERGY PREDICTED BY IDOCK:   -3.56 KCAL/MOL
REMARK 924 INTRA-LIGAND FREE ENERGY PREDICTED BY IDOCK:   -0.48 KCAL/MOL
REMARK 927      BINDING AFFINITY PREDICTED BY RF-SCORE:    0.00 PKD
ROOT
HETATM    1  C   UNL     1      -6.501  10.682  70.126  1.00  0.00    -0.152 C  
HETATM    2  C   UNL     1      -7.371  10.378  68.907  1.00  0.00    -0.094 C  
ENDROOT
BRANCH   2   3
HETATM    3  N   UNL     1      -8.599  11.187  68.809  1.00  0.00    -0.155 NA 
BRANCH   3   4
HETATM    4  C   UNL     1      -8.573  12.168  67.704  1.00  0.00    -0.166 C  
HETATM    5  C   UNL     1      -8.955  13.607  68.056  1.00  0.00    -0.188 C  
ENDBRANCH   3   4
BRANCH   3   6
HETATM    6  C   UNL     1      -9.808  10.330  68.714  1.00  0.00    -0.180 C  
BRANCH   6   7
HETATM    7  C   UNL     1     -10.594  10.127  70.022  1.00  0.00    -0.287 C  
BRANCH   7   8
HETATM    8  N   UNL     1     -10.663   8.735  70.417  1.00  0.00    -0.219 N  
HETATM    9  C   UNL     1      -9.853   8.251  71.423  1.00  0.00    -0.184 C  
HETATM   10  H   UNL     1     -11.316   8.108  69.947  1.00  0.00     0.000 HD 
HETATM   11  O   UNL     1      -9.014   8.937  71.997  1.00  0.00    -0.365 OA 
BRANCH   9  12
HETATM   12  C   UNL     1     -10.050   6.829  71.816  1.00  0.00    -0.195 A  
HETATM   13  C   UNL     1     -10.935   6.456  72.832  1.00  0.00    -0.281 A  
HETATM   14  C   UNL     1     -11.096   5.104  73.159  1.00  0.00    -0.391 A  
HETATM   15  C   UNL     1     -10.357   4.114  72.506  1.00  0.00    -0.159 A  
HETATM   16  C   UNL     1      -9.536   4.486  71.438  1.00  0.00    -0.232 A  
HETATM   17  N   UNL     1     -10.615   2.763  72.758  1.00  0.00    -0.132 NA 
HETATM   18  H2  UNL     1     -11.605   2.587  72.590  1.00  0.00     0.000 HD 
HETATM   19  H1  UNL     1     -10.075   2.040  72.281  1.00  0.00     0.000 HD 
HETATM   20  C   UNL     1      -9.368   5.834  71.104  1.00  0.00    -0.174 A  
ENDBRANCH   9  12
ENDBRANCH   7   8
ENDBRANCH   6   7
ENDBRANCH   3   6
ENDBRANCH   2   3
TORSDOF 6
ENDMDL
MODEL      211
REMARK 921   NORMALIZED FREE ENERGY PREDICTED BY IDOCK:   -2.63 KCAL/MOL
REMARK 922        TOTAL FREE ENERGY PREDICTED BY IDOCK:   -4.03 KCAL/MOL
REMARK 923 INTER-LIGAND FREE ENERGY PREDICTED BY IDOCK:   -3.81 KCAL/MOL
REMARK 924 INTRA-LIGAND FREE ENERGY PREDICTED BY IDOCK:   -0.22 KCAL/MOL
REMARK 927      BINDING AFFINITY PREDICTED BY RF-SCORE:    0.00 PKD
ROOT
HETATM    1  C   UNL     1     -10.252  12.084  68.033  1.00  0.00    -0.203 C  
HETATM    2  C   UNL     1     -11.145  10.987  68.612  1.00  0.00    -0.240 C  
ENDROOT
BRANCH   2   3
HETATM    3  N   UNL     1     -11.359  11.071  70.067  1.00  0.00    -0.290 NA 
BRANCH   3   4
HETATM    4  C   UNL     1     -12.784  11.170  70.450  1.00  0.00    -0.168 C  
HETATM    5  C   UNL     1     -13.085  11.278  71.945  1.00  0.00    -0.510 C  
ENDBRANCH   3   4
BRANCH   3   6
HETATM    6  C   UNL     1     -10.709   9.942  70.779  1.00  0.00    -0.280 C  
BRANCH   6   7
HETATM    7  C   UNL     1      -9.328   9.516  70.247  1.00  0.00    -0.259 C  
BRANCH   7   8
HETATM    8  N   UNL     1      -9.363   8.234  69.575  1.00  0.00    -0.158 N  
HETATM    9  C   UNL     1      -9.119   7.069  70.273  1.00  0.00    -0.156 C  
HETATM   10  H   UNL     1      -9.568   8.192  68.577  1.00  0.00     0.000 HD 
HETATM   11  O   UNL     1      -8.820   7.051  71.463  1.00  0.00    -0.128 OA 
BRANCH   9  12
HETATM   12  C   UNL     1      -9.257   5.794  69.518  1.00  0.00    -0.150 A  
HETATM   13  C   UNL     1      -9.233   5.752  68.120  1.00  0.00    -0.110 A  
HETATM   14  C   UNL     1      -9.353   4.527  67.454  1.00  0.00    -0.168 A  
HETATM   15  C   UNL     1      -9.531   3.337  68.166  1.00  0.00    -0.155 A  
HETATM   16  C   UNL     1      -9.471   3.376  69.561  1.00  0.00    -0.219 A  
HETATM   17  N   UNL     1      -9.529   2.110  67.494  1.00  0.00    -0.397 NA 
HETATM   18  H2  UNL     1      -8.665   2.038  66.958  1.00  0.00     0.000 HD 
HETATM   19  H1  UNL     1      -9.659   1.242  68.013  1.00  0.00     0.000 HD 
HETATM   20  C   UNL     1      -9.352   4.596  70.236  1.00  0.00    -0.218 A  
ENDBRANCH   9  12
ENDBRANCH   7   8
ENDBRANCH   6   7
ENDBRANCH   3   6
ENDBRANCH   2   3
TORSDOF 6
ENDMDL
MODEL      212
REMARK 921   NORMALIZED FREE ENERGY PREDICTED BY IDOCK:   -2.63 KCAL/MOL
REMARK 922        TOTAL FREE ENERGY PREDICTED BY IDOCK:   -4.02 KCAL/MOL
REMARK 923 INTER-LIGAND FREE ENERGY PREDICTED BY IDOCK:   -3.66 KCAL/MOL
REMARK 924 INTRA-LIGAND FREE ENERGY PREDICTED BY IDOCK:   -0.37 KCAL/MOL
REMARK 927      BINDING AFFINITY PREDICTED BY RF-SCORE:    0.00 PKD
ROOT
HETATM    1  C   UNL     1      -6.451   3.412  63.271  1.00  0.00    -0.029 C  
HETATM    2  C   UNL     1      -7.892   3.919  63.257  1.00  0.00    -0.074 C  
ENDROOT
BRANCH   2   3
HETATM    3  N   UNL     1      -8.233   4.835  64.360  1.00  0.00    -0.110 NA 
BRANCH   3   4
HETATM    4  C   UNL     1      -8.236   4.186  65.688  1.00  0.00    -0.109 C  
HETATM    5  C   UNL     1      -9.240   3.050  65.892  1.00  0.00    -0.122 C  
ENDBRANCH   3   4
BRANCH   3   6
HETATM    6  C   UNL     1      -7.350   6.029  64.368  1.00  0.00    -0.068 C  
BRANCH   6   7
HETATM    7  C   UNL     1      -7.560   7.032  63.219  1.00  0.00    -0.108 C  
BRANCH   7   8
HETATM    8  N   UNL     1      -8.579   8.016  63.521  1.00  0.00    -0.380 N  
HETATM    9  C   UNL     1      -8.233   9.249  64.031  1.00  0.00    -0.164 C  
HETATM   10  H   UNL     1      -9.561   7.794  63.356  1.00  0.00     0.000 HD 
HETATM   11  O   UNL     1      -7.078   9.565  64.298  1.00  0.00    -0.099 OA 
BRANCH   9  12
HETATM   12  C   UNL     1      -9.339  10.225  64.235  1.00  0.00    -0.328 A  
HETATM   13  C   UNL     1     -10.129  10.221  65.388  1.00  0.00    -0.354 A  
HETATM   14  C   UNL     1     -11.150  11.167  65.540  1.00  0.00    -0.073 A  
HETATM   15  C   UNL     1     -11.418  12.102  64.537  1.00  0.00    -0.334 A  
HETATM   16  C   UNL     1     -10.572  12.153  63.426  1.00  0.00    -0.454 A  
HETATM   17  N   UNL     1     -12.359  13.115  64.753  1.00  0.00    -0.480 NA 
HETATM   18  H2  UNL     1     -12.100  13.618  65.602  1.00  0.00     0.000 HD 
HETATM   19  H1  UNL     1     -12.554  13.798  64.021  1.00  0.00     0.000 HD 
HETATM   20  C   UNL     1      -9.550  11.212  63.264  1.00  0.00    -0.371 A  
ENDBRANCH   9  12
ENDBRANCH   7   8
ENDBRANCH   6   7
ENDBRANCH   3   6
ENDBRANCH   2   3
TORSDOF 6
ENDMDL
MODEL      213
REMARK 921   NORMALIZED FREE ENERGY PREDICTED BY IDOCK:   -2.61 KCAL/MOL
REMARK 922        TOTAL FREE ENERGY PREDICTED BY IDOCK:   -4.01 KCAL/MOL
REMARK 923 INTER-LIGAND FREE ENERGY PREDICTED BY IDOCK:   -3.53 KCAL/MOL
REMARK 924 INTRA-LIGAND FREE ENERGY PREDICTED BY IDOCK:   -0.48 KCAL/MOL
REMARK 927      BINDING AFFINITY PREDICTED BY RF-SCORE:    0.00 PKD
ROOT
HETATM    1  C   UNL     1      -8.091   3.210  65.886  1.00  0.00    -0.086 C  
HETATM    2  C   UNL     1      -8.430   4.429  66.742  1.00  0.00    -0.105 C  
ENDROOT
BRANCH   2   3
HETATM    3  N   UNL     1      -7.391   4.805  67.718  1.00  0.00    -0.070 NA 
BRANCH   3   4
HETATM    4  C   UNL     1      -6.332   5.665  67.151  1.00  0.00    -0.042 C  
HETATM    5  C   UNL     1      -6.232   7.086  67.709  1.00  0.00    -0.042 C  
ENDBRANCH   3   4
BRANCH   3   6
HETATM    6  C   UNL     1      -7.982   5.436  68.925  1.00  0.00    -0.094 C  
BRANCH   6   7
HETATM    7  C   UNL     1      -9.510   5.628  68.906  1.00  0.00    -0.126 C  
BRANCH   7   8
HETATM    8  N   UNL     1      -9.907   6.961  69.309  1.00  0.00    -0.156 N  
HETATM    9  C   UNL     1     -10.392   7.859  68.381  1.00  0.00    -0.199 C  
HETATM   10  H   UNL     1      -9.827   7.238  70.287  1.00  0.00     0.000 HD 
HETATM   11  O   UNL     1     -10.471   7.608  67.183  1.00  0.00    -0.287 OA 
BRANCH   9  12
HETATM   12  C   UNL     1     -10.851   9.176  68.899  1.00  0.00    -0.099 A  
HETATM   13  C   UNL     1     -11.084   9.399  70.260  1.00  0.00    -0.299 A  
HETATM   14  C   UNL     1     -11.503  10.660  70.702  1.00  0.00    -0.374 A  
HETATM   15  C   UNL     1     -11.727  11.700  69.796  1.00  0.00    -0.352 A  
HETATM   16  C   UNL     1     -11.414  11.495  68.450  1.00  0.00    -0.364 A  
HETATM   17  N   UNL     1     -12.029  12.984  70.261  1.00  0.00    -0.490 NA 
HETATM   18  H2  UNL     1     -11.295  13.273  70.907  1.00  0.00     0.000 HD 
HETATM   19  H1  UNL     1     -12.193  13.744  69.600  1.00  0.00     0.000 HD 
HETATM   20  C   UNL     1     -10.995  10.239  67.998  1.00  0.00    -0.345 A  
ENDBRANCH   9  12
ENDBRANCH   7   8
ENDBRANCH   6   7
ENDBRANCH   3   6
ENDBRANCH   2   3
TORSDOF 6
ENDMDL
MODEL      214
REMARK 921   NORMALIZED FREE ENERGY PREDICTED BY IDOCK:   -2.57 KCAL/MOL
REMARK 922        TOTAL FREE ENERGY PREDICTED BY IDOCK:   -3.95 KCAL/MOL
REMARK 923 INTER-LIGAND FREE ENERGY PREDICTED BY IDOCK:   -3.58 KCAL/MOL
REMARK 924 INTRA-LIGAND FREE ENERGY PREDICTED BY IDOCK:   -0.38 KCAL/MOL
REMARK 927      BINDING AFFINITY PREDICTED BY RF-SCORE:    0.00 PKD
ROOT
HETATM    1  C   UNL     1     -11.886  13.912  69.441  1.00  0.00    -0.384 C  
HETATM    2  C   UNL     1     -12.152  13.944  67.937  1.00  0.00    -0.283 C  
ENDROOT
BRANCH   2   3
HETATM    3  N   UNL     1     -11.167  14.711  67.153  1.00  0.00    -0.333 NA 
BRANCH   3   4
HETATM    4  C   UNL     1     -10.377  15.661  67.965  1.00  0.00    -0.246 C  
HETATM    5  C   UNL     1     -10.633  17.148  67.719  1.00  0.00    -0.360 C  
ENDBRANCH   3   4
BRANCH   3   6
HETATM    6  C   UNL     1     -10.268  13.814  66.384  1.00  0.00    -0.292 C  
BRANCH   6   7
HETATM    7  C   UNL     1      -9.093  13.201  67.169  1.00  0.00    -0.230 C  
BRANCH   7   8
HETATM    8  N   UNL     1      -9.023  11.761  67.028  1.00  0.00    -0.180 N  
HETATM    9  C   UNL     1      -8.477  10.984  68.028  1.00  0.00    -0.129 C  
HETATM   10  H   UNL     1      -9.379  11.318  66.181  1.00  0.00     0.000 HD 
HETATM   11  O   UNL     1      -7.988  11.454  69.051  1.00  0.00    -0.115 OA 
BRANCH   9  12
HETATM   12  C   UNL     1      -8.521   9.510  67.831  1.00  0.00    -0.119 A  
HETATM   13  C   UNL     1      -7.574   8.656  68.406  1.00  0.00    -0.096 A  
HETATM   14  C   UNL     1      -7.663   7.274  68.204  1.00  0.00    -0.117 A  
HETATM   15  C   UNL     1      -8.671   6.729  67.402  1.00  0.00    -0.119 A  
HETATM   16  C   UNL     1      -9.659   7.579  66.899  1.00  0.00    -0.242 A  
HETATM   17  N   UNL     1      -8.819   5.341  67.306  1.00  0.00    -0.106 NA 
HETATM   18  H2  UNL     1      -8.917   4.962  68.248  1.00  0.00     0.000 HD 
HETATM   19  H1  UNL     1      -9.554   4.943  66.721  1.00  0.00     0.000 HD 
HETATM   20  C   UNL     1      -9.578   8.961  67.096  1.00  0.00    -0.225 A  
ENDBRANCH   9  12
ENDBRANCH   7   8
ENDBRANCH   6   7
ENDBRANCH   3   6
ENDBRANCH   2   3
TORSDOF 6
ENDMDL
MODEL      215
REMARK 921   NORMALIZED FREE ENERGY PREDICTED BY IDOCK:   -2.55 KCAL/MOL
REMARK 922        TOTAL FREE ENERGY PREDICTED BY IDOCK:   -3.92 KCAL/MOL
REMARK 923 INTER-LIGAND FREE ENERGY PREDICTED BY IDOCK:   -3.48 KCAL/MOL
REMARK 924 INTRA-LIGAND FREE ENERGY PREDICTED BY IDOCK:   -0.44 KCAL/MOL
REMARK 927      BINDING AFFINITY PREDICTED BY RF-SCORE:    0.00 PKD
ROOT
HETATM    1  C   UNL     1      -7.526  10.322  67.169  1.00  0.00    -0.092 C  
HETATM    2  C   UNL     1      -8.923  10.080  66.599  1.00  0.00    -0.139 C  
ENDROOT
BRANCH   2   3
HETATM    3  N   UNL     1      -9.775   9.192  67.410  1.00  0.00    -0.154 NA 
BRANCH   3   4
HETATM    4  C   UNL     1      -9.512   7.755  67.186  1.00  0.00    -0.155 C  
HETATM    5  C   UNL     1     -10.721   6.883  66.843  1.00  0.00    -0.386 C  
ENDBRANCH   3   4
BRANCH   3   6
HETATM    6  C   UNL     1      -9.678   9.518  68.855  1.00  0.00    -0.164 C  
BRANCH   6   7
HETATM    7  C   UNL     1     -10.848   9.040  69.734  1.00  0.00    -0.205 C  
BRANCH   7   8
HETATM    8  N   UNL     1     -10.435   8.073  70.730  1.00  0.00    -0.204 N  
HETATM    9  C   UNL     1     -10.999   6.816  70.764  1.00  0.00    -0.262 C  
HETATM   10  H   UNL     1      -9.720   8.326  71.413  1.00  0.00     0.000 HD 
HETATM   11  O   UNL     1     -11.895   6.462  70.004  1.00  0.00    -0.404 OA 
BRANCH   9  12
HETATM   12  C   UNL     1     -10.455   5.863  71.770  1.00  0.00    -0.276 A  
HETATM   13  C   UNL     1     -10.296   6.214  73.115  1.00  0.00    -0.235 A  
HETATM   14  C   UNL     1      -9.792   5.280  74.027  1.00  0.00    -0.185 A  
HETATM   15  C   UNL     1      -9.409   4.002  73.609  1.00  0.00    -0.103 A  
HETATM   16  C   UNL     1      -9.647   3.632  72.283  1.00  0.00    -0.207 A  
HETATM   17  N   UNL     1      -9.021   3.042  74.550  1.00  0.00    -0.078 NA 
HETATM   18  H2  UNL     1      -9.767   2.946  75.238  1.00  0.00     0.000 HD 
HETATM   19  H1  UNL     1      -8.742   2.109  74.245  1.00  0.00     0.000 HD 
HETATM   20  C   UNL     1     -10.150   4.559  71.364  1.00  0.00    -0.230 A  
ENDBRANCH   9  12
ENDBRANCH   7   8
ENDBRANCH   6   7
ENDBRANCH   3   6
ENDBRANCH   2   3
TORSDOF 6
ENDMDL
MODEL      216
REMARK 921   NORMALIZED FREE ENERGY PREDICTED BY IDOCK:   -2.54 KCAL/MOL
REMARK 922        TOTAL FREE ENERGY PREDICTED BY IDOCK:   -3.91 KCAL/MOL
REMARK 923 INTER-LIGAND FREE ENERGY PREDICTED BY IDOCK:   -3.43 KCAL/MOL
REMARK 924 INTRA-LIGAND FREE ENERGY PREDICTED BY IDOCK:   -0.48 KCAL/MOL
REMARK 927      BINDING AFFINITY PREDICTED BY RF-SCORE:    0.00 PKD
ROOT
HETATM    1  C   UNL     1      -6.810  14.521  69.246  1.00  0.00    -0.134 C  
HETATM    2  C   UNL     1      -7.212  14.274  67.793  1.00  0.00    -0.175 C  
ENDROOT
BRANCH   2   3
HETATM    3  N   UNL     1      -8.516  14.843  67.408  1.00  0.00    -0.181 NA 
BRANCH   3   4
HETATM    4  C   UNL     1      -8.413  15.959  66.446  1.00  0.00    -0.313 C  
HETATM    5  C   UNL     1      -8.490  17.372  67.025  1.00  0.00    -0.245 C  
ENDBRANCH   3   4
BRANCH   3   6
HETATM    6  C   UNL     1      -9.434  13.796  66.893  1.00  0.00    -0.262 C  
BRANCH   6   7
HETATM    7  C   UNL     1     -10.116  12.914  67.955  1.00  0.00    -0.235 C  
BRANCH   7   8
HETATM    8  N   UNL     1     -10.119  11.512  67.594  1.00  0.00    -0.182 N  
HETATM    9  C   UNL     1      -9.161  10.656  68.095  1.00  0.00    -0.148 C  
HETATM   10  H   UNL     1     -10.836  11.154  66.962  1.00  0.00     0.000 HD 
HETATM   11  O   UNL     1      -8.244  11.028  68.821  1.00  0.00    -0.140 OA 
BRANCH   9  12
HETATM   12  C   UNL     1      -9.291   9.218  67.734  1.00  0.00    -0.145 A  
HETATM   13  C   UNL     1     -10.524   8.642  67.413  1.00  0.00    -0.351 A  
HETATM   14  C   UNL     1     -10.594   7.287  67.067  1.00  0.00    -0.415 A  
HETATM   15  C   UNL     1      -9.450   6.485  67.069  1.00  0.00    -0.138 A  
HETATM   16  C   UNL     1      -8.211   7.085  67.310  1.00  0.00    -0.119 A  
HETATM   17  N   UNL     1      -9.515   5.166  66.607  1.00  0.00    -0.135 NA 
HETATM   18  H2  UNL     1      -9.900   5.175  65.662  1.00  0.00     0.000 HD 
HETATM   19  H1  UNL     1      -8.680   4.580  66.608  1.00  0.00     0.000 HD 
HETATM   20  C   UNL     1      -8.131   8.438  67.657  1.00  0.00    -0.118 A  
ENDBRANCH   9  12
ENDBRANCH   7   8
ENDBRANCH   6   7
ENDBRANCH   3   6
ENDBRANCH   2   3
TORSDOF 6
ENDMDL
MODEL      217
REMARK 921   NORMALIZED FREE ENERGY PREDICTED BY IDOCK:   -2.53 KCAL/MOL
REMARK 922        TOTAL FREE ENERGY PREDICTED BY IDOCK:   -3.90 KCAL/MOL
REMARK 923 INTER-LIGAND FREE ENERGY PREDICTED BY IDOCK:   -3.74 KCAL/MOL
REMARK 924 INTRA-LIGAND FREE ENERGY PREDICTED BY IDOCK:   -0.16 KCAL/MOL
REMARK 927      BINDING AFFINITY PREDICTED BY RF-SCORE:    0.00 PKD
ROOT
HETATM    1  C   UNL     1     -11.755  13.983  69.942  1.00  0.00    -0.368 C  
HETATM    2  C   UNL     1     -11.492  13.658  68.472  1.00  0.00    -0.312 C  
ENDROOT
BRANCH   2   3
HETATM    3  N   UNL     1     -11.462  14.828  67.577  1.00  0.00    -0.344 NA 
BRANCH   3   4
HETATM    4  C   UNL     1     -11.340  16.116  68.292  1.00  0.00    -0.316 C  
HETATM    5  C   UNL     1     -10.304  17.103  67.753  1.00  0.00    -0.347 C  
ENDBRANCH   3   4
BRANCH   3   6
HETATM    6  C   UNL     1     -10.396  14.701  66.551  1.00  0.00    -0.282 C  
BRANCH   6   7
HETATM    7  C   UNL     1      -9.032  14.195  67.055  1.00  0.00    -0.237 C  
BRANCH   7   8
HETATM    8  N   UNL     1      -8.592  13.003  66.361  1.00  0.00    -0.405 N  
HETATM    9  C   UNL     1      -8.547  11.788  67.012  1.00  0.00    -0.173 C  
HETATM   10  H   UNL     1      -8.313  13.062  65.382  1.00  0.00     0.000 HD 
HETATM   11  O   UNL     1      -8.824  11.654  68.201  1.00  0.00    -0.151 OA 
BRANCH   9  12
HETATM   12  C   UNL     1      -8.160  10.604  66.198  1.00  0.00    -0.154 A  
HETATM   13  C   UNL     1      -8.912   9.425  66.197  1.00  0.00    -0.197 A  
HETATM   14  C   UNL     1      -8.516   8.342  65.405  1.00  0.00    -0.189 A  
HETATM   15  C   UNL     1      -7.352   8.404  64.634  1.00  0.00    -0.093 A  
HETATM   16  C   UNL     1      -6.651   9.611  64.576  1.00  0.00    -0.102 A  
HETATM   17  N   UNL     1      -7.033   7.361  63.758  1.00  0.00    -0.056 NA 
HETATM   18  H2  UNL     1      -7.825   7.213  63.133  1.00  0.00     0.000 HD 
HETATM   19  H1  UNL     1      -6.183   7.407  63.194  1.00  0.00     0.000 HD 
HETATM   20  C   UNL     1      -7.039  10.700  65.364  1.00  0.00    -0.011 A  
ENDBRANCH   9  12
ENDBRANCH   7   8
ENDBRANCH   6   7
ENDBRANCH   3   6
ENDBRANCH   2   3
TORSDOF 6
ENDMDL
MODEL      218
REMARK 921   NORMALIZED FREE ENERGY PREDICTED BY IDOCK:   -2.43 KCAL/MOL
REMARK 922        TOTAL FREE ENERGY PREDICTED BY IDOCK:   -3.76 KCAL/MOL
REMARK 923 INTER-LIGAND FREE ENERGY PREDICTED BY IDOCK:   -3.45 KCAL/MOL
REMARK 924 INTRA-LIGAND FREE ENERGY PREDICTED BY IDOCK:   -0.32 KCAL/MOL
REMARK 927      BINDING AFFINITY PREDICTED BY RF-SCORE:    0.00 PKD
ROOT
HETATM    1  C   UNL     1      -7.091   3.043  62.972  1.00  0.00    -0.043 C  
HETATM    2  C   UNL     1      -7.309   3.431  64.433  1.00  0.00    -0.070 C  
ENDROOT
BRANCH   2   3
HETATM    3  N   UNL     1      -6.662   4.691  64.840  1.00  0.00    -0.044 NA 
BRANCH   3   4
HETATM    4  C   UNL     1      -6.462   5.639  63.725  1.00  0.00    -0.032 C  
HETATM    5  C   UNL     1      -7.509   6.742  63.567  1.00  0.00    -0.080 C  
ENDBRANCH   3   4
BRANCH   3   6
HETATM    6  C   UNL     1      -7.397   5.345  65.952  1.00  0.00    -0.077 C  
BRANCH   6   7
HETATM    7  C   UNL     1      -8.129   4.402  66.924  1.00  0.00    -0.102 C  
BRANCH   7   8
HETATM    8  N   UNL     1      -8.868   5.119  67.942  1.00  0.00    -0.102 N  
HETATM    9  C   UNL     1      -9.473   4.440  68.979  1.00  0.00    -0.168 C  
HETATM   10  H   UNL     1      -8.943   6.135  67.891  1.00  0.00     0.000 HD 
HETATM   11  O   UNL     1      -9.463   3.217  69.076  1.00  0.00    -0.163 OA 
BRANCH   9  12
HETATM   12  C   UNL     1     -10.141   5.266  70.022  1.00  0.00    -0.336 A  
HETATM   13  C   UNL     1      -9.708   5.275  71.352  1.00  0.00    -0.219 A  
HETATM   14  C   UNL     1     -10.361   6.077  72.295  1.00  0.00    -0.223 A  
HETATM   15  C   UNL     1     -11.468   6.851  71.936  1.00  0.00    -0.272 A  
HETATM   16  C   UNL     1     -11.843   6.900  70.591  1.00  0.00    -0.418 A  
HETATM   17  N   UNL     1     -12.034   7.737  72.859  1.00  0.00    -0.609 NA 
HETATM   18  H2  UNL     1     -11.302   8.361  73.197  1.00  0.00     0.000 HD 
HETATM   19  H1  UNL     1     -12.843   8.302  72.597  1.00  0.00     0.000 HD 
HETATM   20  C   UNL     1     -11.198   6.102  69.641  1.00  0.00    -0.488 A  
ENDBRANCH   9  12
ENDBRANCH   7   8
ENDBRANCH   6   7
ENDBRANCH   3   6
ENDBRANCH   2   3
TORSDOF 6
ENDMDL
MODEL      219
REMARK 921   NORMALIZED FREE ENERGY PREDICTED BY IDOCK:   -2.37 KCAL/MOL
REMARK 922        TOTAL FREE ENERGY PREDICTED BY IDOCK:   -3.67 KCAL/MOL
REMARK 923 INTER-LIGAND FREE ENERGY PREDICTED BY IDOCK:   -3.37 KCAL/MOL
REMARK 924 INTRA-LIGAND FREE ENERGY PREDICTED BY IDOCK:   -0.30 KCAL/MOL
REMARK 927      BINDING AFFINITY PREDICTED BY RF-SCORE:    0.00 PKD
ROOT
HETATM    1  C   UNL     1      -6.456  14.063  69.500  1.00  0.00    -0.122 C  
HETATM    2  C   UNL     1      -6.787  13.179  68.298  1.00  0.00    -0.103 C  
ENDROOT
BRANCH   2   3
HETATM    3  N   UNL     1      -8.015  12.378  68.442  1.00  0.00    -0.156 NA 
BRANCH   3   4
HETATM    4  C   UNL     1      -9.166  12.920  67.690  1.00  0.00    -0.193 C  
HETATM    5  C   UNL     1      -9.753  12.025  66.597  1.00  0.00    -0.221 C  
ENDBRANCH   3   4
BRANCH   3   6
HETATM    6  C   UNL     1      -7.782  10.957  68.080  1.00  0.00    -0.103 C  
BRANCH   6   7
HETATM    7  C   UNL     1      -7.076  10.097  69.144  1.00  0.00    -0.073 C  
BRANCH   7   8
HETATM    8  N   UNL     1      -7.987   9.207  69.833  1.00  0.00    -0.093 N  
HETATM    9  C   UNL     1      -7.844   8.963  71.183  1.00  0.00    -0.140 C  
HETATM   10  H   UNL     1      -8.741   8.756  69.315  1.00  0.00     0.000 HD 
HETATM   11  O   UNL     1      -6.933   9.434  71.856  1.00  0.00    -0.311 OA 
BRANCH   9  12
HETATM   12  C   UNL     1      -8.874   8.100  71.822  1.00  0.00    -0.206 A  
HETATM   13  C   UNL     1     -10.075   8.619  72.316  1.00  0.00    -0.363 A  
HETATM   14  C   UNL     1     -11.020   7.766  72.898  1.00  0.00    -0.467 A  
HETATM   15  C   UNL     1     -10.769   6.396  73.025  1.00  0.00    -0.259 A  
HETATM   16  C   UNL     1      -9.606   5.873  72.455  1.00  0.00    -0.165 A  
HETATM   17  N   UNL     1     -11.769   5.540  73.498  1.00  0.00    -0.282 NA 
HETATM   18  H2  UNL     1     -12.599   5.662  72.917  1.00  0.00     0.000 HD 
HETATM   19  H1  UNL     1     -11.586   4.540  73.590  1.00  0.00     0.000 HD 
HETATM   20  C   UNL     1      -8.655   6.718  71.873  1.00  0.00    -0.120 A  
ENDBRANCH   9  12
ENDBRANCH   7   8
ENDBRANCH   6   7
ENDBRANCH   3   6
ENDBRANCH   2   3
TORSDOF 6
ENDMDL
MODEL      220
REMARK 921   NORMALIZED FREE ENERGY PREDICTED BY IDOCK:   -2.36 KCAL/MOL
REMARK 922        TOTAL FREE ENERGY PREDICTED BY IDOCK:   -3.67 KCAL/MOL
REMARK 923 INTER-LIGAND FREE ENERGY PREDICTED BY IDOCK:   -3.44 KCAL/MOL
REMARK 924 INTRA-LIGAND FREE ENERGY PREDICTED BY IDOCK:   -0.23 KCAL/MOL
REMARK 927      BINDING AFFINITY PREDICTED BY RF-SCORE:    0.00 PKD
ROOT
HETATM    1  C   UNL     1     -10.254  12.045  68.037  1.00  0.00    -0.203 C  
HETATM    2  C   UNL     1     -11.236  10.975  68.513  1.00  0.00    -0.268 C  
ENDROOT
BRANCH   2   3
HETATM    3  N   UNL     1     -11.462  10.949  69.969  1.00  0.00    -0.308 NA 
BRANCH   3   4
HETATM    4  C   UNL     1     -12.845  11.294  70.359  1.00  0.00    -0.037 C  
HETATM    5  C   UNL     1     -13.150  11.308  71.858  1.00  0.00    -0.510 C  
ENDBRANCH   3   4
BRANCH   3   6
HETATM    6  C   UNL     1     -11.067   9.644  70.556  1.00  0.00    -0.308 C  
BRANCH   6   7
HETATM    7  C   UNL     1     -11.992   8.455  70.241  1.00  0.00     0.307 C  
BRANCH   7   8
HETATM    8  N   UNL     1     -11.728   7.307  71.085  1.00  0.00    -0.290 N  
HETATM    9  C   UNL     1     -10.853   6.323  70.676  1.00  0.00    -0.280 C  
HETATM   10  H   UNL     1     -12.193   7.227  71.989  1.00  0.00     0.000 HD 
HETATM   11  O   UNL     1     -10.296   6.333  69.583  1.00  0.00    -0.187 OA 
BRANCH   9  12
HETATM   12  C   UNL     1     -10.582   5.224  71.642  1.00  0.00    -0.261 A  
HETATM   13  C   UNL     1     -11.430   4.956  72.720  1.00  0.00    -0.193 A  
HETATM   14  C   UNL     1     -11.140   3.903  73.595  1.00  0.00    -0.328 A  
HETATM   15  C   UNL     1      -9.989   3.128  73.429  1.00  0.00    -0.112 A  
HETATM   16  C   UNL     1      -9.191   3.347  72.304  1.00  0.00    -0.159 A  
HETATM   17  N   UNL     1      -9.775   2.006  74.237  1.00  0.00    -0.080 NA 
HETATM   18  H2  UNL     1     -10.588   1.395  74.162  1.00  0.00     0.000 HD 
HETATM   19  H1  UNL     1      -8.935   1.439  74.116  1.00  0.00     0.000 HD 
HETATM   20  C   UNL     1      -9.472   4.397  71.424  1.00  0.00    -0.220 A  
ENDBRANCH   9  12
ENDBRANCH   7   8
ENDBRANCH   6   7
ENDBRANCH   3   6
ENDBRANCH   2   3
TORSDOF 6
ENDMDL
MODEL      221
REMARK 921   NORMALIZED FREE ENERGY PREDICTED BY IDOCK:   -2.33 KCAL/MOL
REMARK 922        TOTAL FREE ENERGY PREDICTED BY IDOCK:   -3.63 KCAL/MOL
REMARK 923 INTER-LIGAND FREE ENERGY PREDICTED BY IDOCK:   -3.58 KCAL/MOL
REMARK 924 INTRA-LIGAND FREE ENERGY PREDICTED BY IDOCK:   -0.05 KCAL/MOL
REMARK 927      BINDING AFFINITY PREDICTED BY RF-SCORE:    0.00 PKD
ROOT
HETATM    1  C   UNL     1     -11.707  12.859  70.133  1.00  0.00    -0.234 C  
HETATM    2  C   UNL     1     -11.255  14.008  69.234  1.00  0.00    -0.261 C  
ENDROOT
BRANCH   2   3
HETATM    3  N   UNL     1     -10.962  13.623  67.842  1.00  0.00    -0.254 NA 
BRANCH   3   4
HETATM    4  C   UNL     1     -11.218  14.701  66.864  1.00  0.00    -0.343 C  
HETATM    5  C   UNL     1     -12.480  14.566  66.011  1.00  0.00    -0.187 C  
ENDBRANCH   3   4
BRANCH   3   6
HETATM    6  C   UNL     1      -9.574  13.114  67.701  1.00  0.00    -0.210 C  
BRANCH   6   7
HETATM    7  C   UNL     1      -8.549  13.657  68.713  1.00  0.00     0.063 C  
BRANCH   7   8
HETATM    8  N   UNL     1      -8.295  15.072  68.541  1.00  0.00    -0.153 N  
HETATM    9  C   UNL     1      -7.245  15.681  69.195  1.00  0.00    -0.178 C  
HETATM   10  H   UNL     1      -8.899  15.623  67.931  1.00  0.00     0.000 HD 
HETATM   11  O   UNL     1      -6.510  15.089  69.979  1.00  0.00    -0.157 OA 
BRANCH   9  12
HETATM   12  C   UNL     1      -7.012  17.120  68.895  1.00  0.00    -0.232 A  
HETATM   13  C   UNL     1      -7.874  17.858  68.078  1.00  0.00    -0.251 A  
HETATM   14  C   UNL     1      -7.620  19.212  67.834  1.00  0.00    -0.301 A  
HETATM   15  C   UNL     1      -6.492  19.839  68.370  1.00  0.00    -0.269 A  
HETATM   16  C   UNL     1      -5.680  19.119  69.250  1.00  0.00    -0.239 A  
HETATM   17  N   UNL     1      -6.315  21.218  68.217  1.00  0.00    -0.133 NA 
HETATM   18  H2  UNL     1      -7.145  21.690  68.575  1.00  0.00     0.000 HD 
HETATM   19  H1  UNL     1      -5.491  21.676  68.608  1.00  0.00     0.000 HD 
HETATM   20  C   UNL     1      -5.926  17.764  69.500  1.00  0.00    -0.245 A  
ENDBRANCH   9  12
ENDBRANCH   7   8
ENDBRANCH   6   7
ENDBRANCH   3   6
ENDBRANCH   2   3
TORSDOF 6
ENDMDL
MODEL      222
REMARK 921   NORMALIZED FREE ENERGY PREDICTED BY IDOCK:   -2.33 KCAL/MOL
REMARK 922        TOTAL FREE ENERGY PREDICTED BY IDOCK:   -3.63 KCAL/MOL
REMARK 923 INTER-LIGAND FREE ENERGY PREDICTED BY IDOCK:   -3.39 KCAL/MOL
REMARK 924 INTRA-LIGAND FREE ENERGY PREDICTED BY IDOCK:   -0.24 KCAL/MOL
REMARK 927      BINDING AFFINITY PREDICTED BY RF-SCORE:    0.00 PKD
ROOT
HETATM    1  C   UNL     1      -8.173  11.277  67.167  1.00  0.00    -0.149 C  
HETATM    2  C   UNL     1      -9.669  11.222  66.861  1.00  0.00    -0.192 C  
ENDROOT
BRANCH   2   3
HETATM    3  N   UNL     1     -10.429  10.255  67.672  1.00  0.00    -0.220 NA 
BRANCH   3   4
HETATM    4  C   UNL     1     -10.658   8.963  66.992  1.00  0.00    -0.209 C  
HETATM    5  C   UNL     1      -9.460   8.350  66.267  1.00  0.00    -0.292 C  
ENDBRANCH   3   4
BRANCH   3   6
HETATM    6  C   UNL     1      -9.793  10.038  68.996  1.00  0.00    -0.199 C  
BRANCH   6   7
HETATM    7  C   UNL     1     -10.621   9.241  70.020  1.00  0.00    -0.228 C  
BRANCH   7   8
HETATM    8  N   UNL     1     -10.005   7.977  70.368  1.00  0.00    -0.188 N  
HETATM    9  C   UNL     1     -10.744   6.812  70.363  1.00  0.00    -0.241 C  
HETATM   10  H   UNL     1      -9.017   7.948  70.619  1.00  0.00     0.000 HD 
HETATM   11  O   UNL     1     -11.946   6.781  70.117  1.00  0.00    -0.328 OA 
BRANCH   9  12
HETATM   12  C   UNL     1     -10.009   5.551  70.654  1.00  0.00    -0.270 A  
HETATM   13  C   UNL     1      -9.857   4.542  69.698  1.00  0.00    -0.288 A  
HETATM   14  C   UNL     1      -9.147   3.378  70.014  1.00  0.00    -0.199 A  
HETATM   15  C   UNL     1      -8.610   3.189  71.291  1.00  0.00    -0.068 A  
HETATM   16  C   UNL     1      -8.695   4.234  72.214  1.00  0.00    -0.118 A  
HETATM   17  N   UNL     1      -7.803   2.078  71.556  1.00  0.00    -0.040 NA 
HETATM   18  H2  UNL     1      -7.038   2.068  70.881  1.00  0.00     0.000 HD 
HETATM   19  H1  UNL     1      -7.411   1.939  72.488  1.00  0.00     0.000 HD 
HETATM   20  C   UNL     1      -9.403   5.401  71.908  1.00  0.00    -0.162 A  
ENDBRANCH   9  12
ENDBRANCH   7   8
ENDBRANCH   6   7
ENDBRANCH   3   6
ENDBRANCH   2   3
TORSDOF 6
ENDMDL
MODEL      223
REMARK 921   NORMALIZED FREE ENERGY PREDICTED BY IDOCK:   -2.32 KCAL/MOL
REMARK 922        TOTAL FREE ENERGY PREDICTED BY IDOCK:   -3.60 KCAL/MOL
REMARK 923 INTER-LIGAND FREE ENERGY PREDICTED BY IDOCK:   -3.33 KCAL/MOL
REMARK 924 INTRA-LIGAND FREE ENERGY PREDICTED BY IDOCK:   -0.27 KCAL/MOL
REMARK 927      BINDING AFFINITY PREDICTED BY RF-SCORE:    0.00 PKD
ROOT
HETATM    1  C   UNL     1      -6.909   3.458  63.587  1.00  0.00    -0.043 C  
HETATM    2  C   UNL     1      -7.620   4.290  64.653  1.00  0.00    -0.077 C  
ENDROOT
BRANCH   2   3
HETATM    3  N   UNL     1      -7.377   5.741  64.567  1.00  0.00    -0.065 NA 
BRANCH   3   4
HETATM    4  C   UNL     1      -7.051   6.205  63.202  1.00  0.00    -0.052 C  
HETATM    5  C   UNL     1      -7.903   7.348  62.646  1.00  0.00    -0.132 C  
ENDBRANCH   3   4
BRANCH   3   6
HETATM    6  C   UNL     1      -8.515   6.517  65.121  1.00  0.00    -0.047 C  
BRANCH   6   7
HETATM    7  C   UNL     1      -8.163   7.546  66.211  1.00  0.00    -0.125 C  
BRANCH   7   8
HETATM    8  N   UNL     1      -9.013   7.431  67.378  1.00  0.00    -0.122 N  
HETATM    9  C   UNL     1      -9.344   8.547  68.117  1.00  0.00    -0.137 C  
HETATM   10  H   UNL     1      -9.369   6.516  67.655  1.00  0.00     0.000 HD 
HETATM   11  O   UNL     1      -8.913   9.668  67.868  1.00  0.00    -0.120 OA 
BRANCH   9  12
HETATM   12  C   UNL     1     -10.287   8.345  69.251  1.00  0.00    -0.220 A  
HETATM   13  C   UNL     1     -10.841   7.094  69.542  1.00  0.00    -0.244 A  
HETATM   14  C   UNL     1     -11.714   6.951  70.626  1.00  0.00    -0.417 A  
HETATM   15  C   UNL     1     -12.072   8.051  71.411  1.00  0.00    -0.305 A  
HETATM   16  C   UNL     1     -11.452   9.278  71.166  1.00  0.00    -0.403 A  
HETATM   17  N   UNL     1     -12.848   7.871  72.561  1.00  0.00    -0.547 NA 
HETATM   18  H2  UNL     1     -12.385   7.187  73.158  1.00  0.00     0.000 HD 
HETATM   19  H1  UNL     1     -13.110   8.674  73.134  1.00  0.00     0.000 HD 
HETATM   20  C   UNL     1     -10.578   9.432  70.084  1.00  0.00    -0.279 A  
ENDBRANCH   9  12
ENDBRANCH   7   8
ENDBRANCH   6   7
ENDBRANCH   3   6
ENDBRANCH   2   3
TORSDOF 6
ENDMDL
MODEL      224
REMARK 921   NORMALIZED FREE ENERGY PREDICTED BY IDOCK:   -2.29 KCAL/MOL
REMARK 922        TOTAL FREE ENERGY PREDICTED BY IDOCK:   -3.57 KCAL/MOL
REMARK 923 INTER-LIGAND FREE ENERGY PREDICTED BY IDOCK:   -3.24 KCAL/MOL
REMARK 924 INTRA-LIGAND FREE ENERGY PREDICTED BY IDOCK:   -0.33 KCAL/MOL
REMARK 927      BINDING AFFINITY PREDICTED BY RF-SCORE:    0.00 PKD
ROOT
HETATM    1  C   UNL     1     -10.175  11.298  65.900  1.00  0.00    -0.298 C  
HETATM    2  C   UNL     1     -11.246  11.201  66.986  1.00  0.00    -0.219 C  
ENDROOT
BRANCH   2   3
HETATM    3  N   UNL     1     -10.916  11.897  68.242  1.00  0.00    -0.215 NA 
BRANCH   3   4
HETATM    4  C   UNL     1     -11.865  12.976  68.587  1.00  0.00    -0.318 C  
HETATM    5  C   UNL     1     -12.099  13.231  70.076  1.00  0.00    -0.385 C  
ENDBRANCH   3   4
BRANCH   3   6
HETATM    6  C   UNL     1     -10.780  10.944  69.372  1.00  0.00    -0.225 C  
BRANCH   6   7
HETATM    7  C   UNL     1      -9.418  10.237  69.499  1.00  0.00    -0.185 C  
BRANCH   7   8
HETATM    8  N   UNL     1      -9.545   8.796  69.572  1.00  0.00    -0.165 N  
HETATM    9  C   UNL     1      -8.443   8.008  69.829  1.00  0.00    -0.127 C  
HETATM   10  H   UNL     1     -10.457   8.362  69.432  1.00  0.00     0.000 HD 
HETATM   11  O   UNL     1      -7.310   8.460  69.961  1.00  0.00    -0.057 OA 
BRANCH   9  12
HETATM   12  C   UNL     1      -8.683   6.545  69.966  1.00  0.00    -0.140 A  
HETATM   13  C   UNL     1      -9.819   6.035  70.602  1.00  0.00    -0.222 A  
HETATM   14  C   UNL     1     -10.007   4.651  70.695  1.00  0.00    -0.293 A  
HETATM   15  C   UNL     1      -9.055   3.761  70.190  1.00  0.00    -0.125 A  
HETATM   16  C   UNL     1      -7.965   4.276  69.484  1.00  0.00    -0.056 A  
HETATM   17  N   UNL     1      -9.313   2.386  70.183  1.00  0.00    -0.124 NA 
HETATM   18  H2  UNL     1     -10.194   2.226  69.695  1.00  0.00     0.000 HD 
HETATM   19  H1  UNL     1      -8.619   1.736  69.814  1.00  0.00     0.000 HD 
HETATM   20  C   UNL     1      -7.768   5.658  69.386  1.00  0.00    -0.088 A  
ENDBRANCH   9  12
ENDBRANCH   7   8
ENDBRANCH   6   7
ENDBRANCH   3   6
ENDBRANCH   2   3
TORSDOF 6
ENDMDL
MODEL      225
REMARK 921   NORMALIZED FREE ENERGY PREDICTED BY IDOCK:   -2.26 KCAL/MOL
REMARK 922        TOTAL FREE ENERGY PREDICTED BY IDOCK:   -3.53 KCAL/MOL
REMARK 923 INTER-LIGAND FREE ENERGY PREDICTED BY IDOCK:   -3.36 KCAL/MOL
REMARK 924 INTRA-LIGAND FREE ENERGY PREDICTED BY IDOCK:   -0.17 KCAL/MOL
REMARK 927      BINDING AFFINITY PREDICTED BY RF-SCORE:    0.00 PKD
ROOT
HETATM    1  C   UNL     1      -9.301  13.796  67.535  1.00  0.00    -0.222 C  
HETATM    2  C   UNL     1     -10.429  12.970  68.151  1.00  0.00    -0.245 C  
ENDROOT
BRANCH   2   3
HETATM    3  N   UNL     1     -10.942  11.889  67.290  1.00  0.00    -0.252 NA 
BRANCH   3   4
HETATM    4  C   UNL     1     -11.585  12.374  66.051  1.00  0.00    -0.401 C  
HETATM    5  C   UNL     1     -10.829  12.127  64.745  1.00  0.00    -0.351 C  
ENDBRANCH   3   4
BRANCH   3   6
HETATM    6  C   UNL     1      -9.882  10.899  66.971  1.00  0.00    -0.183 C  
BRANCH   6   7
HETATM    7  C   UNL     1      -8.972  10.484  68.142  1.00  0.00    -0.138 C  
BRANCH   7   8
HETATM    8  N   UNL     1      -9.461   9.310  68.835  1.00  0.00    -0.152 N  
HETATM    9  C   UNL     1      -8.589   8.327  69.252  1.00  0.00    -0.138 C  
HETATM   10  H   UNL     1     -10.460   9.210  69.016  1.00  0.00     0.000 HD 
HETATM   11  O   UNL     1      -7.383   8.361  69.026  1.00  0.00    -0.084 OA 
BRANCH   9  12
HETATM   12  C   UNL     1      -9.171   7.198  70.027  1.00  0.00    -0.144 A  
HETATM   13  C   UNL     1      -9.044   5.869  69.611  1.00  0.00    -0.145 A  
HETATM   14  C   UNL     1      -9.598   4.839  70.380  1.00  0.00    -0.267 A  
HETATM   15  C   UNL     1     -10.311   5.119  71.549  1.00  0.00    -0.208 A  
HETATM   16  C   UNL     1     -10.362   6.440  72.002  1.00  0.00    -0.222 A  
HETATM   17  N   UNL     1     -10.754   4.075  72.369  1.00  0.00    -0.020 NA 
HETATM   18  H2  UNL     1      -9.952   3.494  72.612  1.00  0.00     0.000 HD 
HETATM   19  H1  UNL     1     -11.274   4.280  73.223  1.00  0.00     0.000 HD 
HETATM   20  C   UNL     1      -9.812   7.476  71.240  1.00  0.00    -0.188 A  
ENDBRANCH   9  12
ENDBRANCH   7   8
ENDBRANCH   6   7
ENDBRANCH   3   6
ENDBRANCH   2   3
TORSDOF 6
ENDMDL
MODEL      226
REMARK 921   NORMALIZED FREE ENERGY PREDICTED BY IDOCK:   -2.25 KCAL/MOL
REMARK 922        TOTAL FREE ENERGY PREDICTED BY IDOCK:   -3.52 KCAL/MOL
REMARK 923 INTER-LIGAND FREE ENERGY PREDICTED BY IDOCK:   -3.29 KCAL/MOL
REMARK 924 INTRA-LIGAND FREE ENERGY PREDICTED BY IDOCK:   -0.23 KCAL/MOL
REMARK 927      BINDING AFFINITY PREDICTED BY RF-SCORE:    0.00 PKD
ROOT
HETATM    1  C   UNL     1     -13.202  14.897  72.131  1.00  0.00    -0.455 C  
HETATM    2  C   UNL     1     -13.267  15.340  70.671  1.00  0.00    -0.323 C  
ENDROOT
BRANCH   2   3
HETATM    3  N   UNL     1     -12.625  14.418  69.718  1.00  0.00    -0.215 NA 
BRANCH   3   4
HETATM    4  C   UNL     1     -12.533  14.956  68.344  1.00  0.00     0.318 C  
HETATM    5  C   UNL     1     -11.788  14.098  67.321  1.00  0.00    -0.452 C  
ENDBRANCH   3   4
BRANCH   3   6
HETATM    6  C   UNL     1     -11.287  13.986  70.196  1.00  0.00    -0.047 C  
BRANCH   6   7
HETATM    7  C   UNL     1     -10.355  15.107  70.693  1.00  0.00     0.187 C  
BRANCH   7   8
HETATM    8  N   UNL     1      -9.394  15.515  69.689  1.00  0.00    -0.327 N  
HETATM    9  C   UNL     1      -9.519  16.731  69.052  1.00  0.00    -0.217 C  
HETATM   10  H   UNL     1      -8.618  14.897  69.451  1.00  0.00     0.000 HD 
HETATM   11  O   UNL     1     -10.452  17.502  69.255  1.00  0.00    -0.321 OA 
BRANCH   9  12
HETATM   12  C   UNL     1      -8.442  17.101  68.095  1.00  0.00    -0.227 A  
HETATM   13  C   UNL     1      -8.320  18.395  67.577  1.00  0.00    -0.259 A  
HETATM   14  C   UNL     1      -7.282  18.699  66.689  1.00  0.00    -0.242 A  
HETATM   15  C   UNL     1      -6.376  17.716  66.280  1.00  0.00    -0.244 A  
HETATM   16  C   UNL     1      -6.453  16.449  66.863  1.00  0.00    -0.139 A  
HETATM   17  N   UNL     1      -5.275  18.061  65.488  1.00  0.00    -0.180 NA 
HETATM   18  H2  UNL     1      -4.756  18.800  65.963  1.00  0.00     0.000 HD 
HETATM   19  H1  UNL     1      -4.614  17.344  65.189  1.00  0.00     0.000 HD 
HETATM   20  C   UNL     1      -7.488  16.135  67.752  1.00  0.00    -0.150 A  
ENDBRANCH   9  12
ENDBRANCH   7   8
ENDBRANCH   6   7
ENDBRANCH   3   6
ENDBRANCH   2   3
TORSDOF 6
ENDMDL
MODEL      227
REMARK 921   NORMALIZED FREE ENERGY PREDICTED BY IDOCK:   -2.20 KCAL/MOL
REMARK 922        TOTAL FREE ENERGY PREDICTED BY IDOCK:   -3.44 KCAL/MOL
REMARK 923 INTER-LIGAND FREE ENERGY PREDICTED BY IDOCK:   -3.10 KCAL/MOL
REMARK 924 INTRA-LIGAND FREE ENERGY PREDICTED BY IDOCK:   -0.34 KCAL/MOL
REMARK 927      BINDING AFFINITY PREDICTED BY RF-SCORE:    0.00 PKD
ROOT
HETATM    1  C   UNL     1     -12.518  14.242  71.530  1.00  0.00    -0.435 C  
HETATM    2  C   UNL     1     -12.368  14.988  70.205  1.00  0.00    -0.333 C  
ENDROOT
BRANCH   2   3
HETATM    3  N   UNL     1     -11.839  14.175  69.096  1.00  0.00    -0.321 NA 
BRANCH   3   4
HETATM    4  C   UNL     1     -10.743  14.831  68.352  1.00  0.00    -0.243 C  
HETATM    5  C   UNL     1     -10.332  16.225  68.827  1.00  0.00    -0.261 C  
ENDBRANCH   3   4
BRANCH   3   6
HETATM    6  C   UNL     1     -11.416  12.830  69.562  1.00  0.00    -0.225 C  
BRANCH   6   7
HETATM    7  C   UNL     1     -11.483  11.702  68.517  1.00  0.00    -0.298 C  
BRANCH   7   8
HETATM    8  N   UNL     1     -10.294  10.875  68.515  1.00  0.00    -0.178 N  
HETATM    9  C   UNL     1     -10.226   9.746  67.726  1.00  0.00    -0.208 C  
HETATM   10  H   UNL     1      -9.500  11.130  69.102  1.00  0.00     0.000 HD 
HETATM   11  O   UNL     1     -11.160   9.355  67.032  1.00  0.00    -0.005 OA 
BRANCH   9  12
HETATM   12  C   UNL     1      -8.936   9.004  67.727  1.00  0.00    -0.132 A  
HETATM   13  C   UNL     1      -7.767   9.548  68.269  1.00  0.00    -0.086 A  
HETATM   14  C   UNL     1      -6.580   8.807  68.258  1.00  0.00    -0.060 A  
HETATM   15  C   UNL     1      -6.532   7.535  67.681  1.00  0.00    -0.057 A  
HETATM   16  C   UNL     1      -7.720   6.965  67.217  1.00  0.00    -0.109 A  
HETATM   17  N   UNL     1      -5.372   6.759  67.784  1.00  0.00    -0.011 NA 
HETATM   18  H2  UNL     1      -5.129   6.674  68.771  1.00  0.00     0.000 HD 
HETATM   19  H1  UNL     1      -5.337   5.830  67.363  1.00  0.00     0.000 HD 
HETATM   20  C   UNL     1      -8.912   7.698  67.222  1.00  0.00    -0.134 A  
ENDBRANCH   9  12
ENDBRANCH   7   8
ENDBRANCH   6   7
ENDBRANCH   3   6
ENDBRANCH   2   3
TORSDOF 6
ENDMDL
MODEL      228
REMARK 921   NORMALIZED FREE ENERGY PREDICTED BY IDOCK:   -2.17 KCAL/MOL
REMARK 922        TOTAL FREE ENERGY PREDICTED BY IDOCK:   -3.41 KCAL/MOL
REMARK 923 INTER-LIGAND FREE ENERGY PREDICTED BY IDOCK:   -3.00 KCAL/MOL
REMARK 924 INTRA-LIGAND FREE ENERGY PREDICTED BY IDOCK:   -0.41 KCAL/MOL
REMARK 927      BINDING AFFINITY PREDICTED BY RF-SCORE:    0.00 PKD
ROOT
HETATM    1  C   UNL     1     -11.145  10.829  69.562  1.00  0.00    -0.334 C  
HETATM    2  C   UNL     1     -11.061   9.841  70.725  1.00  0.00    -0.345 C  
ENDROOT
BRANCH   2   3
HETATM    3  N   UNL     1     -10.332   8.596  70.425  1.00  0.00    -0.195 NA 
BRANCH   3   4
HETATM    4  C   UNL     1     -10.911   7.401  71.074  1.00  0.00    -0.251 C  
HETATM    5  C   UNL     1     -11.557   6.366  70.151  1.00  0.00    -0.449 C  
ENDBRANCH   3   4
BRANCH   3   6
HETATM    6  C   UNL     1     -10.205   8.381  68.961  1.00  0.00    -0.207 C  
BRANCH   6   7
HETATM    7  C   UNL     1      -8.780   8.121  68.439  1.00  0.00    -0.134 C  
BRANCH   7   8
HETATM    8  N   UNL     1      -8.683   6.892  67.678  1.00  0.00    -0.121 N  
HETATM    9  C   UNL     1      -8.596   6.924  66.302  1.00  0.00    -0.136 C  
HETATM   10  H   UNL     1      -8.680   5.995  68.165  1.00  0.00     0.000 HD 
HETATM   11  O   UNL     1      -8.641   7.963  65.652  1.00  0.00    -0.147 OA 
BRANCH   9  12
HETATM   12  C   UNL     1      -8.419   5.618  65.611  1.00  0.00    -0.147 A  
HETATM   13  C   UNL     1      -8.356   4.409  66.312  1.00  0.00    -0.112 A  
HETATM   14  C   UNL     1      -8.201   3.204  65.617  1.00  0.00    -0.091 A  
HETATM   15  C   UNL     1      -8.073   3.189  64.225  1.00  0.00    -0.083 A  
HETATM   16  C   UNL     1      -8.218   4.390  63.526  1.00  0.00    -0.099 A  
HETATM   17  N   UNL     1      -8.039   1.972  63.536  1.00  0.00    -0.071 NA 
HETATM   18  H2  UNL     1      -8.869   1.437  63.788  1.00  0.00     0.000 HD 
HETATM   19  H1  UNL     1      -7.945   1.961  62.520  1.00  0.00     0.000 HD 
HETATM   20  C   UNL     1      -8.373   5.600  64.212  1.00  0.00    -0.081 A  
ENDBRANCH   9  12
ENDBRANCH   7   8
ENDBRANCH   6   7
ENDBRANCH   3   6
ENDBRANCH   2   3
TORSDOF 6
ENDMDL
MODEL      229
REMARK 921   NORMALIZED FREE ENERGY PREDICTED BY IDOCK:   -2.17 KCAL/MOL
REMARK 922        TOTAL FREE ENERGY PREDICTED BY IDOCK:   -3.40 KCAL/MOL
REMARK 923 INTER-LIGAND FREE ENERGY PREDICTED BY IDOCK:   -3.03 KCAL/MOL
REMARK 924 INTRA-LIGAND FREE ENERGY PREDICTED BY IDOCK:   -0.37 KCAL/MOL
REMARK 927      BINDING AFFINITY PREDICTED BY RF-SCORE:    0.00 PKD
ROOT
HETATM    1  C   UNL     1      -8.897  15.572  69.168  1.00  0.00    -0.253 C  
HETATM    2  C   UNL     1      -7.628  15.786  68.345  1.00  0.00    -0.130 C  
ENDROOT
BRANCH   2   3
HETATM    3  N   UNL     1      -6.703  14.639  68.329  1.00  0.00    -0.103 NA 
BRANCH   3   4
HETATM    4  C   UNL     1      -6.265  14.214  69.675  1.00  0.00    -0.126 C  
HETATM    5  C   UNL     1      -5.253  15.116  70.382  1.00  0.00    -0.122 C  
ENDBRANCH   3   4
BRANCH   3   6
HETATM    6  C   UNL     1      -7.277  13.490  67.583  1.00  0.00    -0.168 C  
BRANCH   6   7
HETATM    7  C   UNL     1      -6.813  12.093  68.034  1.00  0.00    -0.081 C  
BRANCH   7   8
HETATM    8  N   UNL     1      -7.917  11.238  68.417  1.00  0.00    -0.132 N  
HETATM    9  C   UNL     1      -7.785   9.866  68.388  1.00  0.00    -0.084 C  
HETATM   10  H   UNL     1      -8.801  11.655  68.710  1.00  0.00     0.000 HD 
HETATM   11  O   UNL     1      -6.767   9.298  68.002  1.00  0.00    -0.060 OA 
BRANCH   9  12
HETATM   12  C   UNL     1      -8.944   9.070  68.875  1.00  0.00    -0.140 A  
HETATM   13  C   UNL     1      -9.427   7.958  68.177  1.00  0.00    -0.154 A  
HETATM   14  C   UNL     1     -10.512   7.232  68.681  1.00  0.00    -0.214 A  
HETATM   15  C   UNL     1     -11.150   7.621  69.863  1.00  0.00    -0.150 A  
HETATM   16  C   UNL     1     -10.611   8.681  70.596  1.00  0.00    -0.249 A  
HETATM   17  N   UNL     1     -12.153   6.819  70.416  1.00  0.00    -0.589 NA 
HETATM   18  H2  UNL     1     -11.779   5.880  70.547  1.00  0.00     0.000 HD 
HETATM   19  H1  UNL     1     -12.619   7.103  71.279  1.00  0.00     0.000 HD 
HETATM   20  C   UNL     1      -9.527   9.413  70.100  1.00  0.00    -0.276 A  
ENDBRANCH   9  12
ENDBRANCH   7   8
ENDBRANCH   6   7
ENDBRANCH   3   6
ENDBRANCH   2   3
TORSDOF 6
ENDMDL
MODEL      230
REMARK 921   NORMALIZED FREE ENERGY PREDICTED BY IDOCK:   -2.14 KCAL/MOL
REMARK 922        TOTAL FREE ENERGY PREDICTED BY IDOCK:   -3.37 KCAL/MOL
REMARK 923 INTER-LIGAND FREE ENERGY PREDICTED BY IDOCK:   -3.21 KCAL/MOL
REMARK 924 INTRA-LIGAND FREE ENERGY PREDICTED BY IDOCK:   -0.16 KCAL/MOL
REMARK 927      BINDING AFFINITY PREDICTED BY RF-SCORE:    0.00 PKD
ROOT
HETATM    1  C   UNL     1     -11.728  12.112  69.933  1.00  0.00    -0.361 C  
HETATM    2  C   UNL     1     -12.157  10.776  70.540  1.00  0.00    -0.366 C  
ENDROOT
BRANCH   2   3
HETATM    3  N   UNL     1     -11.070  10.012  71.178  1.00  0.00    -0.289 NA 
BRANCH   3   4
HETATM    4  C   UNL     1     -11.546   9.025  72.169  1.00  0.00    -0.278 C  
HETATM    5  C   UNL     1     -10.882   7.648  72.137  1.00  0.00    -0.293 C  
ENDBRANCH   3   4
BRANCH   3   6
HETATM    6  C   UNL     1     -10.201   9.357  70.169  1.00  0.00    -0.231 C  
BRANCH   6   7
HETATM    7  C   UNL     1     -10.909   8.833  68.907  1.00  0.00    -0.008 C  
BRANCH   7   8
HETATM    8  N   UNL     1      -9.991   8.223  67.967  1.00  0.00    -0.177 N  
HETATM    9  C   UNL     1     -10.108   6.890  67.637  1.00  0.00    -0.161 C  
HETATM   10  H   UNL     1      -9.250   8.785  67.548  1.00  0.00     0.000 HD 
HETATM   11  O   UNL     1     -10.945   6.145  68.138  1.00  0.00    -0.311 OA 
BRANCH   9  12
HETATM   12  C   UNL     1      -9.172   6.370  66.603  1.00  0.00    -0.167 A  
HETATM   13  C   UNL     1      -8.245   7.195  65.959  1.00  0.00    -0.129 A  
HETATM   14  C   UNL     1      -7.376   6.658  65.002  1.00  0.00    -0.082 A  
HETATM   15  C   UNL     1      -7.441   5.306  64.651  1.00  0.00    -0.069 A  
HETATM   16  C   UNL     1      -8.312   4.472  65.357  1.00  0.00    -0.117 A  
HETATM   17  N   UNL     1      -6.489   4.759  63.784  1.00  0.00    -0.030 NA 
HETATM   18  H2  UNL     1      -5.562   4.949  64.163  1.00  0.00     0.000 HD 
HETATM   19  H1  UNL     1      -6.536   3.773  63.527  1.00  0.00     0.000 HD 
HETATM   20  C   UNL     1      -9.185   5.000  66.314  1.00  0.00    -0.144 A  
ENDBRANCH   9  12
ENDBRANCH   7   8
ENDBRANCH   6   7
ENDBRANCH   3   6
ENDBRANCH   2   3
TORSDOF 6
ENDMDL
MODEL      231
REMARK 921   NORMALIZED FREE ENERGY PREDICTED BY IDOCK:   -2.13 KCAL/MOL
REMARK 922        TOTAL FREE ENERGY PREDICTED BY IDOCK:   -3.35 KCAL/MOL
REMARK 923 INTER-LIGAND FREE ENERGY PREDICTED BY IDOCK:   -3.01 KCAL/MOL
REMARK 924 INTRA-LIGAND FREE ENERGY PREDICTED BY IDOCK:   -0.34 KCAL/MOL
REMARK 927      BINDING AFFINITY PREDICTED BY RF-SCORE:    0.00 PKD
ROOT
HETATM    1  C   UNL     1      -9.432  14.970  69.046  1.00  0.00    -0.210 C  
HETATM    2  C   UNL     1      -8.366  15.172  67.970  1.00  0.00    -0.147 C  
ENDROOT
BRANCH   2   3
HETATM    3  N   UNL     1      -7.473  14.018  67.763  1.00  0.00    -0.144 NA 
BRANCH   3   4
HETATM    4  C   UNL     1      -6.586  13.744  68.913  1.00  0.00    -0.104 C  
HETATM    5  C   UNL     1      -5.480  14.765  69.184  1.00  0.00    -0.095 C  
ENDBRANCH   3   4
BRANCH   3   6
HETATM    6  C   UNL     1      -8.236  12.800  67.394  1.00  0.00    -0.186 C  
BRANCH   6   7
HETATM    7  C   UNL     1      -7.962  11.548  68.247  1.00  0.00    -0.142 C  
BRANCH   7   8
HETATM    8  N   UNL     1      -8.512  10.344  67.659  1.00  0.00    -0.115 N  
HETATM    9  C   UNL     1      -8.063   9.102  68.055  1.00  0.00    -0.105 C  
HETATM   10  H   UNL     1      -9.236  10.416  66.945  1.00  0.00     0.000 HD 
HETATM   11  O   UNL     1      -7.162   8.944  68.873  1.00  0.00    -0.071 OA 
BRANCH   9  12
HETATM   12  C   UNL     1      -8.741   7.921  67.455  1.00  0.00    -0.125 A  
HETATM   13  C   UNL     1     -10.133   7.778  67.467  1.00  0.00    -0.272 A  
HETATM   14  C   UNL     1     -10.726   6.656  66.879  1.00  0.00    -0.401 A  
HETATM   15  C   UNL     1      -9.946   5.648  66.304  1.00  0.00    -0.115 A  
HETATM   16  C   UNL     1      -8.564   5.836  66.223  1.00  0.00    -0.130 A  
HETATM   17  N   UNL     1     -10.555   4.594  65.616  1.00  0.00    -0.539 NA 
HETATM   18  H2  UNL     1     -11.157   4.987  64.892  1.00  0.00     0.000 HD 
HETATM   19  H1  UNL     1      -9.986   3.858  65.196  1.00  0.00     0.000 HD 
HETATM   20  C   UNL     1      -7.961   6.955  66.808  1.00  0.00    -0.108 A  
ENDBRANCH   9  12
ENDBRANCH   7   8
ENDBRANCH   6   7
ENDBRANCH   3   6
ENDBRANCH   2   3
TORSDOF 6
ENDMDL
MODEL      232
REMARK 921   NORMALIZED FREE ENERGY PREDICTED BY IDOCK:   -2.12 KCAL/MOL
REMARK 922        TOTAL FREE ENERGY PREDICTED BY IDOCK:   -3.35 KCAL/MOL
REMARK 923 INTER-LIGAND FREE ENERGY PREDICTED BY IDOCK:   -2.99 KCAL/MOL
REMARK 924 INTRA-LIGAND FREE ENERGY PREDICTED BY IDOCK:   -0.36 KCAL/MOL
REMARK 927      BINDING AFFINITY PREDICTED BY RF-SCORE:    0.00 PKD
ROOT
HETATM    1  C   UNL     1      -6.974  10.824  69.757  1.00  0.00    -0.141 C  
HETATM    2  C   UNL     1      -8.086  10.313  68.842  1.00  0.00    -0.123 C  
ENDROOT
BRANCH   2   3
HETATM    3  N   UNL     1      -9.440  10.771  69.202  1.00  0.00    -0.173 NA 
BRANCH   3   4
HETATM    4  C   UNL     1     -10.058  11.646  68.184  1.00  0.00    -0.196 C  
HETATM    5  C   UNL     1     -11.508  11.341  67.808  1.00  0.00    -0.350 C  
ENDBRANCH   3   4
BRANCH   3   6
HETATM    6  C   UNL     1     -10.335   9.628  69.516  1.00  0.00    -0.221 C  
BRANCH   6   7
HETATM    7  C   UNL     1      -9.639   8.327  69.954  1.00  0.00    -0.171 C  
BRANCH   7   8
HETATM    8  N   UNL     1      -9.820   7.252  68.999  1.00  0.00    -0.162 N  
HETATM    9  C   UNL     1      -8.730   6.618  68.441  1.00  0.00    -0.122 C  
HETATM   10  H   UNL     1     -10.762   6.963  68.737  1.00  0.00     0.000 HD 
HETATM   11  O   UNL     1      -7.571   6.946  68.676  1.00  0.00    -0.100 OA 
BRANCH   9  12
HETATM   12  C   UNL     1      -9.012   5.473  67.534  1.00  0.00    -0.107 A  
HETATM   13  C   UNL     1      -9.180   4.170  68.012  1.00  0.00    -0.191 A  
HETATM   14  C   UNL     1      -9.456   3.127  67.121  1.00  0.00    -0.147 A  
HETATM   15  C   UNL     1      -9.536   3.360  65.745  1.00  0.00    -0.116 A  
HETATM   16  C   UNL     1      -9.449   4.675  65.282  1.00  0.00    -0.165 A  
HETATM   17  N   UNL     1      -9.930   2.334  64.880  1.00  0.00    -0.334 NA 
HETATM   18  H2  UNL     1     -10.830   1.973  65.198  1.00  0.00     0.000 HD 
HETATM   19  H1  UNL     1      -9.989   2.503  63.876  1.00  0.00     0.000 HD 
HETATM   20  C   UNL     1      -9.173   5.725  66.165  1.00  0.00    -0.169 A  
ENDBRANCH   9  12
ENDBRANCH   7   8
ENDBRANCH   6   7
ENDBRANCH   3   6
ENDBRANCH   2   3
TORSDOF 6
ENDMDL
MODEL      233
REMARK 921   NORMALIZED FREE ENERGY PREDICTED BY IDOCK:   -2.11 KCAL/MOL
REMARK 922        TOTAL FREE ENERGY PREDICTED BY IDOCK:   -3.33 KCAL/MOL
REMARK 923 INTER-LIGAND FREE ENERGY PREDICTED BY IDOCK:   -3.06 KCAL/MOL
REMARK 924 INTRA-LIGAND FREE ENERGY PREDICTED BY IDOCK:   -0.28 KCAL/MOL
REMARK 927      BINDING AFFINITY PREDICTED BY RF-SCORE:    0.00 PKD
ROOT
HETATM    1  C   UNL     1     -11.886  12.144  69.866  1.00  0.00    -0.392 C  
HETATM    2  C   UNL     1     -12.585  11.240  70.880  1.00  0.00    -0.371 C  
ENDROOT
BRANCH   2   3
HETATM    3  N   UNL     1     -11.806  10.058  71.292  1.00  0.00    -0.379 NA 
BRANCH   3   4
HETATM    4  C   UNL     1     -12.558   9.130  72.162  1.00  0.00    -0.381 C  
HETATM    5  C   UNL     1     -12.911   7.767  71.565  1.00  0.00    -0.357 C  
ENDBRANCH   3   4
BRANCH   3   6
HETATM    6  C   UNL     1     -11.252   9.337  70.119  1.00  0.00    -0.208 C  
BRANCH   6   7
HETATM    7  C   UNL     1      -9.780   8.898  70.231  1.00  0.00    -0.185 C  
BRANCH   7   8
HETATM    8  N   UNL     1      -9.218   8.510  68.954  1.00  0.00    -0.146 N  
HETATM    9  C   UNL     1      -7.896   8.771  68.661  1.00  0.00    -0.103 C  
HETATM   10  H   UNL     1      -9.806   8.040  68.265  1.00  0.00     0.000 HD 
HETATM   11  O   UNL     1      -7.146   9.373  69.423  1.00  0.00    -0.051 OA 
BRANCH   9  12
HETATM   12  C   UNL     1      -7.385   8.264  67.358  1.00  0.00    -0.092 A  
HETATM   13  C   UNL     1      -8.221   7.644  66.423  1.00  0.00    -0.124 A  
HETATM   14  C   UNL     1      -7.697   7.194  65.206  1.00  0.00    -0.114 A  
HETATM   15  C   UNL     1      -6.335   7.325  64.918  1.00  0.00    -0.037 A  
HETATM   16  C   UNL     1      -5.524   8.019  65.819  1.00  0.00    -0.029 A  
HETATM   17  N   UNL     1      -5.849   6.982  63.652  1.00  0.00    -0.036 NA 
HETATM   18  H2  UNL     1      -6.377   7.502  62.952  1.00  0.00     0.000 HD 
HETATM   19  H1  UNL     1      -4.855   7.077  63.441  1.00  0.00     0.000 HD 
HETATM   20  C   UNL     1      -6.038   8.471  67.039  1.00  0.00    -0.055 A  
ENDBRANCH   9  12
ENDBRANCH   7   8
ENDBRANCH   6   7
ENDBRANCH   3   6
ENDBRANCH   2   3
TORSDOF 6
ENDMDL
MODEL      234
REMARK 921   NORMALIZED FREE ENERGY PREDICTED BY IDOCK:   -1.97 KCAL/MOL
REMARK 922        TOTAL FREE ENERGY PREDICTED BY IDOCK:   -3.13 KCAL/MOL
REMARK 923 INTER-LIGAND FREE ENERGY PREDICTED BY IDOCK:   -3.71 KCAL/MOL
REMARK 924 INTRA-LIGAND FREE ENERGY PREDICTED BY IDOCK:    0.58 KCAL/MOL
REMARK 927      BINDING AFFINITY PREDICTED BY RF-SCORE:    0.00 PKD
ROOT
HETATM    1  C   UNL     1      -7.877   7.439  65.722  1.00  0.00    -0.108 C  
HETATM    2  C   UNL     1      -7.994   8.150  67.070  1.00  0.00    -0.104 C  
ENDROOT
BRANCH   2   3
HETATM    3  N   UNL     1      -6.751   8.783  67.543  1.00  0.00    -0.066 NA 
BRANCH   3   4
HETATM    4  C   UNL     1      -6.306   9.914  66.702  1.00  0.00    -0.069 C  
HETATM    5  C   UNL     1      -7.035  11.243  66.901  1.00  0.00    -0.137 C  
ENDBRANCH   3   4
BRANCH   3   6
HETATM    6  C   UNL     1      -6.862   9.205  68.963  1.00  0.00    -0.055 C  
BRANCH   6   7
HETATM    7  C   UNL     1      -6.857   8.072  70.005  1.00  0.00    -0.041 C  
BRANCH   7   8
HETATM    8  N   UNL     1      -8.184   7.765  70.497  1.00  0.00    -0.118 N  
HETATM    9  C   UNL     1      -9.179   8.719  70.474  1.00  0.00    -0.188 C  
HETATM   10  H   UNL     1      -8.384   6.834  70.865  1.00  0.00     0.000 HD 
HETATM   11  O   UNL     1      -8.996   9.870  70.090  1.00  0.00    -0.216 OA 
BRANCH   9  12
HETATM   12  C   UNL     1     -10.531   8.290  70.924  1.00  0.00    -0.230 A  
HETATM   13  C   UNL     1     -11.317   9.079  71.771  1.00  0.00    -0.447 A  
HETATM   14  C   UNL     1     -12.588   8.639  72.157  1.00  0.00    -0.451 A  
HETATM   15  C   UNL     1     -13.078   7.399  71.736  1.00  0.00    -0.317 A  
HETATM   16  C   UNL     1     -12.323   6.655  70.826  1.00  0.00    -0.218 A  
HETATM   17  N   UNL     1     -14.394   7.026  72.032  1.00  0.00    -0.626 NA 
HETATM   18  H2  UNL     1     -15.019   7.754  71.686  1.00  0.00     0.000 HD 
HETATM   19  H1  UNL     1     -14.752   6.122  71.724  1.00  0.00     0.000 HD 
HETATM   20  C   UNL     1     -11.051   7.086  70.434  1.00  0.00    -0.323 A  
ENDBRANCH   9  12
ENDBRANCH   7   8
ENDBRANCH   6   7
ENDBRANCH   3   6
ENDBRANCH   2   3
TORSDOF 6
ENDMDL
MODEL      235
REMARK 921   NORMALIZED FREE ENERGY PREDICTED BY IDOCK:   -1.94 KCAL/MOL
REMARK 922        TOTAL FREE ENERGY PREDICTED BY IDOCK:   -3.10 KCAL/MOL
REMARK 923 INTER-LIGAND FREE ENERGY PREDICTED BY IDOCK:   -2.75 KCAL/MOL
REMARK 924 INTRA-LIGAND FREE ENERGY PREDICTED BY IDOCK:   -0.35 KCAL/MOL
REMARK 927      BINDING AFFINITY PREDICTED BY RF-SCORE:    0.00 PKD
ROOT
HETATM    1  C   UNL     1     -11.230   9.035  70.357  1.00  0.00    -0.275 C  
HETATM    2  C   UNL     1     -12.643   9.611  70.437  1.00  0.00     0.148 C  
ENDROOT
BRANCH   2   3
HETATM    3  N   UNL     1     -12.778  10.984  69.918  1.00  0.00    -0.143 NA 
BRANCH   3   4
HETATM    4  C   UNL     1     -12.900  12.006  70.978  1.00  0.00    -0.187 C  
HETATM    5  C   UNL     1     -12.727  13.464  70.548  1.00  0.00    -0.194 C  
ENDBRANCH   3   4
BRANCH   3   6
HETATM    6  C   UNL     1     -11.670  11.327  68.991  1.00  0.00    -0.342 C  
BRANCH   6   7
HETATM    7  C   UNL     1     -12.023  11.336  67.493  1.00  0.00     0.258 C  
BRANCH   7   8
HETATM    8  N   UNL     1     -10.914  10.919  66.659  1.00  0.00    -0.199 N  
HETATM    9  C   UNL     1     -10.791  11.388  65.368  1.00  0.00    -0.229 C  
HETATM   10  H   UNL     1     -10.219  10.272  67.030  1.00  0.00     0.000 HD 
HETATM   11  O   UNL     1     -11.616  12.131  64.844  1.00  0.00    -0.332 OA 
BRANCH   9  12
HETATM   12  C   UNL     1      -9.578  10.969  64.615  1.00  0.00    -0.297 A  
HETATM   13  C   UNL     1      -9.348  11.372  63.295  1.00  0.00    -0.267 A  
HETATM   14  C   UNL     1      -8.186  10.963  62.631  1.00  0.00    -0.157 A  
HETATM   15  C   UNL     1      -7.259  10.124  63.257  1.00  0.00    -0.129 A  
HETATM   16  C   UNL     1      -7.454   9.794  64.600  1.00  0.00    -0.134 A  
HETATM   17  N   UNL     1      -6.048   9.822  62.625  1.00  0.00    -0.100 NA 
HETATM   18  H2  UNL     1      -5.581  10.698  62.389  1.00  0.00     0.000 HD 
HETATM   19  H1  UNL     1      -5.370   9.210  63.082  1.00  0.00     0.000 HD 
HETATM   20  C   UNL     1      -8.613  10.197  65.272  1.00  0.00    -0.169 A  
ENDBRANCH   9  12
ENDBRANCH   7   8
ENDBRANCH   6   7
ENDBRANCH   3   6
ENDBRANCH   2   3
TORSDOF 6
ENDMDL
MODEL      236
REMARK 921   NORMALIZED FREE ENERGY PREDICTED BY IDOCK:   -1.94 KCAL/MOL
REMARK 922        TOTAL FREE ENERGY PREDICTED BY IDOCK:   -3.09 KCAL/MOL
REMARK 923 INTER-LIGAND FREE ENERGY PREDICTED BY IDOCK:   -2.60 KCAL/MOL
REMARK 924 INTRA-LIGAND FREE ENERGY PREDICTED BY IDOCK:   -0.49 KCAL/MOL
REMARK 927      BINDING AFFINITY PREDICTED BY RF-SCORE:    0.00 PKD
ROOT
HETATM    1  C   UNL     1      -7.270   9.663  70.428  1.00  0.00    -0.147 C  
HETATM    2  C   UNL     1      -7.170   8.149  70.246  1.00  0.00    -0.052 C  
ENDROOT
BRANCH   2   3
HETATM    3  N   UNL     1      -8.034   7.362  71.143  1.00  0.00    -0.099 NA 
BRANCH   3   4
HETATM    4  C   UNL     1      -7.310   6.758  72.281  1.00  0.00    -0.088 C  
HETATM    5  C   UNL     1      -6.810   7.719  73.361  1.00  0.00    -0.101 C  
ENDBRANCH   3   4
BRANCH   3   6
HETATM    6  C   UNL     1      -9.187   8.162  71.627  1.00  0.00    -0.167 C  
BRANCH   6   7
HETATM    7  C   UNL     1     -10.562   7.782  71.049  1.00  0.00    -0.213 C  
BRANCH   7   8
HETATM    8  N   UNL     1     -10.473   6.746  70.041  1.00  0.00    -0.203 N  
HETATM    9  C   UNL     1     -10.480   7.069  68.700  1.00  0.00    -0.204 C  
HETATM   10  H   UNL     1     -10.406   5.769  70.325  1.00  0.00     0.000 HD 
HETATM   11  O   UNL     1     -10.606   8.218  68.289  1.00  0.00    -0.187 OA 
BRANCH   9  12
HETATM   12  C   UNL     1     -10.303   5.947  67.739  1.00  0.00    -0.262 A  
HETATM   13  C   UNL     1     -11.115   5.802  66.609  1.00  0.00    -0.069 A  
HETATM   14  C   UNL     1     -10.902   4.738  65.726  1.00  0.00    -0.123 A  
HETATM   15  C   UNL     1      -9.906   3.788  65.972  1.00  0.00    -0.067 A  
HETATM   16  C   UNL     1      -9.047   3.985  67.056  1.00  0.00    -0.163 A  
HETATM   17  N   UNL     1      -9.627   2.801  65.022  1.00  0.00    -0.323 NA 
HETATM   18  H2  UNL     1      -9.423   3.258  64.133  1.00  0.00     0.000 HD 
HETATM   19  H1  UNL     1      -8.899   2.108  65.201  1.00  0.00     0.000 HD 
HETATM   20  C   UNL     1      -9.251   5.046  67.945  1.00  0.00    -0.135 A  
ENDBRANCH   9  12
ENDBRANCH   7   8
ENDBRANCH   6   7
ENDBRANCH   3   6
ENDBRANCH   2   3
TORSDOF 6
ENDMDL
MODEL      237
REMARK 921   NORMALIZED FREE ENERGY PREDICTED BY IDOCK:   -1.93 KCAL/MOL
REMARK 922        TOTAL FREE ENERGY PREDICTED BY IDOCK:   -3.09 KCAL/MOL
REMARK 923 INTER-LIGAND FREE ENERGY PREDICTED BY IDOCK:   -2.64 KCAL/MOL
REMARK 924 INTRA-LIGAND FREE ENERGY PREDICTED BY IDOCK:   -0.44 KCAL/MOL
REMARK 927      BINDING AFFINITY PREDICTED BY RF-SCORE:    0.00 PKD
ROOT
HETATM    1  C   UNL     1     -10.548  10.357  69.406  1.00  0.00    -0.267 C  
HETATM    2  C   UNL     1      -9.108  10.792  69.135  1.00  0.00    -0.095 C  
ENDROOT
BRANCH   2   3
HETATM    3  N   UNL     1      -8.808  11.086  67.723  1.00  0.00    -0.132 NA 
BRANCH   3   4
HETATM    4  C   UNL     1      -9.364  12.373  67.256  1.00  0.00    -0.184 C  
HETATM    5  C   UNL     1      -9.063  13.601  68.116  1.00  0.00    -0.195 C  
ENDBRANCH   3   4
BRANCH   3   6
HETATM    6  C   UNL     1      -7.349  11.022  67.452  1.00  0.00    -0.105 C  
BRANCH   6   7
HETATM    7  C   UNL     1      -6.924  10.176  66.238  1.00  0.00    -0.109 C  
BRANCH   7   8
HETATM    8  N   UNL     1      -7.276   8.779  66.386  1.00  0.00    -0.083 N  
HETATM    9  C   UNL     1      -8.361   8.254  65.717  1.00  0.00    -0.137 C  
HETATM   10  H   UNL     1      -6.715   8.178  66.990  1.00  0.00     0.000 HD 
HETATM   11  O   UNL     1      -9.105   8.930  65.012  1.00  0.00    -0.165 OA 
BRANCH   9  12
HETATM   12  C   UNL     1      -8.598   6.793  65.864  1.00  0.00    -0.153 A  
HETATM   13  C   UNL     1      -9.763   6.284  66.448  1.00  0.00    -0.146 A  
HETATM   14  C   UNL     1      -9.947   4.901  66.553  1.00  0.00    -0.256 A  
HETATM   15  C   UNL     1      -8.964   4.010  66.113  1.00  0.00    -0.130 A  
HETATM   16  C   UNL     1      -7.841   4.522  65.457  1.00  0.00    -0.094 A  
HETATM   17  N   UNL     1      -9.212   2.633  66.115  1.00  0.00    -0.308 NA 
HETATM   18  H2  UNL     1     -10.065   2.459  65.584  1.00  0.00     0.000 HD 
HETATM   19  H1  UNL     1      -8.494   1.982  65.793  1.00  0.00     0.000 HD 
HETATM   20  C   UNL     1      -7.648   5.903  65.348  1.00  0.00    -0.085 A  
ENDBRANCH   9  12
ENDBRANCH   7   8
ENDBRANCH   6   7
ENDBRANCH   3   6
ENDBRANCH   2   3
TORSDOF 6
ENDMDL
MODEL      238
REMARK 921   NORMALIZED FREE ENERGY PREDICTED BY IDOCK:   -1.92 KCAL/MOL
REMARK 922        TOTAL FREE ENERGY PREDICTED BY IDOCK:   -3.07 KCAL/MOL
REMARK 923 INTER-LIGAND FREE ENERGY PREDICTED BY IDOCK:   -2.72 KCAL/MOL
REMARK 924 INTRA-LIGAND FREE ENERGY PREDICTED BY IDOCK:   -0.35 KCAL/MOL
REMARK 927      BINDING AFFINITY PREDICTED BY RF-SCORE:    0.00 PKD
ROOT
HETATM    1  C   UNL     1     -10.961  12.664  66.582  1.00  0.00    -0.292 C  
HETATM    2  C   UNL     1      -9.546  12.554  66.016  1.00  0.00    -0.202 C  
ENDROOT
BRANCH   2   3
HETATM    3  N   UNL     1      -9.076  11.174  65.797  1.00  0.00    -0.205 NA 
BRANCH   3   4
HETATM    4  C   UNL     1      -9.520  10.226  66.840  1.00  0.00    -0.169 C  
HETATM    5  C   UNL     1      -8.435   9.661  67.758  1.00  0.00    -0.125 C  
ENDBRANCH   3   4
BRANCH   3   6
HETATM    6  C   UNL     1      -9.454  10.679  64.450  1.00  0.00    -0.269 C  
BRANCH   6   7
HETATM    7  C   UNL     1      -8.454   9.719  63.778  1.00  0.00    -0.184 C  
BRANCH   7   8
HETATM    8  N   UNL     1      -8.684   8.336  64.141  1.00  0.00    -0.384 N  
HETATM    9  C   UNL     1      -7.917   7.330  63.591  1.00  0.00    -0.073 C  
HETATM   10  H   UNL     1      -9.419   8.104  64.809  1.00  0.00     0.000 HD 
HETATM   11  O   UNL     1      -7.049   7.534  62.748  1.00  0.00    -0.072 OA 
BRANCH   9  12
HETATM   12  C   UNL     1      -8.170   5.949  64.083  1.00  0.00    -0.075 A  
HETATM   13  C   UNL     1      -8.266   4.857  63.214  1.00  0.00    -0.109 A  
HETATM   14  C   UNL     1      -8.492   3.574  63.725  1.00  0.00    -0.090 A  
HETATM   15  C   UNL     1      -8.659   3.366  65.097  1.00  0.00    -0.112 A  
HETATM   16  C   UNL     1      -8.480   4.446  65.965  1.00  0.00    -0.113 A  
HETATM   17  N   UNL     1      -8.764   2.066  65.603  1.00  0.00    -0.115 NA 
HETATM   18  H2  UNL     1      -7.952   1.533  65.293  1.00  0.00     0.000 HD 
HETATM   19  H1  UNL     1      -8.885   1.914  66.605  1.00  0.00     0.000 HD 
HETATM   20  C   UNL     1      -8.254   5.733  65.464  1.00  0.00    -0.132 A  
ENDBRANCH   9  12
ENDBRANCH   7   8
ENDBRANCH   6   7
ENDBRANCH   3   6
ENDBRANCH   2   3
TORSDOF 6
ENDMDL
MODEL      239
REMARK 921   NORMALIZED FREE ENERGY PREDICTED BY IDOCK:   -1.88 KCAL/MOL
REMARK 922        TOTAL FREE ENERGY PREDICTED BY IDOCK:   -3.02 KCAL/MOL
REMARK 923 INTER-LIGAND FREE ENERGY PREDICTED BY IDOCK:   -3.07 KCAL/MOL
REMARK 924 INTRA-LIGAND FREE ENERGY PREDICTED BY IDOCK:    0.06 KCAL/MOL
REMARK 927      BINDING AFFINITY PREDICTED BY RF-SCORE:    0.00 PKD
ROOT
HETATM    1  C   UNL     1      -8.828   9.469  69.078  1.00  0.00    -0.143 C  
HETATM    2  C   UNL     1     -10.333   9.731  69.031  1.00  0.00    -0.208 C  
ENDROOT
BRANCH   2   3
HETATM    3  N   UNL     1     -11.139   8.846  69.891  1.00  0.00    -0.190 NA 
BRANCH   3   4
HETATM    4  C   UNL     1     -10.904   7.408  69.645  1.00  0.00    -0.210 C  
HETATM    5  C   UNL     1     -10.782   6.975  68.183  1.00  0.00    -0.242 C  
ENDBRANCH   3   4
BRANCH   3   6
HETATM    6  C   UNL     1     -10.949   9.165  71.329  1.00  0.00    -0.330 C  
BRANCH   6   7
HETATM    7  C   UNL     1     -11.487   8.124  72.327  1.00  0.00    -0.371 C  
BRANCH   7   8
HETATM    8  N   UNL     1     -10.464   7.201  72.774  1.00  0.00    -0.222 N  
HETATM    9  C   UNL     1     -10.760   5.871  72.979  1.00  0.00    -0.256 C  
HETATM   10  H   UNL     1      -9.516   7.540  72.938  1.00  0.00     0.000 HD 
HETATM   11  O   UNL     1     -11.888   5.406  72.846  1.00  0.00    -0.263 OA 
BRANCH   9  12
HETATM   12  C   UNL     1      -9.628   4.982  73.359  1.00  0.00    -0.147 A  
HETATM   13  C   UNL     1      -9.827   3.660  73.770  1.00  0.00    -0.152 A  
HETATM   14  C   UNL     1      -8.730   2.859  74.106  1.00  0.00    -0.075 A  
HETATM   15  C   UNL     1      -7.430   3.369  74.070  1.00  0.00    -0.057 A  
HETATM   16  C   UNL     1      -7.232   4.663  73.580  1.00  0.00    -0.073 A  
HETATM   17  N   UNL     1      -6.337   2.525  74.291  1.00  0.00    -0.015 NA 
HETATM   18  H2  UNL     1      -6.395   1.745  73.636  1.00  0.00     0.000 HD 
HETATM   19  H1  UNL     1      -5.387   2.897  74.265  1.00  0.00     0.000 HD 
HETATM   20  C   UNL     1      -8.322   5.472  73.243  1.00  0.00    -0.117 A  
ENDBRANCH   9  12
ENDBRANCH   7   8
ENDBRANCH   6   7
ENDBRANCH   3   6
ENDBRANCH   2   3
TORSDOF 6
ENDMDL
MODEL      240
REMARK 921   NORMALIZED FREE ENERGY PREDICTED BY IDOCK:   -1.87 KCAL/MOL
REMARK 922        TOTAL FREE ENERGY PREDICTED BY IDOCK:   -3.01 KCAL/MOL
REMARK 923 INTER-LIGAND FREE ENERGY PREDICTED BY IDOCK:   -2.59 KCAL/MOL
REMARK 924 INTRA-LIGAND FREE ENERGY PREDICTED BY IDOCK:   -0.42 KCAL/MOL
REMARK 927      BINDING AFFINITY PREDICTED BY RF-SCORE:    0.00 PKD
ROOT
HETATM    1  C   UNL     1      -7.873   5.871  65.922  1.00  0.00    -0.105 C  
HETATM    2  C   UNL     1      -6.648   6.387  66.675  1.00  0.00    -0.048 C  
ENDROOT
BRANCH   2   3
HETATM    3  N   UNL     1      -6.952   7.264  67.820  1.00  0.00    -0.073 NA 
BRANCH   3   4
HETATM    4  C   UNL     1      -7.265   6.528  69.062  1.00  0.00    -0.091 C  
HETATM    5  C   UNL     1      -6.081   5.912  69.809  1.00  0.00    -0.026 C  
ENDBRANCH   3   4
BRANCH   3   6
HETATM    6  C   UNL     1      -5.863   8.244  68.057  1.00  0.00    -0.042 C  
BRANCH   6   7
HETATM    7  C   UNL     1      -6.244   9.492  68.875  1.00  0.00    -0.042 C  
BRANCH   7   8
HETATM    8  N   UNL     1      -7.425  10.154  68.359  1.00  0.00    -0.084 N  
HETATM    9  C   UNL     1      -7.311  11.292  67.589  1.00  0.00    -0.100 C  
HETATM   10  H   UNL     1      -8.348   9.774  68.567  1.00  0.00     0.000 HD 
HETATM   11  O   UNL     1      -6.235  11.828  67.339  1.00  0.00    -0.079 OA 
BRANCH   9  12
HETATM   12  C   UNL     1      -8.572  11.857  67.036  1.00  0.00    -0.176 A  
HETATM   13  C   UNL     1      -9.635  11.043  66.633  1.00  0.00    -0.216 A  
HETATM   14  C   UNL     1     -10.807  11.620  66.130  1.00  0.00    -0.343 A  
HETATM   15  C   UNL     1     -10.922  13.006  65.990  1.00  0.00    -0.275 A  
HETATM   16  C   UNL     1      -9.890  13.816  66.471  1.00  0.00    -0.294 A  
HETATM   17  N   UNL     1     -12.139  13.574  65.600  1.00  0.00    -0.402 NA 
HETATM   18  H2  UNL     1     -12.864  13.255  66.242  1.00  0.00     0.000 HD 
HETATM   19  H1  UNL     1     -12.224  14.586  65.498  1.00  0.00     0.000 HD 
HETATM   20  C   UNL     1      -8.714  13.248  66.974  1.00  0.00    -0.192 A  
ENDBRANCH   9  12
ENDBRANCH   7   8
ENDBRANCH   6   7
ENDBRANCH   3   6
ENDBRANCH   2   3
TORSDOF 6
ENDMDL
MODEL      241
REMARK 921   NORMALIZED FREE ENERGY PREDICTED BY IDOCK:   -1.84 KCAL/MOL
REMARK 922        TOTAL FREE ENERGY PREDICTED BY IDOCK:   -2.96 KCAL/MOL
REMARK 923 INTER-LIGAND FREE ENERGY PREDICTED BY IDOCK:   -2.50 KCAL/MOL
REMARK 924 INTRA-LIGAND FREE ENERGY PREDICTED BY IDOCK:   -0.46 KCAL/MOL
REMARK 927      BINDING AFFINITY PREDICTED BY RF-SCORE:    0.00 PKD
ROOT
HETATM    1  C   UNL     1     -11.994  10.711  68.829  1.00  0.00    -0.069 C  
HETATM    2  C   UNL     1     -10.882  10.756  67.782  1.00  0.00    -0.269 C  
ENDROOT
BRANCH   2   3
HETATM    3  N   UNL     1      -9.818  11.738  68.055  1.00  0.00    -0.178 NA 
BRANCH   3   4
HETATM    4  C   UNL     1     -10.283  12.917  68.815  1.00  0.00    -0.091 C  
HETATM    5  C   UNL     1     -10.349  14.240  68.052  1.00  0.00    -0.229 C  
ENDBRANCH   3   4
BRANCH   3   6
HETATM    6  C   UNL     1      -8.658  11.107  68.735  1.00  0.00    -0.132 C  
BRANCH   6   7
HETATM    7  C   UNL     1      -8.247   9.716  68.217  1.00  0.00    -0.106 C  
BRANCH   7   8
HETATM    8  N   UNL     1      -8.436   8.677  69.208  1.00  0.00    -0.122 N  
HETATM    9  C   UNL     1      -9.159   7.542  68.906  1.00  0.00    -0.140 C  
HETATM   10  H   UNL     1      -8.032   8.786  70.138  1.00  0.00     0.000 HD 
HETATM   11  O   UNL     1      -9.711   7.367  67.824  1.00  0.00    -0.138 OA 
BRANCH   9  12
HETATM   12  C   UNL     1      -9.232   6.493  69.958  1.00  0.00    -0.157 A  
HETATM   13  C   UNL     1      -8.668   5.225  69.784  1.00  0.00    -0.116 A  
HETATM   14  C   UNL     1      -8.751   4.275  70.808  1.00  0.00    -0.125 A  
HETATM   15  C   UNL     1      -9.423   4.560  72.000  1.00  0.00    -0.143 A  
HETATM   16  C   UNL     1      -9.912   5.854  72.200  1.00  0.00    -0.196 A  
HETATM   17  N   UNL     1      -9.395   3.646  73.059  1.00  0.00    -0.102 NA 
HETATM   18  H2  UNL     1      -8.421   3.440  73.280  1.00  0.00     0.000 HD 
HETATM   19  H1  UNL     1      -9.885   3.854  73.929  1.00  0.00     0.000 HD 
HETATM   20  C   UNL     1      -9.834   6.810  71.182  1.00  0.00    -0.188 A  
ENDBRANCH   9  12
ENDBRANCH   7   8
ENDBRANCH   6   7
ENDBRANCH   3   6
ENDBRANCH   2   3
TORSDOF 6
ENDMDL
MODEL      242
REMARK 921   NORMALIZED FREE ENERGY PREDICTED BY IDOCK:   -1.76 KCAL/MOL
REMARK 922        TOTAL FREE ENERGY PREDICTED BY IDOCK:   -2.86 KCAL/MOL
REMARK 923 INTER-LIGAND FREE ENERGY PREDICTED BY IDOCK:   -2.54 KCAL/MOL
REMARK 924 INTRA-LIGAND FREE ENERGY PREDICTED BY IDOCK:   -0.32 KCAL/MOL
REMARK 927      BINDING AFFINITY PREDICTED BY RF-SCORE:    0.00 PKD
ROOT
HETATM    1  C   UNL     1     -12.041  13.861  68.173  1.00  0.00    -0.317 C  
HETATM    2  C   UNL     1     -12.442  15.271  68.605  1.00  0.00     0.347 C  
ENDROOT
BRANCH   2   3
HETATM    3  N   UNL     1     -11.364  16.050  69.240  1.00  0.00    -0.347 NA 
BRANCH   3   4
HETATM    4  C   UNL     1     -10.769  15.385  70.418  1.00  0.00    -0.286 C  
HETATM    5  C   UNL     1     -11.571  15.446  71.718  1.00  0.00    -0.501 C  
ENDBRANCH   3   4
BRANCH   3   6
HETATM    6  C   UNL     1     -10.309  16.416  68.262  1.00  0.00    -0.279 C  
BRANCH   6   7
HETATM    7  C   UNL     1      -8.863  16.087  68.675  1.00  0.00    -0.210 C  
BRANCH   7   8
HETATM    8  N   UNL     1      -8.453  14.763  68.252  1.00  0.00    -0.144 N  
HETATM    9  C   UNL     1      -7.136  14.369  68.360  1.00  0.00    -0.106 C  
HETATM   10  H   UNL     1      -9.144  14.118  67.872  1.00  0.00     0.000 HD 
HETATM   11  O   UNL     1      -6.245  15.110  68.765  1.00  0.00    -0.085 OA 
BRANCH   9  12
HETATM   12  C   UNL     1      -6.822  12.966  67.978  1.00  0.00    -0.108 A  
HETATM   13  C   UNL     1      -5.559  12.404  68.187  1.00  0.00    -0.063 A  
HETATM   14  C   UNL     1      -5.314  11.075  67.823  1.00  0.00    -0.039 A  
HETATM   15  C   UNL     1      -6.309  10.302  67.217  1.00  0.00    -0.066 A  
HETATM   16  C   UNL     1      -7.590  10.842  67.086  1.00  0.00    -0.109 A  
HETATM   17  N   UNL     1      -6.088   8.943  66.968  1.00  0.00    -0.057 NA 
HETATM   18  H2  UNL     1      -5.822   8.494  67.844  1.00  0.00     0.000 HD 
HETATM   19  H1  UNL     1      -6.814   8.378  66.525  1.00  0.00     0.000 HD 
HETATM   20  C   UNL     1      -7.844  12.170  67.447  1.00  0.00    -0.168 A  
ENDBRANCH   9  12
ENDBRANCH   7   8
ENDBRANCH   6   7
ENDBRANCH   3   6
ENDBRANCH   2   3
TORSDOF 6
ENDMDL
MODEL      243
REMARK 921   NORMALIZED FREE ENERGY PREDICTED BY IDOCK:   -1.69 KCAL/MOL
REMARK 922        TOTAL FREE ENERGY PREDICTED BY IDOCK:   -2.76 KCAL/MOL
REMARK 923 INTER-LIGAND FREE ENERGY PREDICTED BY IDOCK:   -2.30 KCAL/MOL
REMARK 924 INTRA-LIGAND FREE ENERGY PREDICTED BY IDOCK:   -0.45 KCAL/MOL
REMARK 927      BINDING AFFINITY PREDICTED BY RF-SCORE:    0.00 PKD
ROOT
HETATM    1  C   UNL     1      -8.980  11.665  66.855  1.00  0.00    -0.191 C  
HETATM    2  C   UNL     1      -8.571  10.209  66.630  1.00  0.00    -0.126 C  
ENDROOT
BRANCH   2   3
HETATM    3  N   UNL     1      -9.169   9.249  67.574  1.00  0.00    -0.124 NA 
BRANCH   3   4
HETATM    4  C   UNL     1     -10.490   8.743  67.145  1.00  0.00    -0.283 C  
HETATM    5  C   UNL     1     -10.783   7.269  67.427  1.00  0.00    -0.358 C  
ENDBRANCH   3   4
BRANCH   3   6
HETATM    6  C   UNL     1      -8.248   8.119  67.856  1.00  0.00    -0.129 C  
BRANCH   6   7
HETATM    7  C   UNL     1      -7.223   7.794  66.754  1.00  0.00    -0.088 C  
BRANCH   7   8
HETATM    8  N   UNL     1      -7.692   6.769  65.844  1.00  0.00    -0.090 N  
HETATM    9  C   UNL     1      -7.584   5.435  66.175  1.00  0.00    -0.087 C  
HETATM   10  H   UNL     1      -8.105   7.037  64.951  1.00  0.00     0.000 HD 
HETATM   11  O   UNL     1      -7.056   5.041  67.210  1.00  0.00    -0.064 OA 
BRANCH   9  12
HETATM   12  C   UNL     1      -8.166   4.457  65.215  1.00  0.00    -0.110 A  
HETATM   13  C   UNL     1      -8.356   3.112  65.549  1.00  0.00    -0.100 A  
HETATM   14  C   UNL     1      -8.919   2.232  64.617  1.00  0.00    -0.121 A  
HETATM   15  C   UNL     1      -9.267   2.669  63.336  1.00  0.00    -0.096 A  
HETATM   16  C   UNL     1      -9.152   4.029  63.038  1.00  0.00    -0.116 A  
HETATM   17  N   UNL     1      -9.938   1.810  62.459  1.00  0.00    -0.088 NA 
HETATM   18  H2  UNL     1     -10.780   1.469  62.923  1.00  0.00     0.000 HD 
HETATM   19  H1  UNL     1     -10.193   2.129  61.524  1.00  0.00     0.000 HD 
HETATM   20  C   UNL     1      -8.590   4.916  63.962  1.00  0.00    -0.133 A  
ENDBRANCH   9  12
ENDBRANCH   7   8
ENDBRANCH   6   7
ENDBRANCH   3   6
ENDBRANCH   2   3
TORSDOF 6
ENDMDL
MODEL      244
REMARK 921   NORMALIZED FREE ENERGY PREDICTED BY IDOCK:   -1.60 KCAL/MOL
REMARK 922        TOTAL FREE ENERGY PREDICTED BY IDOCK:   -2.64 KCAL/MOL
REMARK 923 INTER-LIGAND FREE ENERGY PREDICTED BY IDOCK:   -2.29 KCAL/MOL
REMARK 924 INTRA-LIGAND FREE ENERGY PREDICTED BY IDOCK:   -0.35 KCAL/MOL
REMARK 927      BINDING AFFINITY PREDICTED BY RF-SCORE:    0.00 PKD
ROOT
HETATM    1  C   UNL     1      -7.424   5.824  64.530  1.00  0.00    -0.074 C  
HETATM    2  C   UNL     1      -7.084   6.067  66.000  1.00  0.00    -0.074 C  
ENDROOT
BRANCH   2   3
HETATM    3  N   UNL     1      -8.218   5.916  66.929  1.00  0.00    -0.105 NA 
BRANCH   3   4
HETATM    4  C   UNL     1      -8.877   4.595  66.847  1.00  0.00    -0.111 C  
HETATM    5  C   UNL     1      -8.697   3.666  68.048  1.00  0.00    -0.128 C  
ENDBRANCH   3   4
BRANCH   3   6
HETATM    6  C   UNL     1      -7.818   6.211  68.328  1.00  0.00    -0.104 C  
BRANCH   6   7
HETATM    7  C   UNL     1      -8.637   7.297  69.049  1.00  0.00    -0.129 C  
BRANCH   7   8
HETATM    8  N   UNL     1      -8.287   8.634  68.617  1.00  0.00    -0.121 N  
HETATM    9  C   UNL     1      -8.352   9.695  69.496  1.00  0.00    -0.152 C  
HETATM   10  H   UNL     1      -7.991   8.793  67.654  1.00  0.00     0.000 HD 
HETATM   11  O   UNL     1      -8.744   9.583  70.654  1.00  0.00    -0.218 OA 
BRANCH   9  12
HETATM   12  C   UNL     1      -7.896  11.017  68.987  1.00  0.00    -0.126 A  
HETATM   13  C   UNL     1      -6.603  11.495  69.217  1.00  0.00    -0.113 A  
HETATM   14  C   UNL     1      -6.216  12.740  68.707  1.00  0.00    -0.075 A  
HETATM   15  C   UNL     1      -7.117  13.536  67.995  1.00  0.00    -0.127 A  
HETATM   16  C   UNL     1      -8.380  13.017  67.699  1.00  0.00    -0.181 A  
HETATM   17  N   UNL     1      -6.683  14.721  67.390  1.00  0.00    -0.282 NA 
HETATM   18  H2  UNL     1      -5.896  14.501  66.780  1.00  0.00     0.000 HD 
HETATM   19  H1  UNL     1      -7.341  15.302  66.870  1.00  0.00     0.000 HD 
HETATM   20  C   UNL     1      -8.776  11.774  68.204  1.00  0.00    -0.168 A  
ENDBRANCH   9  12
ENDBRANCH   7   8
ENDBRANCH   6   7
ENDBRANCH   3   6
ENDBRANCH   2   3
TORSDOF 6
ENDMDL
MODEL      245
REMARK 921   NORMALIZED FREE ENERGY PREDICTED BY IDOCK:   -1.57 KCAL/MOL
REMARK 922        TOTAL FREE ENERGY PREDICTED BY IDOCK:   -2.60 KCAL/MOL
REMARK 923 INTER-LIGAND FREE ENERGY PREDICTED BY IDOCK:   -2.26 KCAL/MOL
REMARK 924 INTRA-LIGAND FREE ENERGY PREDICTED BY IDOCK:   -0.34 KCAL/MOL
REMARK 927      BINDING AFFINITY PREDICTED BY RF-SCORE:    0.00 PKD
ROOT
HETATM    1  C   UNL     1     -10.781  17.606  67.160  1.00  0.00    -0.203 C  
HETATM    2  C   UNL     1     -10.636  16.178  67.683  1.00  0.00    -0.315 C  
ENDROOT
BRANCH   2   3
HETATM    3  N   UNL     1      -9.470  15.445  67.159  1.00  0.00    -0.209 NA 
BRANCH   3   4
HETATM    4  C   UNL     1      -8.225  16.242  67.153  1.00  0.00    -0.189 C  
HETATM    5  C   UNL     1      -7.312  16.096  68.371  1.00  0.00    -0.140 C  
ENDBRANCH   3   4
BRANCH   3   6
HETATM    6  C   UNL     1      -9.262  14.165  67.882  1.00  0.00    -0.196 C  
BRANCH   6   7
HETATM    7  C   UNL     1      -9.185  12.900  67.007  1.00  0.00    -0.226 C  
BRANCH   7   8
HETATM    8  N   UNL     1      -8.742  11.738  67.749  1.00  0.00    -0.149 N  
HETATM    9  C   UNL     1      -7.403  11.416  67.816  1.00  0.00    -0.098 C  
HETATM   10  H   UNL     1      -9.428  11.152  68.226  1.00  0.00     0.000 HD 
HETATM   11  O   UNL     1      -6.531  12.049  67.229  1.00  0.00    -0.121 OA 
BRANCH   9  12
HETATM   12  C   UNL     1      -7.035  10.253  68.667  1.00  0.00    -0.066 A  
HETATM   13  C   UNL     1      -6.092  10.354  69.695  1.00  0.00    -0.052 A  
HETATM   14  C   UNL     1      -5.787   9.234  70.478  1.00  0.00    -0.044 A  
HETATM   15  C   UNL     1      -6.387   7.997  70.227  1.00  0.00    -0.036 A  
HETATM   16  C   UNL     1      -7.387   7.923  69.254  1.00  0.00    -0.082 A  
HETATM   17  N   UNL     1      -6.163   6.920  71.091  1.00  0.00    -0.036 NA 
HETATM   18  H2  UNL     1      -6.408   7.210  72.038  1.00  0.00     0.000 HD 
HETATM   19  H1  UNL     1      -6.602   6.017  70.908  1.00  0.00     0.000 HD 
HETATM   20  C   UNL     1      -7.699   9.036  68.466  1.00  0.00    -0.097 A  
ENDBRANCH   9  12
ENDBRANCH   7   8
ENDBRANCH   6   7
ENDBRANCH   3   6
ENDBRANCH   2   3
TORSDOF 6
ENDMDL
MODEL      246
REMARK 921   NORMALIZED FREE ENERGY PREDICTED BY IDOCK:   -1.49 KCAL/MOL
REMARK 922        TOTAL FREE ENERGY PREDICTED BY IDOCK:   -2.49 KCAL/MOL
REMARK 923 INTER-LIGAND FREE ENERGY PREDICTED BY IDOCK:   -2.35 KCAL/MOL
REMARK 924 INTRA-LIGAND FREE ENERGY PREDICTED BY IDOCK:   -0.14 KCAL/MOL
REMARK 927      BINDING AFFINITY PREDICTED BY RF-SCORE:    0.00 PKD
ROOT
HETATM    1  C   UNL     1      -8.086   5.061  65.772  1.00  0.00    -0.113 C  
HETATM    2  C   UNL     1      -6.692   5.369  66.317  1.00  0.00    -0.057 C  
ENDROOT
BRANCH   2   3
HETATM    3  N   UNL     1      -6.672   6.265  67.486  1.00  0.00    -0.058 NA 
BRANCH   3   4
HETATM    4  C   UNL     1      -5.381   6.957  67.678  1.00  0.00    -0.012 C  
HETATM    5  C   UNL     1      -5.302   8.406  67.194  1.00  0.00    -0.037 C  
ENDBRANCH   3   4
BRANCH   3   6
HETATM    6  C   UNL     1      -7.785   7.247  67.437  1.00  0.00    -0.110 C  
BRANCH   6   7
HETATM    7  C   UNL     1      -8.108   7.967  68.759  1.00  0.00    -0.126 C  
BRANCH   7   8
HETATM    8  N   UNL     1      -8.305   7.046  69.859  1.00  0.00    -0.137 N  
HETATM    9  C   UNL     1      -9.575   6.751  70.309  1.00  0.00    -0.165 C  
HETATM   10  H   UNL     1      -7.497   6.612  70.305  1.00  0.00     0.000 HD 
HETATM   11  O   UNL     1     -10.587   7.271  69.849  1.00  0.00    -0.220 OA 
BRANCH   9  12
HETATM   12  C   UNL     1      -9.685   5.732  71.388  1.00  0.00    -0.203 A  
HETATM   13  C   UNL     1      -8.827   4.631  71.460  1.00  0.00    -0.149 A  
HETATM   14  C   UNL     1      -8.960   3.706  72.502  1.00  0.00    -0.127 A  
HETATM   15  C   UNL     1      -9.967   3.846  73.462  1.00  0.00    -0.123 A  
HETATM   16  C   UNL     1     -10.766   4.991  73.432  1.00  0.00    -0.330 A  
HETATM   17  N   UNL     1     -10.013   2.983  74.562  1.00  0.00    -0.124 NA 
HETATM   18  H2  UNL     1      -9.110   3.016  75.035  1.00  0.00     0.000 HD 
HETATM   19  H1  UNL     1     -10.747   3.085  75.263  1.00  0.00     0.000 HD 
HETATM   20  C   UNL     1     -10.641   5.921  72.394  1.00  0.00    -0.257 A  
ENDBRANCH   9  12
ENDBRANCH   7   8
ENDBRANCH   6   7
ENDBRANCH   3   6
ENDBRANCH   2   3
TORSDOF 6
ENDMDL
MODEL      247
REMARK 921   NORMALIZED FREE ENERGY PREDICTED BY IDOCK:   -1.17 KCAL/MOL
REMARK 922        TOTAL FREE ENERGY PREDICTED BY IDOCK:   -2.06 KCAL/MOL
REMARK 923 INTER-LIGAND FREE ENERGY PREDICTED BY IDOCK:   -1.97 KCAL/MOL
REMARK 924 INTRA-LIGAND FREE ENERGY PREDICTED BY IDOCK:   -0.09 KCAL/MOL
REMARK 927      BINDING AFFINITY PREDICTED BY RF-SCORE:    0.00 PKD
ROOT
HETATM    1  C   UNL     1      -9.919   9.725  68.738  1.00  0.00    -0.179 C  
HETATM    2  C   UNL     1      -8.615   9.828  69.527  1.00  0.00    -0.179 C  
ENDROOT
BRANCH   2   3
HETATM    3  N   UNL     1      -8.143   8.558  70.106  1.00  0.00    -0.107 NA 
BRANCH   3   4
HETATM    4  C   UNL     1      -9.222   7.570  70.322  1.00  0.00    -0.157 C  
HETATM    5  C   UNL     1      -9.477   7.141  71.767  1.00  0.00    -0.160 C  
ENDBRANCH   3   4
BRANCH   3   6
HETATM    6  C   UNL     1      -7.050   7.963  69.296  1.00  0.00    -0.071 C  
BRANCH   6   7
HETATM    7  C   UNL     1      -6.852   6.443  69.442  1.00  0.00    -0.065 C  
BRANCH   7   8
HETATM    8  N   UNL     1      -7.554   5.692  68.422  1.00  0.00    -0.081 N  
HETATM    9  C   UNL     1      -7.015   4.529  67.912  1.00  0.00    -0.056 C  
HETATM   10  H   UNL     1      -8.454   6.025  68.079  1.00  0.00     0.000 HD 
HETATM   11  O   UNL     1      -5.916   4.097  68.246  1.00  0.00    -0.025 OA 
BRANCH   9  12
HETATM   12  C   UNL     1      -7.843   3.781  66.928  1.00  0.00    -0.084 A  
HETATM   13  C   UNL     1      -8.694   4.431  66.028  1.00  0.00    -0.114 A  
HETATM   14  C   UNL     1      -9.444   3.685  65.111  1.00  0.00    -0.162 A  
HETATM   15  C   UNL     1      -9.384   2.289  65.101  1.00  0.00    -0.053 A  
HETATM   16  C   UNL     1      -8.472   1.652  65.946  1.00  0.00    -0.101 A  
HETATM   17  N   UNL     1     -10.046   1.564  64.104  1.00  0.00    -0.305 NA 
HETATM   18  H2  UNL     1      -9.732   1.906  63.196  1.00  0.00     0.000 HD 
HETATM   19  H1  UNL     1     -10.002   0.545  64.096  1.00  0.00     0.000 HD 
HETATM   20  C   UNL     1      -7.718   2.388  66.866  1.00  0.00    -0.070 A  
ENDBRANCH   9  12
ENDBRANCH   7   8
ENDBRANCH   6   7
ENDBRANCH   3   6
ENDBRANCH   2   3
TORSDOF 6
ENDMDL
MODEL      248
REMARK 921   NORMALIZED FREE ENERGY PREDICTED BY IDOCK:   -0.53 KCAL/MOL
REMARK 922        TOTAL FREE ENERGY PREDICTED BY IDOCK:   -1.19 KCAL/MOL
REMARK 923 INTER-LIGAND FREE ENERGY PREDICTED BY IDOCK:   -2.38 KCAL/MOL
REMARK 924 INTRA-LIGAND FREE ENERGY PREDICTED BY IDOCK:    1.19 KCAL/MOL
REMARK 927      BINDING AFFINITY PREDICTED BY RF-SCORE:    0.00 PKD
ROOT
HETATM    1  C   UNL     1      -9.453  12.746  68.320  1.00  0.00    -0.203 C  
HETATM    2  C   UNL     1      -9.574  11.249  68.604  1.00  0.00    -0.190 C  
ENDROOT
BRANCH   2   3
HETATM    3  N   UNL     1     -10.480  10.904  69.714  1.00  0.00    -0.099 NA 
BRANCH   3   4
HETATM    4  C   UNL     1     -11.911  11.051  69.376  1.00  0.00    -0.337 C  
HETATM    5  C   UNL     1     -12.502  12.457  69.497  1.00  0.00     0.184 C  
ENDBRANCH   3   4
BRANCH   3   6
HETATM    6  C   UNL     1     -10.207   9.540  70.234  1.00  0.00    -0.260 C  
BRANCH   6   7
HETATM    7  C   UNL     1     -10.136   8.419  69.181  1.00  0.00    -0.203 C  
BRANCH   7   8
HETATM    8  N   UNL     1      -9.601   8.878  67.916  1.00  0.00    -0.145 N  
HETATM    9  C   UNL     1      -8.442   8.332  67.405  1.00  0.00    -0.125 C  
HETATM   10  H   UNL     1     -10.085   9.612  67.399  1.00  0.00     0.000 HD 
HETATM   11  O   UNL     1      -7.785   7.481  67.996  1.00  0.00    -0.111 OA 
BRANCH   9  12
HETATM   12  C   UNL     1      -8.012   8.808  66.062  1.00  0.00    -0.107 A  
HETATM   13  C   UNL     1      -8.899   8.891  64.984  1.00  0.00    -0.183 A  
HETATM   14  C   UNL     1      -8.450   9.357  63.743  1.00  0.00    -0.200 A  
HETATM   15  C   UNL     1      -7.112   9.712  63.550  1.00  0.00    -0.108 A  
HETATM   16  C   UNL     1      -6.252   9.706  64.651  1.00  0.00    -0.089 A  
HETATM   17  N   UNL     1      -6.706  10.288  62.341  1.00  0.00    -0.124 NA 
HETATM   18  H2  UNL     1      -7.286  11.108  62.165  1.00  0.00     0.000 HD 
HETATM   19  H1  UNL     1      -5.730  10.548  62.200  1.00  0.00     0.000 HD 
HETATM   20  C   UNL     1      -6.691   9.241  65.895  1.00  0.00    -0.080 A  
ENDBRANCH   9  12
ENDBRANCH   7   8
ENDBRANCH   6   7
ENDBRANCH   3   6
ENDBRANCH   2   3
TORSDOF 6
ENDMDL
MODEL      249
REMARK 921   NORMALIZED FREE ENERGY PREDICTED BY IDOCK:    8.85 KCAL/MOL
REMARK 922        TOTAL FREE ENERGY PREDICTED BY IDOCK:   11.47 KCAL/MOL
REMARK 923 INTER-LIGAND FREE ENERGY PREDICTED BY IDOCK:    8.68 KCAL/MOL
REMARK 924 INTRA-LIGAND FREE ENERGY PREDICTED BY IDOCK:    2.79 KCAL/MOL
REMARK 927      BINDING AFFINITY PREDICTED BY RF-SCORE:    0.00 PKD
ROOT
HETATM    1  C   UNL     1     -12.160  13.148  72.131  1.00  0.00     1.150 C  
HETATM    2  C   UNL     1     -11.886  14.611  71.786  1.00  0.00    -0.224 C  
ENDROOT
BRANCH   2   3
HETATM    3  N   UNL     1     -11.746  14.888  70.346  1.00  0.00    -0.279 NA 
BRANCH   3   4
HETATM    4  C   UNL     1     -11.334  16.276  70.049  1.00  0.00    -0.269 C  
HETATM    5  C   UNL     1      -9.866  16.624  70.300  1.00  0.00     1.128 C  
ENDBRANCH   3   4
BRANCH   3   6
HETATM    6  C   UNL     1     -10.824  13.923  69.694  1.00  0.00     0.079 C  
BRANCH   6   7
HETATM    7  C   UNL     1      -9.330  14.088  70.025  1.00  0.00     1.813 C  
BRANCH   7   8
HETATM    8  N   UNL     1      -8.670  15.041  69.156  1.00  0.00    -0.282 N  
HETATM    9  C   UNL     1      -7.464  14.733  68.565  1.00  0.00    -0.117 C  
HETATM   10  H   UNL     1      -9.103  15.948  68.981  1.00  0.00     0.000 HD 
HETATM   11  O   UNL     1      -6.866  13.680  68.769  1.00  0.00    -0.096 OA 
BRANCH   9  12
HETATM   12  C   UNL     1      -6.901  15.739  67.624  1.00  0.00    -0.198 A  
HETATM   13  C   UNL     1      -7.056  17.114  67.828  1.00  0.00    -0.165 A  
HETATM   14  C   UNL     1      -6.497  18.024  66.923  1.00  0.00    -0.209 A  
HETATM   15  C   UNL     1      -5.810  17.579  65.790  1.00  0.00     0.037 A  
HETATM   16  C   UNL     1      -5.588  16.208  65.636  1.00  0.00     4.125 A  
HETATM   17  N   UNL     1      -5.156  18.496  64.960  1.00  0.00    -0.154 NA 
HETATM   18  H2  UNL     1      -4.514  19.045  65.531  1.00  0.00     0.000 HD 
HETATM   19  H1  UNL     1      -4.654  18.171  64.133  1.00  0.00     0.000 HD 
HETATM   20  C   UNL     1      -6.143  15.291  66.536  1.00  0.00     2.347 A  
ENDBRANCH   9  12
ENDBRANCH   7   8
ENDBRANCH   6   7
ENDBRANCH   3   6
ENDBRANCH   2   3
TORSDOF 6
ENDMDL
