MODEL        1
REMARK 921   NORMALIZED FREE ENERGY PREDICTED BY IDOCK:   -6.80 KCAL/MOL
REMARK 922        TOTAL FREE ENERGY PREDICTED BY IDOCK:   -9.64 KCAL/MOL
REMARK 923 INTER-LIGAND FREE ENERGY PREDICTED BY IDOCK:   -8.79 KCAL/MOL
REMARK 924 INTRA-LIGAND FREE ENERGY PREDICTED BY IDOCK:   -0.85 KCAL/MOL
REMARK 927      BINDING AFFINITY PREDICTED BY RF-SCORE:    0.00 PKD
ROOT
HETATM    1  C   UNL     1     -13.296  15.232  71.537  1.00  0.00    -0.559 C  
HETATM    2  C   UNL     1     -12.412  15.453  70.313  1.00  0.00    -0.413 C  
ENDROOT
BRANCH   2   3
HETATM    3  C   UNL     1     -11.910  14.155  69.623  1.00  0.00    -0.324 C  
BRANCH   3   4
HETATM    4  N   UNL     1     -11.719  13.035  70.579  1.00  0.00    -0.520 NA 
HETATM    5  H   UNL     1     -11.338  13.187  71.512  1.00  0.00     0.000 HD 
BRANCH   4   6
HETATM    6  C   UNL     1     -12.107  11.697  70.113  1.00  0.00    -0.333 C  
HETATM    7  C   UNL     1     -12.820  10.983  71.266  1.00  0.00    -0.528 C  
HETATM    8  C   UNL     1     -10.923  10.853  69.639  1.00  0.00    -0.311 C  
ENDBRANCH   4   6
ENDBRANCH   3   4
BRANCH   3   9
HETATM    9  C   UNL     1     -10.591  14.426  68.811  1.00  0.00    -0.254 C  
HETATM   10  H   UNL     1      -8.922  15.477  69.030  1.00  0.00     0.000 HD 
HETATM   11  O   UNL     1      -9.719  15.313  69.521  1.00  0.00    -0.238 OA 
BRANCH   9  12
HETATM   12  C   UNL     1     -10.786  14.883  67.364  1.00  0.00    -0.304 A  
HETATM   13  C   UNL     1     -11.169  14.050  66.284  1.00  0.00    -0.320 A  
HETATM   14  C   UNL     1     -11.317  12.589  66.394  1.00  0.00    -0.379 C  
HETATM   15  C   UNL     1     -11.842  11.867  65.397  1.00  0.00    -0.149 C  
HETATM   16  C   UNL     1     -12.266  12.504  64.134  1.00  0.00    -0.467 C  
HETATM   17  N   UNL     1     -11.990  13.833  63.996  1.00  0.00    -0.586 N  
HETATM   18  O   UNL     1     -12.825  11.860  63.253  1.00  0.00    -0.702 OA 
HETATM   19  H   UNL     1     -12.184  14.272  63.096  1.00  0.00     0.000 HD 
HETATM   20  C   UNL     1     -11.453  14.632  65.021  1.00  0.00    -0.386 A  
HETATM   21  C   UNL     1     -11.267  16.003  64.818  1.00  0.00    -0.339 A  
HETATM   22  O   UNL     1     -11.490  16.613  63.615  1.00  0.00    -1.331 OA 
HETATM   23  C   UNL     1     -10.841  16.816  65.856  1.00  0.00    -0.053 A  
HETATM   24  H   UNL     1     -11.363  17.544  63.477  1.00  0.00     0.000 HD 
HETATM   25  C   UNL     1     -10.613  16.263  67.115  1.00  0.00    -0.291 A  
ENDBRANCH   9  12
ENDBRANCH   3   9
ENDBRANCH   2   3
TORSDOF 5
ENDMDL
MODEL        2
REMARK 921   NORMALIZED FREE ENERGY PREDICTED BY IDOCK:   -6.78 KCAL/MOL
REMARK 922        TOTAL FREE ENERGY PREDICTED BY IDOCK:   -9.61 KCAL/MOL
REMARK 923 INTER-LIGAND FREE ENERGY PREDICTED BY IDOCK:   -8.95 KCAL/MOL
REMARK 924 INTRA-LIGAND FREE ENERGY PREDICTED BY IDOCK:   -0.67 KCAL/MOL
REMARK 927      BINDING AFFINITY PREDICTED BY RF-SCORE:    0.00 PKD
ROOT
HETATM    1  C   UNL     1     -12.459  11.804  70.706  1.00  0.00    -0.405 C  
HETATM    2  C   UNL     1     -11.669  12.329  69.511  1.00  0.00    -0.398 C  
ENDROOT
BRANCH   2   3
HETATM    3  C   UNL     1     -11.258  13.824  69.604  1.00  0.00    -0.115 C  
BRANCH   3   4
HETATM    4  N   UNL     1     -12.383  14.749  69.318  1.00  0.00    -0.568 NA 
HETATM    5  H   UNL     1     -12.810  14.801  68.393  1.00  0.00     0.000 HD 
BRANCH   4   6
HETATM    6  C   UNL     1     -12.852  15.583  70.432  1.00  0.00    -0.281 C  
HETATM    7  C   UNL     1     -11.674  15.801  71.387  1.00  0.00    -0.508 C  
HETATM    8  C   UNL     1     -14.026  14.969  71.196  1.00  0.00    -0.451 C  
ENDBRANCH   4   6
ENDBRANCH   3   4
BRANCH   3   9
HETATM    9  C   UNL     1     -10.034  14.128  68.664  1.00  0.00    -0.222 C  
HETATM   10  H   UNL     1      -8.331  15.143  68.754  1.00  0.00     0.000 HD 
HETATM   11  O   UNL     1      -9.071  14.959  69.322  1.00  0.00    -0.176 OA 
BRANCH   9  12
HETATM   12  C   UNL     1     -10.382  14.676  67.278  1.00  0.00    -0.256 A  
HETATM   13  C   UNL     1     -10.959  13.929  66.221  1.00  0.00    -0.298 A  
HETATM   14  C   UNL     1     -11.193  12.477  66.282  1.00  0.00    -0.359 C  
HETATM   15  C   UNL     1     -11.893  11.846  65.332  1.00  0.00    -0.149 C  
HETATM   16  C   UNL     1     -12.430  12.577  64.167  1.00  0.00    -0.430 C  
HETATM   17  N   UNL     1     -12.082  13.891  64.055  1.00  0.00    -0.691 N  
HETATM   18  O   UNL     1     -13.143  12.019  63.340  1.00  0.00    -0.747 OA 
HETATM   19  H   UNL     1     -12.360  14.391  63.210  1.00  0.00     0.000 HD 
HETATM   20  C   UNL     1     -11.363  14.597  65.036  1.00  0.00    -0.390 A  
HETATM   21  C   UNL     1     -11.109  15.962  64.873  1.00  0.00    -0.389 A  
HETATM   22  O   UNL     1     -11.443  16.651  63.741  1.00  0.00    -1.518 OA 
HETATM   23  C   UNL     1     -10.497  16.689  65.883  1.00  0.00    -0.324 A  
HETATM   24  H   UNL     1     -11.270  17.578  63.630  1.00  0.00     0.000 HD 
HETATM   25  C   UNL     1     -10.147  16.054  67.073  1.00  0.00    -0.271 A  
ENDBRANCH   9  12
ENDBRANCH   3   9
ENDBRANCH   2   3
TORSDOF 5
ENDMDL
MODEL        3
REMARK 921   NORMALIZED FREE ENERGY PREDICTED BY IDOCK:   -6.47 KCAL/MOL
REMARK 922        TOTAL FREE ENERGY PREDICTED BY IDOCK:   -9.21 KCAL/MOL
REMARK 923 INTER-LIGAND FREE ENERGY PREDICTED BY IDOCK:   -8.49 KCAL/MOL
REMARK 924 INTRA-LIGAND FREE ENERGY PREDICTED BY IDOCK:   -0.72 KCAL/MOL
REMARK 927      BINDING AFFINITY PREDICTED BY RF-SCORE:    0.00 PKD
ROOT
HETATM    1  C   UNL     1      -8.869   9.628  70.309  1.00  0.00    -0.253 C  
HETATM    2  C   UNL     1      -9.885  10.407  69.478  1.00  0.00    -0.211 C  
ENDROOT
BRANCH   2   3
HETATM    3  C   UNL     1     -11.238  10.685  70.188  1.00  0.00    -0.302 C  
BRANCH   3   4
HETATM    4  N   UNL     1     -11.954   9.441  70.567  1.00  0.00    -0.448 NA 
HETATM    5  H   UNL     1     -12.307   8.792  69.864  1.00  0.00     0.000 HD 
BRANCH   4   6
HETATM    6  C   UNL     1     -12.128   9.191  72.004  1.00  0.00    -0.361 C  
HETATM    7  C   UNL     1     -11.351   7.919  72.360  1.00  0.00    -0.427 C  
HETATM    8  C   UNL     1     -13.591   9.033  72.419  1.00  0.00    -0.533 C  
ENDBRANCH   4   6
ENDBRANCH   3   4
BRANCH   3   9
HETATM    9  C   UNL     1     -12.154  11.610  69.307  1.00  0.00    -0.259 C  
HETATM   10  H   UNL     1     -12.705  11.746  67.405  1.00  0.00     0.000 HD 
HETATM   11  O   UNL     1     -12.151  11.187  67.938  1.00  0.00    -0.627 OA 
BRANCH   9  12
HETATM   12  C   UNL     1     -11.887  13.112  69.422  1.00  0.00    -0.383 A  
HETATM   13  C   UNL     1     -12.358  13.952  70.461  1.00  0.00    -0.439 A  
HETATM   14  C   UNL     1     -13.280  13.503  71.517  1.00  0.00    -0.402 C  
HETATM   15  C   UNL     1     -13.562  14.282  72.569  1.00  0.00    -0.620 C  
HETATM   16  C   UNL     1     -12.985  15.635  72.694  1.00  0.00    -0.460 C  
HETATM   17  N   UNL     1     -12.250  16.088  71.638  1.00  0.00    -0.546 N  
HETATM   18  O   UNL     1     -13.174  16.317  73.695  1.00  0.00    -0.660 OA 
HETATM   19  H   UNL     1     -11.923  17.054  71.659  1.00  0.00     0.000 HD 
HETATM   20  C   UNL     1     -11.916  15.300  70.521  1.00  0.00    -0.344 A  
HETATM   21  C   UNL     1     -11.098  15.820  69.514  1.00  0.00    -0.306 A  
HETATM   22  O   UNL     1     -10.670  17.119  69.501  1.00  0.00    -0.376 OA 
HETATM   23  C   UNL     1     -10.675  15.018  68.466  1.00  0.00    -0.244 A  
HETATM   24  H   UNL     1     -10.115  17.473  68.817  1.00  0.00     0.000 HD 
HETATM   25  C   UNL     1     -11.059  13.678  68.427  1.00  0.00    -0.289 A  
ENDBRANCH   9  12
ENDBRANCH   3   9
ENDBRANCH   2   3
TORSDOF 5
ENDMDL
MODEL        4
REMARK 921   NORMALIZED FREE ENERGY PREDICTED BY IDOCK:   -6.35 KCAL/MOL
REMARK 922        TOTAL FREE ENERGY PREDICTED BY IDOCK:   -9.06 KCAL/MOL
REMARK 923 INTER-LIGAND FREE ENERGY PREDICTED BY IDOCK:   -8.14 KCAL/MOL
REMARK 924 INTRA-LIGAND FREE ENERGY PREDICTED BY IDOCK:   -0.91 KCAL/MOL
REMARK 927      BINDING AFFINITY PREDICTED BY RF-SCORE:    0.00 PKD
ROOT
HETATM    1  C   UNL     1     -12.317  12.246  64.233  1.00  0.00    -0.519 C  
HETATM    2  C   UNL     1     -11.344  12.265  65.408  1.00  0.00    -0.389 C  
ENDROOT
BRANCH   2   3
HETATM    3  C   UNL     1     -11.870  12.977  66.684  1.00  0.00    -0.393 C  
BRANCH   3   4
HETATM    4  N   UNL     1     -12.081  14.432  66.484  1.00  0.00    -0.406 NA 
HETATM    5  H   UNL     1     -12.986  14.870  66.654  1.00  0.00     0.000 HD 
BRANCH   4   6
HETATM    6  C   UNL     1     -10.921  15.211  66.029  1.00  0.00    -0.332 C  
HETATM    7  C   UNL     1     -10.620  16.274  67.090  1.00  0.00    -0.291 C  
HETATM    8  C   UNL     1     -11.137  15.883  64.673  1.00  0.00    -0.368 C  
ENDBRANCH   4   6
ENDBRANCH   3   4
BRANCH   3   9
HETATM    9  C   UNL     1     -10.916  12.714  67.906  1.00  0.00    -0.230 C  
HETATM   10  H   UNL     1      -9.305  11.625  68.303  1.00  0.00     0.000 HD 
HETATM   11  O   UNL     1      -9.882  11.784  67.564  1.00  0.00    -0.183 OA 
BRANCH   9  12
HETATM   12  C   UNL     1     -11.606  12.319  69.213  1.00  0.00    -0.383 A  
HETATM   13  C   UNL     1     -12.105  13.222  70.184  1.00  0.00    -0.403 A  
HETATM   14  C   UNL     1     -11.914  14.680  70.115  1.00  0.00    -0.372 C  
HETATM   15  C   UNL     1     -12.546  15.504  70.961  1.00  0.00    -0.513 C  
HETATM   16  C   UNL     1     -13.433  14.979  72.017  1.00  0.00    -0.401 C  
HETATM   17  N   UNL     1     -13.485  13.623  72.157  1.00  0.00    -0.467 N  
HETATM   18  O   UNL     1     -14.079  15.732  72.738  1.00  0.00    -0.576 OA 
HETATM   19  H   UNL     1     -14.014  13.240  72.941  1.00  0.00     0.000 HD 
HETATM   20  C   UNL     1     -12.851  12.721  71.283  1.00  0.00    -0.262 A  
HETATM   21  C   UNL     1     -13.013  11.344  71.457  1.00  0.00    -0.399 A  
HETATM   22  O   UNL     1     -13.691  10.802  72.514  1.00  0.00    -0.449 OA 
HETATM   23  C   UNL     1     -12.482  10.451  70.539  1.00  0.00    -0.403 A  
HETATM   24  H   UNL     1     -13.800   9.866  72.633  1.00  0.00     0.000 HD 
HETATM   25  C   UNL     1     -11.795  10.935  69.427  1.00  0.00    -0.400 A  
ENDBRANCH   9  12
ENDBRANCH   3   9
ENDBRANCH   2   3
TORSDOF 5
ENDMDL
MODEL        5
REMARK 921   NORMALIZED FREE ENERGY PREDICTED BY IDOCK:   -6.34 KCAL/MOL
REMARK 922        TOTAL FREE ENERGY PREDICTED BY IDOCK:   -9.05 KCAL/MOL
REMARK 923 INTER-LIGAND FREE ENERGY PREDICTED BY IDOCK:   -8.17 KCAL/MOL
REMARK 924 INTRA-LIGAND FREE ENERGY PREDICTED BY IDOCK:   -0.88 KCAL/MOL
REMARK 927      BINDING AFFINITY PREDICTED BY RF-SCORE:    0.00 PKD
ROOT
HETATM    1  C   UNL     1     -10.553   9.227  67.475  1.00  0.00    -0.329 C  
HETATM    2  C   UNL     1     -10.554  10.740  67.279  1.00  0.00    -0.304 C  
ENDROOT
BRANCH   2   3
HETATM    3  C   UNL     1     -11.317  11.541  68.369  1.00  0.00    -0.279 C  
BRANCH   3   4
HETATM    4  N   UNL     1     -12.200  10.684  69.200  1.00  0.00    -0.731 NA 
HETATM    5  H   UNL     1     -12.941  10.120  68.786  1.00  0.00     0.000 HD 
BRANCH   4   6
HETATM    6  C   UNL     1     -11.952  10.689  70.648  1.00  0.00    -0.367 C  
HETATM    7  C   UNL     1     -11.151   9.430  70.995  1.00  0.00    -0.414 C  
HETATM    8  C   UNL     1     -13.233  10.730  71.481  1.00  0.00    -0.434 C  
ENDBRANCH   4   6
ENDBRANCH   3   4
BRANCH   3   9
HETATM    9  C   UNL     1     -12.130  12.725  67.729  1.00  0.00    -0.133 C  
HETATM   10  H   UNL     1     -12.754  13.270  65.926  1.00  0.00     0.000 HD 
HETATM   11  O   UNL     1     -12.263  12.555  66.313  1.00  0.00    -0.600 OA 
BRANCH   9  12
HETATM   12  C   UNL     1     -11.636  14.131  68.074  1.00  0.00    -0.368 A  
HETATM   13  C   UNL     1     -11.857  14.801  69.302  1.00  0.00    -0.352 A  
HETATM   14  C   UNL     1     -12.705  14.267  70.381  1.00  0.00    -0.355 C  
HETATM   15  C   UNL     1     -12.747  14.852  71.585  1.00  0.00    -0.401 C  
HETATM   16  C   UNL     1     -11.969  16.074  71.867  1.00  0.00    -0.525 C  
HETATM   17  N   UNL     1     -11.303  16.634  70.816  1.00  0.00    -0.450 N  
HETATM   18  O   UNL     1     -11.938  16.563  72.992  1.00  0.00    -0.530 OA 
HETATM   19  H   UNL     1     -10.839  17.530  70.964  1.00  0.00     0.000 HD 
HETATM   20  C   UNL     1     -11.219  16.047  69.541  1.00  0.00    -0.348 A  
HETATM   21  C   UNL     1     -10.457  16.653  68.538  1.00  0.00    -0.319 A  
HETATM   22  O   UNL     1      -9.849  17.868  68.698  1.00  0.00    -0.340 OA 
HETATM   23  C   UNL     1     -10.280  16.028  67.314  1.00  0.00    -0.277 A  
HETATM   24  H   UNL     1      -9.332  18.280  68.017  1.00  0.00     0.000 HD 
HETATM   25  C   UNL     1     -10.856  14.779  67.089  1.00  0.00    -0.311 A  
ENDBRANCH   9  12
ENDBRANCH   3   9
ENDBRANCH   2   3
TORSDOF 5
ENDMDL
MODEL        6
REMARK 921   NORMALIZED FREE ENERGY PREDICTED BY IDOCK:   -6.28 KCAL/MOL
REMARK 922        TOTAL FREE ENERGY PREDICTED BY IDOCK:   -8.96 KCAL/MOL
REMARK 923 INTER-LIGAND FREE ENERGY PREDICTED BY IDOCK:   -7.96 KCAL/MOL
REMARK 924 INTRA-LIGAND FREE ENERGY PREDICTED BY IDOCK:   -1.00 KCAL/MOL
REMARK 927      BINDING AFFINITY PREDICTED BY RF-SCORE:    0.00 PKD
ROOT
HETATM    1  C   UNL     1     -12.834  11.327  71.513  1.00  0.00    -0.519 C  
HETATM    2  C   UNL     1     -12.141  12.232  70.499  1.00  0.00    -0.371 C  
ENDROOT
BRANCH   2   3
HETATM    3  C   UNL     1     -12.000  11.632  69.073  1.00  0.00    -0.305 C  
BRANCH   3   4
HETATM    4  N   UNL     1     -11.895  10.151  69.081  1.00  0.00    -0.495 NA 
HETATM    5  H   UNL     1     -12.722   9.556  69.056  1.00  0.00     0.000 HD 
BRANCH   4   6
HETATM    6  C   UNL     1     -10.540   9.586  69.128  1.00  0.00    -0.222 C  
HETATM    7  C   UNL     1     -10.475   8.428  68.127  1.00  0.00    -0.228 C  
HETATM    8  C   UNL     1     -10.138   9.088  70.517  1.00  0.00    -0.263 C  
ENDBRANCH   4   6
ENDBRANCH   3   4
BRANCH   3   9
HETATM    9  C   UNL     1     -10.782  12.273  68.313  1.00  0.00    -0.221 C  
HETATM   10  H   UNL     1      -9.468  13.730  68.611  1.00  0.00     0.000 HD 
HETATM   11  O   UNL     1     -10.204  13.342  69.070  1.00  0.00    -0.094 OA 
BRANCH   9  12
HETATM   12  C   UNL     1     -11.053  12.702  66.869  1.00  0.00    -0.315 A  
HETATM   13  C   UNL     1     -10.525  12.076  65.713  1.00  0.00    -0.290 A  
HETATM   14  C   UNL     1      -9.535  10.986  65.757  1.00  0.00    -0.242 C  
HETATM   15  C   UNL     1      -9.194  10.314  64.651  1.00  0.00    -0.290 C  
HETATM   16  C   UNL     1      -9.773  10.661  63.338  1.00  0.00    -0.339 C  
HETATM   17  N   UNL     1     -10.577  11.762  63.294  1.00  0.00    -0.627 N  
HETATM   18  O   UNL     1      -9.528   9.993  62.339  1.00  0.00    -0.295 OA 
HETATM   19  H   UNL     1     -10.909  12.078  62.382  1.00  0.00     0.000 HD 
HETATM   20  C   UNL     1     -10.973  12.488  64.431  1.00  0.00    -0.340 A  
HETATM   21  C   UNL     1     -11.856  13.564  64.304  1.00  0.00    -0.428 A  
HETATM   22  O   UNL     1     -12.295  14.027  63.095  1.00  0.00    -1.133 OA 
HETATM   23  C   UNL     1     -12.338  14.216  65.429  1.00  0.00    -0.475 A  
HETATM   24  H   UNL     1     -12.895  14.759  63.009  1.00  0.00     0.000 HD 
HETATM   25  C   UNL     1     -11.947  13.783  66.695  1.00  0.00    -0.469 A  
ENDBRANCH   9  12
ENDBRANCH   3   9
ENDBRANCH   2   3
TORSDOF 5
ENDMDL
MODEL        7
REMARK 921   NORMALIZED FREE ENERGY PREDICTED BY IDOCK:   -6.27 KCAL/MOL
REMARK 922        TOTAL FREE ENERGY PREDICTED BY IDOCK:   -8.95 KCAL/MOL
REMARK 923 INTER-LIGAND FREE ENERGY PREDICTED BY IDOCK:   -8.38 KCAL/MOL
REMARK 924 INTRA-LIGAND FREE ENERGY PREDICTED BY IDOCK:   -0.57 KCAL/MOL
REMARK 927      BINDING AFFINITY PREDICTED BY RF-SCORE:    0.00 PKD
ROOT
HETATM    1  C   UNL     1      -9.729   9.120  66.090  1.00  0.00    -0.357 C  
HETATM    2  C   UNL     1      -9.856  10.473  66.784  1.00  0.00    -0.237 C  
ENDROOT
BRANCH   2   3
HETATM    3  C   UNL     1     -11.112  10.633  67.684  1.00  0.00    -0.319 C  
BRANCH   3   4
HETATM    4  N   UNL     1     -12.022  11.706  67.213  1.00  0.00    -0.602 NA 
HETATM    5  H   UNL     1     -12.935  11.860  67.641  1.00  0.00     0.000 HD 
BRANCH   4   6
HETATM    6  C   UNL     1     -11.544  12.537  66.100  1.00  0.00    -0.395 C  
HETATM    7  C   UNL     1     -11.442  13.982  66.597  1.00  0.00    -0.377 C  
HETATM    8  C   UNL     1     -12.448  12.479  64.868  1.00  0.00    -0.524 C  
ENDBRANCH   4   6
ENDBRANCH   3   4
BRANCH   3   9
HETATM    9  C   UNL     1     -10.701  10.869  69.183  1.00  0.00    -0.226 C  
HETATM   10  H   UNL     1      -9.079  10.667  70.309  1.00  0.00     0.000 HD 
HETATM   11  O   UNL     1      -9.328  10.525  69.403  1.00  0.00    -0.190 OA 
BRANCH   9  12
HETATM   12  C   UNL     1     -11.608  10.218  70.229  1.00  0.00    -0.396 A  
HETATM   13  C   UNL     1     -11.558   8.860  70.629  1.00  0.00    -0.251 A  
HETATM   14  C   UNL     1     -10.690   7.855  69.994  1.00  0.00    -0.244 C  
HETATM   15  C   UNL     1     -10.552   6.629  70.514  1.00  0.00    -0.270 C  
HETATM   16  C   UNL     1     -11.290   6.227  71.727  1.00  0.00    -0.294 C  
HETATM   17  N   UNL     1     -12.196   7.121  72.218  1.00  0.00    -0.490 N  
HETATM   18  O   UNL     1     -11.102   5.136  72.254  1.00  0.00    -0.198 OA 
HETATM   19  H   UNL     1     -12.787   6.827  72.997  1.00  0.00     0.000 HD 
HETATM   20  C   UNL     1     -12.363   8.423  71.714  1.00  0.00    -0.331 A  
HETATM   21  C   UNL     1     -13.266   9.300  72.321  1.00  0.00    -0.460 A  
HETATM   22  O   UNL     1     -14.091   8.927  73.346  1.00  0.00    -1.256 OA 
HETATM   23  C   UNL     1     -13.358  10.618  71.900  1.00  0.00    -0.454 A  
HETATM   24  H   UNL     1     -14.705   9.523  73.758  1.00  0.00     0.000 HD 
HETATM   25  C   UNL     1     -12.533  11.071  70.873  1.00  0.00    -0.509 A  
ENDBRANCH   9  12
ENDBRANCH   3   9
ENDBRANCH   2   3
TORSDOF 5
ENDMDL
MODEL        8
REMARK 921   NORMALIZED FREE ENERGY PREDICTED BY IDOCK:   -6.26 KCAL/MOL
REMARK 922        TOTAL FREE ENERGY PREDICTED BY IDOCK:   -8.95 KCAL/MOL
REMARK 923 INTER-LIGAND FREE ENERGY PREDICTED BY IDOCK:   -8.02 KCAL/MOL
REMARK 924 INTRA-LIGAND FREE ENERGY PREDICTED BY IDOCK:   -0.93 KCAL/MOL
REMARK 927      BINDING AFFINITY PREDICTED BY RF-SCORE:    0.00 PKD
ROOT
HETATM    1  C   UNL     1     -11.398   6.414  69.983  1.00  0.00    -0.496 C  
HETATM    2  C   UNL     1     -12.331   6.966  71.057  1.00  0.00    -0.401 C  
ENDROOT
BRANCH   2   3
HETATM    3  C   UNL     1     -11.730   8.107  71.923  1.00  0.00    -0.310 C  
BRANCH   3   4
HETATM    4  N   UNL     1     -11.443   7.681  73.316  1.00  0.00    -0.638 NA 
HETATM    5  H   UNL     1     -12.177   7.632  74.023  1.00  0.00     0.000 HD 
BRANCH   4   6
HETATM    6  C   UNL     1     -10.050   7.332  73.625  1.00  0.00    -0.340 C  
HETATM    7  C   UNL     1      -9.139   8.221  72.772  1.00  0.00    -0.332 C  
HETATM    8  C   UNL     1      -9.722   5.861  73.366  1.00  0.00    -0.158 C  
ENDBRANCH   4   6
ENDBRANCH   3   4
BRANCH   3   9
HETATM    9  C   UNL     1     -12.664   9.372  71.909  1.00  0.00    -0.401 C  
HETATM   10  H   UNL     1     -14.597   9.767  71.699  1.00  0.00     0.000 HD 
HETATM   11  O   UNL     1     -14.033   9.003  71.708  1.00  0.00    -0.392 OA 
BRANCH   9  12
HETATM   12  C   UNL     1     -12.247  10.493  70.954  1.00  0.00    -0.490 A  
HETATM   13  C   UNL     1     -12.565  11.865  71.109  1.00  0.00    -0.390 A  
HETATM   14  C   UNL     1     -13.453  12.382  72.164  1.00  0.00    -0.481 C  
HETATM   15  C   UNL     1     -13.588  13.697  72.375  1.00  0.00    -0.703 C  
HETATM   16  C   UNL     1     -12.877  14.681  71.535  1.00  0.00    -0.333 C  
HETATM   17  N   UNL     1     -12.174  14.189  70.475  1.00  0.00    -0.338 N  
HETATM   18  O   UNL     1     -12.931  15.882  71.779  1.00  0.00    -0.459 OA 
HETATM   19  H   UNL     1     -11.756  14.855  69.825  1.00  0.00     0.000 HD 
HETATM   20  C   UNL     1     -11.993  12.817  70.225  1.00  0.00    -0.280 A  
HETATM   21  C   UNL     1     -11.199  12.397  69.154  1.00  0.00    -0.236 A  
HETATM   22  O   UNL     1     -10.650  13.265  68.251  1.00  0.00    -0.237 OA 
HETATM   23  C   UNL     1     -10.926  11.051  68.965  1.00  0.00    -0.284 A  
HETATM   24  H   UNL     1     -10.111  12.980  67.523  1.00  0.00     0.000 HD 
HETATM   25  C   UNL     1     -11.437  10.113  69.860  1.00  0.00    -0.317 A  
ENDBRANCH   9  12
ENDBRANCH   3   9
ENDBRANCH   2   3
TORSDOF 5
ENDMDL
MODEL        9
REMARK 921   NORMALIZED FREE ENERGY PREDICTED BY IDOCK:   -6.18 KCAL/MOL
REMARK 922        TOTAL FREE ENERGY PREDICTED BY IDOCK:   -8.84 KCAL/MOL
REMARK 923 INTER-LIGAND FREE ENERGY PREDICTED BY IDOCK:   -8.30 KCAL/MOL
REMARK 924 INTRA-LIGAND FREE ENERGY PREDICTED BY IDOCK:   -0.54 KCAL/MOL
REMARK 927      BINDING AFFINITY PREDICTED BY RF-SCORE:    0.00 PKD
ROOT
HETATM    1  C   UNL     1     -10.000   9.918  65.985  1.00  0.00    -0.338 C  
HETATM    2  C   UNL     1      -9.997  11.431  66.182  1.00  0.00    -0.265 C  
ENDROOT
BRANCH   2   3
HETATM    3  C   UNL     1     -11.234  11.997  66.933  1.00  0.00    -0.320 C  
BRANCH   3   4
HETATM    4  N   UNL     1     -12.239  12.591  66.017  1.00  0.00    -0.620 NA 
HETATM    5  H   UNL     1     -13.207  12.734  66.305  1.00  0.00     0.000 HD 
BRANCH   4   6
HETATM    6  C   UNL     1     -11.771  12.964  64.675  1.00  0.00    -0.359 C  
HETATM    7  C   UNL     1     -12.040  14.460  64.479  1.00  0.00    -0.498 C  
HETATM    8  C   UNL     1     -12.445  12.170  63.556  1.00  0.00    -0.666 C  
ENDBRANCH   4   6
ENDBRANCH   3   4
BRANCH   3   9
HETATM    9  C   UNL     1     -10.797  13.035  68.030  1.00  0.00    -0.242 C  
HETATM   10  H   UNL     1      -9.175  13.450  69.094  1.00  0.00     0.000 HD 
HETATM   11  O   UNL     1      -9.439  12.823  68.431  1.00  0.00    -0.214 OA 
BRANCH   9  12
HETATM   12  C   UNL     1     -11.722  13.143  69.245  1.00  0.00    -0.376 A  
HETATM   13  C   UNL     1     -12.160  12.058  70.043  1.00  0.00    -0.355 A  
HETATM   14  C   UNL     1     -11.872  10.648  69.731  1.00  0.00    -0.377 C  
HETATM   15  C   UNL     1     -12.160   9.672  70.601  1.00  0.00    -0.269 C  
HETATM   16  C   UNL     1     -12.806   9.968  71.894  1.00  0.00    -0.426 C  
HETATM   17  N   UNL     1     -13.195  11.259  72.104  1.00  0.00    -0.559 N  
HETATM   18  O   UNL     1     -12.993   9.089  72.728  1.00  0.00    -0.358 OA 
HETATM   19  H   UNL     1     -13.730  11.469  72.947  1.00  0.00     0.000 HD 
HETATM   20  C   UNL     1     -12.900  12.318  71.226  1.00  0.00    -0.239 A  
HETATM   21  C   UNL     1     -13.275  13.625  71.552  1.00  0.00    -0.331 A  
HETATM   22  O   UNL     1     -14.017  13.931  72.659  1.00  0.00    -0.684 OA 
HETATM   23  C   UNL     1     -12.894  14.687  70.747  1.00  0.00    -0.418 A  
HETATM   24  H   UNL     1     -14.272  14.819  72.880  1.00  0.00     0.000 HD 
HETATM   25  C   UNL     1     -12.120  14.448  69.613  1.00  0.00    -0.381 A  
ENDBRANCH   9  12
ENDBRANCH   3   9
ENDBRANCH   2   3
TORSDOF 5
ENDMDL
MODEL       10
REMARK 921   NORMALIZED FREE ENERGY PREDICTED BY IDOCK:   -6.16 KCAL/MOL
REMARK 922        TOTAL FREE ENERGY PREDICTED BY IDOCK:   -8.81 KCAL/MOL
REMARK 923 INTER-LIGAND FREE ENERGY PREDICTED BY IDOCK:   -8.01 KCAL/MOL
REMARK 924 INTRA-LIGAND FREE ENERGY PREDICTED BY IDOCK:   -0.80 KCAL/MOL
REMARK 927      BINDING AFFINITY PREDICTED BY RF-SCORE:    0.00 PKD
ROOT
HETATM    1  C   UNL     1     -10.055   9.904  65.644  1.00  0.00    -0.307 C  
HETATM    2  C   UNL     1      -9.989  11.361  66.094  1.00  0.00    -0.265 C  
ENDROOT
BRANCH   2   3
HETATM    3  C   UNL     1     -11.250  11.873  66.843  1.00  0.00    -0.325 C  
BRANCH   3   4
HETATM    4  N   UNL     1     -12.114  12.730  65.994  1.00  0.00    -0.522 NA 
HETATM    5  H   UNL     1     -13.074  12.950  66.258  1.00  0.00     0.000 HD 
BRANCH   4   6
HETATM    6  C   UNL     1     -11.517  13.247  64.755  1.00  0.00    -0.327 C  
HETATM    7  C   UNL     1     -11.332  14.759  64.914  1.00  0.00    -0.411 C  
HETATM    8  C   UNL     1     -12.359  12.960  63.511  1.00  0.00    -0.521 C  
ENDBRANCH   4   6
ENDBRANCH   3   4
BRANCH   3   9
HETATM    9  C   UNL     1     -10.850  12.622  68.166  1.00  0.00    -0.227 C  
HETATM   10  H   UNL     1      -9.185  13.127  69.120  1.00  0.00     0.000 HD 
HETATM   11  O   UNL     1      -9.427  12.674  68.321  1.00  0.00    -0.213 OA 
BRANCH   9  12
HETATM   12  C   UNL     1     -11.526  12.119  69.443  1.00  0.00    -0.355 A  
HETATM   13  C   UNL     1     -12.100  12.938  70.446  1.00  0.00    -0.385 A  
HETATM   14  C   UNL     1     -12.014  14.408  70.446  1.00  0.00    -0.395 C  
HETATM   15  C   UNL     1     -12.713  15.144  71.318  1.00  0.00    -0.439 C  
HETATM   16  C   UNL     1     -13.574  14.510  72.335  1.00  0.00    -0.466 C  
HETATM   17  N   UNL     1     -13.530  13.149  72.413  1.00  0.00    -0.573 N  
HETATM   18  O   UNL     1     -14.281  15.181  73.079  1.00  0.00    -0.235 OA 
HETATM   19  H   UNL     1     -14.040  12.694  73.171  1.00  0.00     0.000 HD 
HETATM   20  C   UNL     1     -12.823  12.336  71.509  1.00  0.00    -0.280 A  
HETATM   21  C   UNL     1     -12.888  10.943  71.619  1.00  0.00    -0.449 A  
HETATM   22  O   UNL     1     -13.538  10.307  72.639  1.00  0.00    -0.549 OA 
HETATM   23  C   UNL     1     -12.283  10.134  70.669  1.00  0.00    -0.394 A  
HETATM   24  H   UNL     1     -13.582   9.361  72.714  1.00  0.00     0.000 HD 
HETATM   25  C   UNL     1     -11.619  10.716  69.591  1.00  0.00    -0.368 A  
ENDBRANCH   9  12
ENDBRANCH   3   9
ENDBRANCH   2   3
TORSDOF 5
ENDMDL
MODEL       11
REMARK 921   NORMALIZED FREE ENERGY PREDICTED BY IDOCK:   -6.10 KCAL/MOL
REMARK 922        TOTAL FREE ENERGY PREDICTED BY IDOCK:   -8.73 KCAL/MOL
REMARK 923 INTER-LIGAND FREE ENERGY PREDICTED BY IDOCK:   -7.74 KCAL/MOL
REMARK 924 INTRA-LIGAND FREE ENERGY PREDICTED BY IDOCK:   -0.99 KCAL/MOL
REMARK 927      BINDING AFFINITY PREDICTED BY RF-SCORE:    0.00 PKD
ROOT
HETATM    1  C   UNL     1     -10.479  11.344  63.333  1.00  0.00    -0.452 C  
HETATM    2  C   UNL     1     -11.234  12.590  63.785  1.00  0.00    -0.524 C  
ENDROOT
BRANCH   2   3
HETATM    3  C   UNL     1     -10.595  13.346  64.982  1.00  0.00    -0.358 C  
BRANCH   3   4
HETATM    4  N   UNL     1      -9.494  12.582  65.622  1.00  0.00    -0.447 NA 
HETATM    5  H   UNL     1      -8.564  12.533  65.206  1.00  0.00     0.000 HD 
BRANCH   4   6
HETATM    6  C   UNL     1      -9.811  11.901  66.884  1.00  0.00    -0.202 C  
HETATM    7  C   UNL     1      -8.817  12.385  67.945  1.00  0.00    -0.180 C  
HETATM    8  C   UNL     1      -9.751  10.377  66.781  1.00  0.00    -0.224 C  
ENDBRANCH   4   6
ENDBRANCH   3   4
BRANCH   3   9
HETATM    9  C   UNL     1     -11.687  13.744  66.042  1.00  0.00    -0.363 C  
HETATM   10  H   UNL     1     -13.641  14.085  66.077  1.00  0.00     0.000 HD 
HETATM   11  O   UNL     1     -12.981  13.845  65.437  1.00  0.00    -0.722 OA 
BRANCH   9  12
HETATM   12  C   UNL     1     -11.372  14.981  66.885  1.00  0.00    -0.302 A  
HETATM   13  C   UNL     1     -11.580  15.097  68.282  1.00  0.00    -0.357 A  
HETATM   14  C   UNL     1     -12.247  14.066  69.095  1.00  0.00    -0.299 C  
HETATM   15  C   UNL     1     -12.269  14.143  70.431  1.00  0.00    -0.427 C  
HETATM   16  C   UNL     1     -11.653  15.282  71.141  1.00  0.00    -0.370 C  
HETATM   17  N   UNL     1     -11.168  16.295  70.368  1.00  0.00    -0.424 N  
HETATM   18  O   UNL     1     -11.597  15.313  72.365  1.00  0.00    -0.436 OA 
HETATM   19  H   UNL     1     -10.826  17.135  70.836  1.00  0.00     0.000 HD 
HETATM   20  C   UNL     1     -11.110  16.250  68.963  1.00  0.00    -0.331 A  
HETATM   21  C   UNL     1     -10.532  17.304  68.250  1.00  0.00    -0.385 A  
HETATM   22  O   UNL     1     -10.093  18.453  68.847  1.00  0.00    -0.388 OA 
HETATM   23  C   UNL     1     -10.372  17.220  66.875  1.00  0.00    -0.310 A  
HETATM   24  H   UNL     1      -9.700  19.170  68.362  1.00  0.00     0.000 HD 
HETATM   25  C   UNL     1     -10.780  16.068  66.205  1.00  0.00    -0.246 A  
ENDBRANCH   9  12
ENDBRANCH   3   9
ENDBRANCH   2   3
TORSDOF 5
ENDMDL
MODEL       12
REMARK 921   NORMALIZED FREE ENERGY PREDICTED BY IDOCK:   -6.10 KCAL/MOL
REMARK 922        TOTAL FREE ENERGY PREDICTED BY IDOCK:   -8.73 KCAL/MOL
REMARK 923 INTER-LIGAND FREE ENERGY PREDICTED BY IDOCK:   -7.65 KCAL/MOL
REMARK 924 INTRA-LIGAND FREE ENERGY PREDICTED BY IDOCK:   -1.08 KCAL/MOL
REMARK 927      BINDING AFFINITY PREDICTED BY RF-SCORE:    0.00 PKD
ROOT
HETATM    1  C   UNL     1      -8.143  15.640  67.861  1.00  0.00    -0.149 C  
HETATM    2  C   UNL     1      -9.125  15.919  68.996  1.00  0.00    -0.240 C  
ENDROOT
BRANCH   2   3
HETATM    3  C   UNL     1     -10.407  16.691  68.580  1.00  0.00    -0.303 C  
BRANCH   3   4
HETATM    4  N   UNL     1     -10.412  18.096  69.058  1.00  0.00    -0.410 NA 
HETATM    5  H   UNL     1     -10.672  18.334  70.015  1.00  0.00     0.000 HD 
BRANCH   4   6
HETATM    6  C   UNL     1     -10.023  19.126  68.086  1.00  0.00    -0.388 C  
HETATM    7  C   UNL     1     -10.320  18.588  66.683  1.00  0.00    -0.442 C  
HETATM    8  C   UNL     1      -8.550  19.525  68.183  1.00  0.00    -0.368 C  
ENDBRANCH   4   6
ENDBRANCH   3   4
BRANCH   3   9
HETATM    9  C   UNL     1     -11.698  15.934  69.060  1.00  0.00    -0.370 C  
HETATM   10  H   UNL     1     -12.685  15.647  70.757  1.00  0.00     0.000 HD 
HETATM   11  O   UNL     1     -11.905  16.104  70.467  1.00  0.00    -0.330 OA 
BRANCH   9  12
HETATM   12  C   UNL     1     -11.788  14.459  68.663  1.00  0.00    -0.366 A  
HETATM   13  C   UNL     1     -11.815  13.966  67.335  1.00  0.00    -0.437 A  
HETATM   14  C   UNL     1     -11.881  14.832  66.145  1.00  0.00    -0.203 C  
HETATM   15  C   UNL     1     -11.734  14.330  64.913  1.00  0.00    -0.399 C  
HETATM   16  C   UNL     1     -11.532  12.884  64.696  1.00  0.00    -0.327 C  
HETATM   17  N   UNL     1     -11.617  12.082  65.796  1.00  0.00    -0.337 N  
HETATM   18  O   UNL     1     -11.312  12.433  63.578  1.00  0.00    -0.438 OA 
HETATM   19  H   UNL     1     -11.578  11.072  65.658  1.00  0.00     0.000 HD 
HETATM   20  C   UNL     1     -11.755  12.566  67.110  1.00  0.00    -0.355 A  
HETATM   21  C   UNL     1     -11.764  11.676  68.188  1.00  0.00    -0.295 A  
HETATM   22  O   UNL     1     -11.743  10.318  68.032  1.00  0.00    -0.712 OA 
HETATM   23  C   UNL     1     -11.790  12.150  69.491  1.00  0.00    -0.386 A  
HETATM   24  H   UNL     1     -11.749   9.714  68.765  1.00  0.00     0.000 HD 
HETATM   25  C   UNL     1     -11.793  13.525  69.723  1.00  0.00    -0.395 A  
ENDBRANCH   9  12
ENDBRANCH   3   9
ENDBRANCH   2   3
TORSDOF 5
ENDMDL
MODEL       13
REMARK 921   NORMALIZED FREE ENERGY PREDICTED BY IDOCK:   -6.07 KCAL/MOL
REMARK 922        TOTAL FREE ENERGY PREDICTED BY IDOCK:   -8.70 KCAL/MOL
REMARK 923 INTER-LIGAND FREE ENERGY PREDICTED BY IDOCK:   -8.39 KCAL/MOL
REMARK 924 INTRA-LIGAND FREE ENERGY PREDICTED BY IDOCK:   -0.31 KCAL/MOL
REMARK 927      BINDING AFFINITY PREDICTED BY RF-SCORE:    0.00 PKD
ROOT
HETATM    1  C   UNL     1     -12.126  11.417  70.636  1.00  0.00    -0.469 C  
HETATM    2  C   UNL     1     -12.123  12.401  69.470  1.00  0.00    -0.250 C  
ENDROOT
BRANCH   2   3
HETATM    3  C   UNL     1     -11.669  13.843  69.830  1.00  0.00    -0.291 C  
BRANCH   3   4
HETATM    4  N   UNL     1     -12.765  14.837  69.707  1.00  0.00    -0.592 NA 
HETATM    5  H   UNL     1     -13.183  15.064  68.805  1.00  0.00     0.000 HD 
BRANCH   4   6
HETATM    6  C   UNL     1     -13.218  15.476  70.950  1.00  0.00    -0.415 C  
HETATM    7  C   UNL     1     -11.978  15.835  71.776  1.00  0.00    -0.547 C  
HETATM    8  C   UNL     1     -14.151  14.594  71.779  1.00  0.00    -0.592 C  
ENDBRANCH   4   6
ENDBRANCH   3   4
BRANCH   3   9
HETATM    9  C   UNL     1     -10.427  14.272  68.966  1.00  0.00    -0.204 C  
HETATM   10  H   UNL     1      -8.761  15.320  69.212  1.00  0.00     0.000 HD 
HETATM   11  O   UNL     1      -9.511  15.060  69.734  1.00  0.00    -0.098 OA 
BRANCH   9  12
HETATM   12  C   UNL     1     -10.750  14.944  67.630  1.00  0.00    -0.270 A  
HETATM   13  C   UNL     1     -10.711  16.338  67.381  1.00  0.00    -0.287 A  
HETATM   14  C   UNL     1     -10.464  17.346  68.426  1.00  0.00    -0.384 C  
HETATM   15  C   UNL     1     -10.268  18.633  68.116  1.00  0.00    -0.423 C  
HETATM   16  C   UNL     1     -10.323  19.098  66.716  1.00  0.00    -0.421 C  
HETATM   17  N   UNL     1     -10.694  18.179  65.779  1.00  0.00    -0.248 N  
HETATM   18  O   UNL     1     -10.060  20.259  66.420  1.00  0.00    -0.439 OA 
HETATM   19  H   UNL     1     -10.833  18.499  64.820  1.00  0.00     0.000 HD 
HETATM   20  C   UNL     1     -10.894  16.815  66.057  1.00  0.00    -0.026 A  
HETATM   21  C   UNL     1     -11.204  15.926  65.023  1.00  0.00    -0.290 A  
HETATM   22  O   UNL     1     -11.426  16.331  63.736  1.00  0.00    -1.475 OA 
HETATM   23  C   UNL     1     -11.296  14.565  65.269  1.00  0.00    -0.353 A  
HETATM   24  H   UNL     1     -11.637  15.727  63.034  1.00  0.00     0.000 HD 
HETATM   25  C   UNL     1     -11.063  14.081  66.555  1.00  0.00    -0.315 A  
ENDBRANCH   9  12
ENDBRANCH   3   9
ENDBRANCH   2   3
TORSDOF 5
ENDMDL
MODEL       14
REMARK 921   NORMALIZED FREE ENERGY PREDICTED BY IDOCK:   -6.05 KCAL/MOL
REMARK 922        TOTAL FREE ENERGY PREDICTED BY IDOCK:   -8.67 KCAL/MOL
REMARK 923 INTER-LIGAND FREE ENERGY PREDICTED BY IDOCK:   -8.22 KCAL/MOL
REMARK 924 INTRA-LIGAND FREE ENERGY PREDICTED BY IDOCK:   -0.44 KCAL/MOL
REMARK 927      BINDING AFFINITY PREDICTED BY RF-SCORE:    0.00 PKD
ROOT
HETATM    1  C   UNL     1     -12.478  14.093  70.113  1.00  0.00    -0.391 C  
HETATM    2  C   UNL     1     -11.568  12.932  69.723  1.00  0.00    -0.288 C  
ENDROOT
BRANCH   2   3
HETATM    3  C   UNL     1     -12.159  11.965  68.661  1.00  0.00    -0.095 C  
BRANCH   3   4
HETATM    4  N   UNL     1     -12.370  10.593  69.188  1.00  0.00    -0.755 NA 
HETATM    5  H   UNL     1     -12.765   9.852  68.609  1.00  0.00     0.000 HD 
BRANCH   4   6
HETATM    6  C   UNL     1     -11.982  10.356  70.585  1.00  0.00    -0.351 C  
HETATM    7  C   UNL     1     -10.915   9.257  70.599  1.00  0.00    -0.336 C  
HETATM    8  C   UNL     1     -13.154   9.947  71.478  1.00  0.00    -0.516 C  
ENDBRANCH   4   6
ENDBRANCH   3   4
BRANCH   3   9
HETATM    9  C   UNL     1     -11.262  11.934  67.370  1.00  0.00    -0.305 C  
HETATM   10  H   UNL     1      -9.379  11.517  66.902  1.00  0.00     0.000 HD 
HETATM   11  O   UNL     1      -9.922  11.535  67.681  1.00  0.00    -0.180 OA 
BRANCH   9  12
HETATM   12  C   UNL     1     -11.277  13.207  66.522  1.00  0.00    -0.339 A  
HETATM   13  C   UNL     1     -10.326  14.254  66.595  1.00  0.00    -0.279 A  
HETATM   14  C   UNL     1      -9.248  14.308  67.597  1.00  0.00    -0.194 C  
HETATM   15  C   UNL     1      -8.276  15.225  67.521  1.00  0.00    -0.191 C  
HETATM   16  C   UNL     1      -8.264  16.238  66.448  1.00  0.00    -0.319 C  
HETATM   17  N   UNL     1      -9.344  16.263  65.616  1.00  0.00    -0.135 N  
HETATM   18  O   UNL     1      -7.330  17.024  66.326  1.00  0.00    -0.274 OA 
HETATM   19  H   UNL     1      -9.404  17.015  64.929  1.00  0.00     0.000 HD 
HETATM   20  C   UNL     1     -10.379  15.311  65.649  1.00  0.00    -0.366 A  
HETATM   21  C   UNL     1     -11.416  15.369  64.712  1.00  0.00    -0.336 A  
HETATM   22  O   UNL     1     -11.539  16.380  63.801  1.00  0.00    -1.605 OA 
HETATM   23  C   UNL     1     -12.381  14.375  64.669  1.00  0.00    -0.435 A  
HETATM   24  H   UNL     1     -12.243  16.420  63.164  1.00  0.00     0.000 HD 
HETATM   25  C   UNL     1     -12.306  13.303  65.557  1.00  0.00    -0.533 A  
ENDBRANCH   9  12
ENDBRANCH   3   9
ENDBRANCH   2   3
TORSDOF 5
ENDMDL
MODEL       15
REMARK 921   NORMALIZED FREE ENERGY PREDICTED BY IDOCK:   -6.03 KCAL/MOL
REMARK 922        TOTAL FREE ENERGY PREDICTED BY IDOCK:   -8.64 KCAL/MOL
REMARK 923 INTER-LIGAND FREE ENERGY PREDICTED BY IDOCK:   -7.58 KCAL/MOL
REMARK 924 INTRA-LIGAND FREE ENERGY PREDICTED BY IDOCK:   -1.06 KCAL/MOL
REMARK 927      BINDING AFFINITY PREDICTED BY RF-SCORE:    0.00 PKD
ROOT
HETATM    1  C   UNL     1     -10.334   9.672  70.370  1.00  0.00    -0.350 C  
HETATM    2  C   UNL     1     -11.371  10.526  69.647  1.00  0.00    -0.345 C  
ENDROOT
BRANCH   2   3
HETATM    3  C   UNL     1     -10.801  11.442  68.529  1.00  0.00    -0.211 C  
BRANCH   3   4
HETATM    4  N   UNL     1      -9.562  12.147  68.939  1.00  0.00    -0.413 NA 
HETATM    5  H   UNL     1      -9.532  12.738  69.770  1.00  0.00     0.000 HD 
BRANCH   4   6
HETATM    6  C   UNL     1      -8.379  11.951  68.091  1.00  0.00    -0.161 C  
HETATM    7  C   UNL     1      -7.561  13.247  68.113  1.00  0.00    -0.141 C  
HETATM    8  C   UNL     1      -8.723  11.585  66.647  1.00  0.00    -0.182 C  
ENDBRANCH   4   6
ENDBRANCH   3   4
BRANCH   3   9
HETATM    9  C   UNL     1     -11.888  12.466  68.035  1.00  0.00    -0.316 C  
HETATM   10  H   UNL     1     -12.809  12.924  66.338  1.00  0.00     0.000 HD 
HETATM   11  O   UNL     1     -12.152  12.306  66.637  1.00  0.00    -0.612 OA 
BRANCH   9  12
HETATM   12  C   UNL     1     -11.623  13.932  68.383  1.00  0.00    -0.368 A  
HETATM   13  C   UNL     1     -11.902  14.543  69.631  1.00  0.00    -0.367 A  
HETATM   14  C   UNL     1     -12.604  13.864  70.733  1.00  0.00    -0.424 C  
HETATM   15  C   UNL     1     -12.694  14.421  71.946  1.00  0.00    -0.426 C  
HETATM   16  C   UNL     1     -12.121  15.754  72.219  1.00  0.00    -0.478 C  
HETATM   17  N   UNL     1     -11.603  16.428  71.152  1.00  0.00    -0.605 N  
HETATM   18  O   UNL     1     -12.127  16.230  73.349  1.00  0.00    -0.485 OA 
HETATM   19  H   UNL     1     -11.290  17.388  71.297  1.00  0.00     0.000 HD 
HETATM   20  C   UNL     1     -11.474  15.876  69.865  1.00  0.00    -0.344 A  
HETATM   21  C   UNL     1     -10.866  16.612  68.843  1.00  0.00    -0.321 A  
HETATM   22  O   UNL     1     -10.465  17.910  69.000  1.00  0.00    -0.415 OA 
HETATM   23  C   UNL     1     -10.637  16.038  67.603  1.00  0.00    -0.309 A  
HETATM   24  H   UNL     1     -10.052  18.410  68.305  1.00  0.00     0.000 HD 
HETATM   25  C   UNL     1     -11.004  14.712  67.380  1.00  0.00    -0.309 A  
ENDBRANCH   9  12
ENDBRANCH   3   9
ENDBRANCH   2   3
TORSDOF 5
ENDMDL
MODEL       16
REMARK 921   NORMALIZED FREE ENERGY PREDICTED BY IDOCK:   -6.00 KCAL/MOL
REMARK 922        TOTAL FREE ENERGY PREDICTED BY IDOCK:   -8.60 KCAL/MOL
REMARK 923 INTER-LIGAND FREE ENERGY PREDICTED BY IDOCK:   -7.81 KCAL/MOL
REMARK 924 INTRA-LIGAND FREE ENERGY PREDICTED BY IDOCK:   -0.79 KCAL/MOL
REMARK 927      BINDING AFFINITY PREDICTED BY RF-SCORE:    0.00 PKD
ROOT
HETATM    1  C   UNL     1      -9.748   8.206  72.513  1.00  0.00    -0.357 C  
HETATM    2  C   UNL     1      -9.737   8.990  71.204  1.00  0.00    -0.369 C  
ENDROOT
BRANCH   2   3
HETATM    3  C   UNL     1     -11.134   9.437  70.695  1.00  0.00    -0.289 C  
BRANCH   3   4
HETATM    4  N   UNL     1     -12.140   8.346  70.746  1.00  0.00    -0.485 NA 
HETATM    5  H   UNL     1     -11.918   7.399  70.440  1.00  0.00     0.000 HD 
BRANCH   4   6
HETATM    6  C   UNL     1     -13.470   8.698  71.260  1.00  0.00    -0.141 C  
HETATM    7  C   UNL     1     -13.281   9.645  72.450  1.00  0.00    -0.413 C  
HETATM    8  C   UNL     1     -14.292   7.484  71.694  1.00  0.00    -0.621 C  
ENDBRANCH   4   6
ENDBRANCH   3   4
BRANCH   3   9
HETATM    9  C   UNL     1     -11.037  10.038  69.245  1.00  0.00    -0.206 C  
HETATM   10  H   UNL     1      -9.704  10.123  67.778  1.00  0.00     0.000 HD 
HETATM   11  O   UNL     1      -9.763   9.760  68.654  1.00  0.00    -0.150 OA 
BRANCH   9  12
HETATM   12  C   UNL     1     -11.395  11.520  69.117  1.00  0.00    -0.351 A  
HETATM   13  C   UNL     1     -11.597  12.214  67.899  1.00  0.00    -0.413 A  
HETATM   14  C   UNL     1     -11.368  11.616  66.573  1.00  0.00    -0.331 C  
HETATM   15  C   UNL     1     -11.733  12.252  65.453  1.00  0.00    -0.424 C  
HETATM   16  C   UNL     1     -12.350  13.592  65.502  1.00  0.00    -0.482 C  
HETATM   17  N   UNL     1     -12.422  14.189  66.726  1.00  0.00    -0.553 N  
HETATM   18  O   UNL     1     -12.762  14.140  64.485  1.00  0.00    -0.656 OA 
HETATM   19  H   UNL     1     -12.754  15.153  66.772  1.00  0.00     0.000 HD 
HETATM   20  C   UNL     1     -12.065  13.554  67.929  1.00  0.00    -0.269 A  
HETATM   21  C   UNL     1     -12.236  14.214  69.149  1.00  0.00    -0.255 A  
HETATM   22  O   UNL     1     -12.651  15.514  69.239  1.00  0.00    -0.594 OA 
HETATM   23  C   UNL     1     -11.990  13.558  70.345  1.00  0.00    -0.367 A  
HETATM   24  H   UNL     1     -12.767  15.963  70.068  1.00  0.00     0.000 HD 
HETATM   25  C   UNL     1     -11.584  12.225  70.328  1.00  0.00    -0.083 A  
ENDBRANCH   9  12
ENDBRANCH   3   9
ENDBRANCH   2   3
TORSDOF 5
ENDMDL
MODEL       17
REMARK 921   NORMALIZED FREE ENERGY PREDICTED BY IDOCK:   -5.99 KCAL/MOL
REMARK 922        TOTAL FREE ENERGY PREDICTED BY IDOCK:   -8.60 KCAL/MOL
REMARK 923 INTER-LIGAND FREE ENERGY PREDICTED BY IDOCK:   -7.51 KCAL/MOL
REMARK 924 INTRA-LIGAND FREE ENERGY PREDICTED BY IDOCK:   -1.09 KCAL/MOL
REMARK 927      BINDING AFFINITY PREDICTED BY RF-SCORE:    0.00 PKD
ROOT
HETATM    1  C   UNL     1     -10.010   9.732  65.989  1.00  0.00    -0.342 C  
HETATM    2  C   UNL     1      -9.236  11.020  65.726  1.00  0.00    -0.226 C  
ENDROOT
BRANCH   2   3
HETATM    3  C   UNL     1     -10.064  12.326  65.883  1.00  0.00    -0.251 C  
BRANCH   3   4
HETATM    4  N   UNL     1     -10.151  13.105  64.623  1.00  0.00    -0.586 NA 
HETATM    5  H   UNL     1      -9.325  13.309  64.061  1.00  0.00     0.000 HD 
BRANCH   4   6
HETATM    6  C   UNL     1     -11.487  13.567  64.224  1.00  0.00    -0.383 C  
HETATM    7  C   UNL     1     -11.570  15.071  64.501  1.00  0.00    -0.346 C  
HETATM    8  C   UNL     1     -12.621  12.846  64.955  1.00  0.00    -0.525 C  
ENDBRANCH   4   6
ENDBRANCH   3   4
BRANCH   3   9
HETATM    9  C   UNL     1      -9.494  13.213  67.049  1.00  0.00    -0.242 C  
HETATM   10  H   UNL     1      -8.135  13.053  68.486  1.00  0.00     0.000 HD 
HETATM   11  O   UNL     1      -8.479  12.517  67.781  1.00  0.00    -0.149 OA 
BRANCH   9  12
HETATM   12  C   UNL     1     -10.537  13.820  67.991  1.00  0.00    -0.258 A  
HETATM   13  C   UNL     1     -11.309  13.099  68.935  1.00  0.00    -0.335 A  
HETATM   14  C   UNL     1     -11.292  11.631  69.051  1.00  0.00    -0.337 C  
HETATM   15  C   UNL     1     -11.905  11.008  70.065  1.00  0.00    -0.435 C  
HETATM   16  C   UNL     1     -12.650  11.767  71.088  1.00  0.00    -0.309 C  
HETATM   17  N   UNL     1     -12.776  13.109  70.885  1.00  0.00    -0.277 N  
HETATM   18  O   UNL     1     -13.140  11.207  72.063  1.00  0.00    -0.492 OA 
HETATM   19  H   UNL     1     -13.368  13.639  71.526  1.00  0.00     0.000 HD 
HETATM   20  C   UNL     1     -12.137  13.807  69.844  1.00  0.00    -0.348 A  
HETATM   21  C   UNL     1     -12.263  15.196  69.750  1.00  0.00    -0.289 A  
HETATM   22  O   UNL     1     -13.071  15.927  70.575  1.00  0.00    -0.714 OA 
HETATM   23  C   UNL     1     -11.551  15.904  68.794  1.00  0.00    -0.389 A  
HETATM   24  H   UNL     1     -13.157  16.871  70.510  1.00  0.00     0.000 HD 
HETATM   25  C   UNL     1     -10.692  15.223  67.932  1.00  0.00    -0.275 A  
ENDBRANCH   9  12
ENDBRANCH   3   9
ENDBRANCH   2   3
TORSDOF 5
ENDMDL
MODEL       18
REMARK 921   NORMALIZED FREE ENERGY PREDICTED BY IDOCK:   -5.99 KCAL/MOL
REMARK 922        TOTAL FREE ENERGY PREDICTED BY IDOCK:   -8.59 KCAL/MOL
REMARK 923 INTER-LIGAND FREE ENERGY PREDICTED BY IDOCK:   -7.48 KCAL/MOL
REMARK 924 INTRA-LIGAND FREE ENERGY PREDICTED BY IDOCK:   -1.11 KCAL/MOL
REMARK 927      BINDING AFFINITY PREDICTED BY RF-SCORE:    0.00 PKD
ROOT
HETATM    1  C   UNL     1     -10.013  18.629  68.808  1.00  0.00    -0.427 C  
HETATM    2  C   UNL     1     -10.291  17.187  68.396  1.00  0.00    -0.362 C  
ENDROOT
BRANCH   2   3
HETATM    3  C   UNL     1     -10.543  16.205  69.573  1.00  0.00    -0.306 C  
BRANCH   3   4
HETATM    4  N   UNL     1      -9.468  15.191  69.715  1.00  0.00    -0.465 NA 
HETATM    5  H   UNL     1      -9.496  14.480  70.446  1.00  0.00     0.000 HD 
BRANCH   4   6
HETATM    6  C   UNL     1      -8.364  15.261  68.749  1.00  0.00    -0.179 C  
HETATM    7  C   UNL     1      -8.205  13.877  68.111  1.00  0.00    -0.158 C  
HETATM    8  C   UNL     1      -7.038  15.693  69.376  1.00  0.00    -0.198 C  
ENDBRANCH   4   6
ENDBRANCH   3   4
BRANCH   3   9
HETATM    9  C   UNL     1     -11.948  15.513  69.435  1.00  0.00    -0.336 C  
HETATM   10  H   UNL     1     -13.538  15.180  70.575  1.00  0.00     0.000 HD 
HETATM   11  O   UNL     1     -12.689  15.598  70.658  1.00  0.00    -0.454 OA 
BRANCH   9  12
HETATM   12  C   UNL     1     -11.931  14.080  68.897  1.00  0.00    -0.387 A  
HETATM   13  C   UNL     1     -11.831  13.717  67.532  1.00  0.00    -0.416 A  
HETATM   14  C   UNL     1     -11.848  14.689  66.426  1.00  0.00    -0.304 C  
HETATM   15  C   UNL     1     -11.581  14.315  65.169  1.00  0.00    -0.355 C  
HETATM   16  C   UNL     1     -11.289  12.907  64.837  1.00  0.00    -0.307 C  
HETATM   17  N   UNL     1     -11.418  12.000  65.847  1.00  0.00    -0.353 N  
HETATM   18  O   UNL     1     -10.961  12.576  63.703  1.00  0.00    -0.421 OA 
HETATM   19  H   UNL     1     -11.317  11.010  65.620  1.00  0.00     0.000 HD 
HETATM   20  C   UNL     1     -11.682  12.349  67.184  1.00  0.00    -0.345 A  
HETATM   21  C   UNL     1     -11.729  11.360  68.171  1.00  0.00    -0.284 A  
HETATM   22  O   UNL     1     -11.627  10.026  67.893  1.00  0.00    -0.629 OA 
HETATM   23  C   UNL     1     -11.880  11.705  69.505  1.00  0.00    -0.414 A  
HETATM   24  H   UNL     1     -11.659   9.354  68.564  1.00  0.00     0.000 HD 
HETATM   25  C   UNL     1     -11.971  13.049  69.863  1.00  0.00    -0.381 A  
ENDBRANCH   9  12
ENDBRANCH   3   9
ENDBRANCH   2   3
TORSDOF 5
ENDMDL
MODEL       19
REMARK 921   NORMALIZED FREE ENERGY PREDICTED BY IDOCK:   -5.97 KCAL/MOL
REMARK 922        TOTAL FREE ENERGY PREDICTED BY IDOCK:   -8.57 KCAL/MOL
REMARK 923 INTER-LIGAND FREE ENERGY PREDICTED BY IDOCK:   -7.48 KCAL/MOL
REMARK 924 INTRA-LIGAND FREE ENERGY PREDICTED BY IDOCK:   -1.09 KCAL/MOL
REMARK 927      BINDING AFFINITY PREDICTED BY RF-SCORE:    0.00 PKD
ROOT
HETATM    1  C   UNL     1     -11.502  10.482  70.544  1.00  0.00    -0.433 C  
HETATM    2  C   UNL     1     -12.116  11.495  69.582  1.00  0.00    -0.363 C  
ENDROOT
BRANCH   2   3
HETATM    3  C   UNL     1     -11.102  12.215  68.651  1.00  0.00    -0.251 C  
BRANCH   3   4
HETATM    4  N   UNL     1      -9.711  11.732  68.836  1.00  0.00    -0.410 NA 
HETATM    5  H   UNL     1      -9.239  11.791  69.738  1.00  0.00     0.000 HD 
BRANCH   4   6
HETATM    6  C   UNL     1      -9.047  11.164  67.655  1.00  0.00    -0.147 C  
HETATM    7  C   UNL     1      -8.222  12.274  66.997  1.00  0.00    -0.155 C  
HETATM    8  C   UNL     1     -10.023  10.576  66.636  1.00  0.00    -0.260 C  
ENDBRANCH   4   6
ENDBRANCH   3   4
BRANCH   3   9
HETATM    9  C   UNL     1     -11.180  13.774  68.836  1.00  0.00    -0.272 C  
HETATM   10  H   UNL     1     -12.270  15.078  69.861  1.00  0.00     0.000 HD 
HETATM   11  O   UNL     1     -12.222  14.135  69.749  1.00  0.00    -0.326 OA 
BRANCH   9  12
HETATM   12  C   UNL     1     -11.269  14.591  67.545  1.00  0.00    -0.333 A  
HETATM   13  C   UNL     1     -10.914  15.955  67.410  1.00  0.00    -0.257 A  
HETATM   14  C   UNL     1     -10.518  16.810  68.541  1.00  0.00    -0.335 C  
HETATM   15  C   UNL     1     -10.030  18.041  68.344  1.00  0.00    -0.382 C  
HETATM   16  C   UNL     1      -9.899  18.601  66.984  1.00  0.00    -0.327 C  
HETATM   17  N   UNL     1     -10.403  17.853  65.962  1.00  0.00    -0.368 N  
HETATM   18  O   UNL     1      -9.374  19.693  66.794  1.00  0.00    -0.326 OA 
HETATM   19  H   UNL     1     -10.413  18.261  65.027  1.00  0.00     0.000 HD 
HETATM   20  C   UNL     1     -10.911  16.550  66.121  1.00  0.00    -0.050 A  
HETATM   21  C   UNL     1     -11.344  15.825  65.007  1.00  0.00    -0.220 A  
HETATM   22  O   UNL     1     -11.395  16.355  63.748  1.00  0.00    -1.487 OA 
HETATM   23  C   UNL     1     -11.743  14.504  65.140  1.00  0.00    -0.376 A  
HETATM   24  H   UNL     1     -11.689  15.863  62.991  1.00  0.00     0.000 HD 
HETATM   25  C   UNL     1     -11.697  13.894  66.392  1.00  0.00    -0.403 A  
ENDBRANCH   9  12
ENDBRANCH   3   9
ENDBRANCH   2   3
TORSDOF 5
ENDMDL
MODEL       20
REMARK 921   NORMALIZED FREE ENERGY PREDICTED BY IDOCK:   -5.97 KCAL/MOL
REMARK 922        TOTAL FREE ENERGY PREDICTED BY IDOCK:   -8.57 KCAL/MOL
REMARK 923 INTER-LIGAND FREE ENERGY PREDICTED BY IDOCK:   -8.16 KCAL/MOL
REMARK 924 INTRA-LIGAND FREE ENERGY PREDICTED BY IDOCK:   -0.41 KCAL/MOL
REMARK 927      BINDING AFFINITY PREDICTED BY RF-SCORE:    0.00 PKD
ROOT
HETATM    1  C   UNL     1      -9.866  20.049  66.386  1.00  0.00    -0.578 C  
HETATM    2  C   UNL     1     -10.593  18.769  65.985  1.00  0.00    -0.442 C  
ENDROOT
BRANCH   2   3
HETATM    3  C   UNL     1      -9.790  17.460  66.210  1.00  0.00    -0.279 C  
BRANCH   3   4
HETATM    4  N   UNL     1      -8.325  17.653  66.065  1.00  0.00    -0.530 NA 
HETATM    5  H   UNL     1      -7.919  18.058  65.222  1.00  0.00     0.000 HD 
BRANCH   4   6
HETATM    6  C   UNL     1      -7.489  17.232  67.198  1.00  0.00    -0.179 C  
HETATM    7  C   UNL     1      -7.372  15.705  67.158  1.00  0.00    -0.247 C  
HETATM    8  C   UNL     1      -8.041  17.670  68.554  1.00  0.00    -0.283 C  
ENDBRANCH   4   6
ENDBRANCH   3   4
BRANCH   3   9
HETATM    9  C   UNL     1     -10.299  16.318  65.257  1.00  0.00    -0.219 C  
HETATM   10  H   UNL     1     -11.648  16.101  63.818  1.00  0.00     0.000 HD 
HETATM   11  O   UNL     1     -11.340  16.790  64.394  1.00  0.00    -1.089 OA 
BRANCH   9  12
HETATM   12  C   UNL     1     -10.700  15.010  65.943  1.00  0.00    -0.337 A  
HETATM   13  C   UNL     1     -11.109  14.884  67.293  1.00  0.00    -0.336 A  
HETATM   14  C   UNL     1     -11.088  15.995  68.259  1.00  0.00    -0.351 C  
HETATM   15  C   UNL     1     -11.642  15.871  69.471  1.00  0.00    -0.337 C  
HETATM   16  C   UNL     1     -12.267  14.604  69.899  1.00  0.00    -0.316 C  
HETATM   17  N   UNL     1     -12.150  13.545  69.048  1.00  0.00    -0.330 N  
HETATM   18  O   UNL     1     -12.849  14.514  70.975  1.00  0.00    -0.318 OA 
HETATM   19  H   UNL     1     -12.488  12.635  69.364  1.00  0.00     0.000 HD 
HETATM   20  C   UNL     1     -11.591  13.633  67.761  1.00  0.00    -0.338 A  
HETATM   21  C   UNL     1     -11.574  12.513  66.925  1.00  0.00    -0.370 A  
HETATM   22  O   UNL     1     -11.992  11.276  67.330  1.00  0.00    -0.581 OA 
HETATM   23  C   UNL     1     -11.125  12.617  65.617  1.00  0.00    -0.327 A  
HETATM   24  H   UNL     1     -11.980  10.514  66.762  1.00  0.00     0.000 HD 
HETATM   25  C   UNL     1     -10.702  13.853  65.132  1.00  0.00    -0.371 A  
ENDBRANCH   9  12
ENDBRANCH   3   9
ENDBRANCH   2   3
TORSDOF 5
ENDMDL
MODEL       21
REMARK 921   NORMALIZED FREE ENERGY PREDICTED BY IDOCK:   -5.96 KCAL/MOL
REMARK 922        TOTAL FREE ENERGY PREDICTED BY IDOCK:   -8.56 KCAL/MOL
REMARK 923 INTER-LIGAND FREE ENERGY PREDICTED BY IDOCK:   -7.86 KCAL/MOL
REMARK 924 INTRA-LIGAND FREE ENERGY PREDICTED BY IDOCK:   -0.70 KCAL/MOL
REMARK 927      BINDING AFFINITY PREDICTED BY RF-SCORE:    0.00 PKD
ROOT
HETATM    1  C   UNL     1     -11.946  11.948  70.061  1.00  0.00    -0.409 C  
HETATM    2  C   UNL     1     -11.128  12.835  69.127  1.00  0.00    -0.245 C  
ENDROOT
BRANCH   2   3
HETATM    3  C   UNL     1     -10.041  12.093  68.303  1.00  0.00    -0.210 C  
BRANCH   3   4
HETATM    4  N   UNL     1      -9.237  11.155  69.126  1.00  0.00    -0.398 NA 
HETATM    5  H   UNL     1      -8.710  11.473  69.939  1.00  0.00     0.000 HD 
BRANCH   4   6
HETATM    6  C   UNL     1      -9.238   9.746  68.711  1.00  0.00    -0.143 C  
HETATM    7  C   UNL     1     -10.356   9.557  67.680  1.00  0.00    -0.299 C  
HETATM    8  C   UNL     1      -9.441   8.773  69.872  1.00  0.00    -0.174 C  
ENDBRANCH   4   6
ENDBRANCH   3   4
BRANCH   3   9
HETATM    9  C   UNL     1      -9.110  13.116  67.554  1.00  0.00    -0.205 C  
HETATM   10  H   UNL     1      -7.869  14.589  68.028  1.00  0.00     0.000 HD 
HETATM   11  O   UNL     1      -8.431  13.971  68.480  1.00  0.00    -0.160 OA 
BRANCH   9  12
HETATM   12  C   UNL     1      -9.776  13.925  66.439  1.00  0.00    -0.309 A  
HETATM   13  C   UNL     1     -10.583  13.390  65.405  1.00  0.00    -0.310 A  
HETATM   14  C   UNL     1     -10.791  11.947  65.198  1.00  0.00    -0.350 C  
HETATM   15  C   UNL     1     -11.693  11.495  64.318  1.00  0.00    -0.164 C  
HETATM   16  C   UNL     1     -12.491  12.426  63.497  1.00  0.00    -0.500 C  
HETATM   17  N   UNL     1     -12.184  13.751  63.599  1.00  0.00    -0.900 N  
HETATM   18  O   UNL     1     -13.377  12.019  62.752  1.00  0.00    -0.084 OA 
HETATM   19  H   UNL     1     -12.655  14.403  62.971  1.00  0.00     0.000 HD 
HETATM   20  C   UNL     1     -11.257  14.271  64.519  1.00  0.00    -0.322 A  
HETATM   21  C   UNL     1     -11.052  15.651  64.606  1.00  0.00    -0.373 A  
HETATM   22  O   UNL     1     -11.646  16.546  63.759  1.00  0.00    -1.617 OA 
HETATM   23  C   UNL     1     -10.222  16.180  65.583  1.00  0.00    -0.390 A  
HETATM   24  H   UNL     1     -11.507  17.483  63.818  1.00  0.00     0.000 HD 
HETATM   25  C   UNL     1      -9.600  15.326  66.493  1.00  0.00    -0.294 A  
ENDBRANCH   9  12
ENDBRANCH   3   9
ENDBRANCH   2   3
TORSDOF 5
ENDMDL
MODEL       22
REMARK 921   NORMALIZED FREE ENERGY PREDICTED BY IDOCK:   -5.96 KCAL/MOL
REMARK 922        TOTAL FREE ENERGY PREDICTED BY IDOCK:   -8.55 KCAL/MOL
REMARK 923 INTER-LIGAND FREE ENERGY PREDICTED BY IDOCK:   -7.66 KCAL/MOL
REMARK 924 INTRA-LIGAND FREE ENERGY PREDICTED BY IDOCK:   -0.90 KCAL/MOL
REMARK 927      BINDING AFFINITY PREDICTED BY RF-SCORE:    0.00 PKD
ROOT
HETATM    1  C   UNL     1      -8.666  10.245  69.142  1.00  0.00    -0.176 C  
HETATM    2  C   UNL     1      -9.826   9.837  68.238  1.00  0.00    -0.167 C  
ENDROOT
BRANCH   2   3
HETATM    3  C   UNL     1     -10.768  10.997  67.816  1.00  0.00    -0.227 C  
BRANCH   3   4
HETATM    4  N   UNL     1     -12.158  10.816  68.305  1.00  0.00    -0.807 NA 
HETATM    5  H   UNL     1     -12.852  10.299  67.766  1.00  0.00     0.000 HD 
BRANCH   4   6
HETATM    6  C   UNL     1     -12.483  11.417  69.605  1.00  0.00    -0.067 C  
HETATM    7  C   UNL     1     -11.715  12.737  69.722  1.00  0.00    -0.352 C  
HETATM    8  C   UNL     1     -12.140  10.516  70.792  1.00  0.00    -0.470 C  
ENDBRANCH   4   6
ENDBRANCH   3   4
BRANCH   3   9
HETATM    9  C   UNL     1     -10.748  11.196  66.256  1.00  0.00    -0.240 C  
HETATM   10  H   UNL     1      -9.573  10.715  64.731  1.00  0.00     0.000 HD 
HETATM   11  O   UNL     1      -9.586  10.595  65.673  1.00  0.00    -0.194 OA 
BRANCH   9  12
HETATM   12  C   UNL     1     -10.929  12.635  65.769  1.00  0.00    -0.313 A  
HETATM   13  C   UNL     1     -10.109  13.733  66.128  1.00  0.00    -0.314 A  
HETATM   14  C   UNL     1      -9.029  13.652  67.126  1.00  0.00    -0.235 C  
HETATM   15  C   UNL     1      -8.174  14.666  67.308  1.00  0.00    -0.235 C  
HETATM   16  C   UNL     1      -8.301  15.919  66.537  1.00  0.00    -0.295 C  
HETATM   17  N   UNL     1      -9.389  16.030  65.723  1.00  0.00    -0.285 N  
HETATM   18  O   UNL     1      -7.470  16.815  66.640  1.00  0.00    -0.217 OA 
HETATM   19  H   UNL     1      -9.550  16.922  65.256  1.00  0.00     0.000 HD 
HETATM   20  C   UNL     1     -10.303  14.986  65.491  1.00  0.00    -0.373 A  
HETATM   21  C   UNL     1     -11.354  15.162  64.585  1.00  0.00    -0.356 A  
HETATM   22  O   UNL     1     -11.611  16.354  63.967  1.00  0.00    -1.447 OA 
HETATM   23  C   UNL     1     -12.193  14.106  64.268  1.00  0.00    -0.449 A  
HETATM   24  H   UNL     1     -12.325  16.474  63.352  1.00  0.00     0.000 HD 
HETATM   25  C   UNL     1     -11.977  12.857  64.847  1.00  0.00    -0.437 A  
ENDBRANCH   9  12
ENDBRANCH   3   9
ENDBRANCH   2   3
TORSDOF 5
ENDMDL
MODEL       23
REMARK 921   NORMALIZED FREE ENERGY PREDICTED BY IDOCK:   -5.95 KCAL/MOL
REMARK 922        TOTAL FREE ENERGY PREDICTED BY IDOCK:   -8.54 KCAL/MOL
REMARK 923 INTER-LIGAND FREE ENERGY PREDICTED BY IDOCK:   -7.59 KCAL/MOL
REMARK 924 INTRA-LIGAND FREE ENERGY PREDICTED BY IDOCK:   -0.95 KCAL/MOL
REMARK 927      BINDING AFFINITY PREDICTED BY RF-SCORE:    0.00 PKD
ROOT
HETATM    1  C   UNL     1     -10.424   7.779  67.184  1.00  0.00    -0.413 C  
HETATM    2  C   UNL     1     -10.167   9.184  67.721  1.00  0.00    -0.278 C  
ENDROOT
BRANCH   2   3
HETATM    3  C   UNL     1     -10.448  10.332  66.714  1.00  0.00    -0.214 C  
BRANCH   3   4
HETATM    4  N   UNL     1      -9.267  10.664  65.878  1.00  0.00    -0.175 NA 
HETATM    5  H   UNL     1      -8.493  11.219  66.242  1.00  0.00     0.000 HD 
BRANCH   4   6
HETATM    6  C   UNL     1      -9.269  10.154  64.500  1.00  0.00    -0.257 C  
HETATM    7  C   UNL     1      -7.818   9.872  64.098  1.00  0.00    -0.142 C  
HETATM    8  C   UNL     1      -9.902  11.120  63.498  1.00  0.00    -0.392 C  
ENDBRANCH   4   6
ENDBRANCH   3   4
BRANCH   3   9
HETATM    9  C   UNL     1     -10.983  11.611  67.456  1.00  0.00    -0.259 C  
HETATM   10  H   UNL     1     -12.468  12.079  68.686  1.00  0.00     0.000 HD 
HETATM   11  O   UNL     1     -12.145  11.307  68.237  1.00  0.00    -0.619 OA 
BRANCH   9  12
HETATM   12  C   UNL     1     -11.216  12.840  66.575  1.00  0.00    -0.349 A  
HETATM   13  C   UNL     1     -10.440  14.025  66.598  1.00  0.00    -0.272 A  
HETATM   14  C   UNL     1      -9.365  14.277  67.572  1.00  0.00    -0.199 C  
HETATM   15  C   UNL     1      -8.550  15.332  67.449  1.00  0.00    -0.197 C  
HETATM   16  C   UNL     1      -8.719  16.303  66.349  1.00  0.00    -0.319 C  
HETATM   17  N   UNL     1      -9.806  16.133  65.543  1.00  0.00    -0.238 N  
HETATM   18  O   UNL     1      -7.924  17.222  66.185  1.00  0.00    -0.383 OA 
HETATM   19  H   UNL     1      -9.998  16.846  64.839  1.00  0.00     0.000 HD 
HETATM   20  C   UNL     1     -10.678  15.032  65.626  1.00  0.00    -0.354 A  
HETATM   21  C   UNL     1     -11.729  14.899  64.714  1.00  0.00    -0.402 A  
HETATM   22  O   UNL     1     -12.027  15.851  63.779  1.00  0.00    -1.238 OA 
HETATM   23  C   UNL     1     -12.526  13.765  64.719  1.00  0.00    -0.386 A  
HETATM   24  H   UNL     1     -12.741  15.761  63.159  1.00  0.00     0.000 HD 
HETATM   25  C   UNL     1     -12.265  12.745  65.633  1.00  0.00    -0.503 A  
ENDBRANCH   9  12
ENDBRANCH   3   9
ENDBRANCH   2   3
TORSDOF 5
ENDMDL
MODEL       24
REMARK 921   NORMALIZED FREE ENERGY PREDICTED BY IDOCK:   -5.94 KCAL/MOL
REMARK 922        TOTAL FREE ENERGY PREDICTED BY IDOCK:   -8.52 KCAL/MOL
REMARK 923 INTER-LIGAND FREE ENERGY PREDICTED BY IDOCK:   -7.64 KCAL/MOL
REMARK 924 INTRA-LIGAND FREE ENERGY PREDICTED BY IDOCK:   -0.88 KCAL/MOL
REMARK 927      BINDING AFFINITY PREDICTED BY RF-SCORE:    0.00 PKD
ROOT
HETATM    1  C   UNL     1     -10.869  15.951  69.945  1.00  0.00    -0.333 C  
HETATM    2  C   UNL     1     -11.280  16.298  68.517  1.00  0.00    -0.359 C  
ENDROOT
BRANCH   2   3
HETATM    3  C   UNL     1     -10.213  17.075  67.698  1.00  0.00    -0.317 C  
BRANCH   3   4
HETATM    4  N   UNL     1     -10.767  18.279  67.029  1.00  0.00    -0.335 NA 
HETATM    5  H   UNL     1     -11.414  18.205  66.244  1.00  0.00     0.000 HD 
BRANCH   4   6
HETATM    6  C   UNL     1     -10.338  19.581  67.554  1.00  0.00    -0.444 C  
HETATM    7  C   UNL     1      -9.330  20.180  66.568  1.00  0.00    -0.473 C  
HETATM    8  C   UNL     1      -9.708  19.496  68.945  1.00  0.00    -0.497 C  
ENDBRANCH   4   6
ENDBRANCH   3   4
BRANCH   3   9
HETATM    9  C   UNL     1      -9.511  16.131  66.654  1.00  0.00    -0.247 C  
HETATM   10  H   UNL     1      -8.463  16.318  64.980  1.00  0.00     0.000 HD 
HETATM   11  O   UNL     1      -8.887  16.888  65.611  1.00  0.00    -0.472 OA 
BRANCH   9  12
HETATM   12  C   UNL     1     -10.383  15.012  66.081  1.00  0.00    -0.310 A  
HETATM   13  C   UNL     1     -10.417  13.675  66.549  1.00  0.00    -0.281 A  
HETATM   14  C   UNL     1      -9.515  13.153  67.589  1.00  0.00    -0.207 C  
HETATM   15  C   UNL     1      -9.696  11.937  68.118  1.00  0.00    -0.194 C  
HETATM   16  C   UNL     1     -10.788  11.058  67.655  1.00  0.00    -0.256 C  
HETATM   17  N   UNL     1     -11.522  11.500  66.594  1.00  0.00    -0.225 N  
HETATM   18  O   UNL     1     -11.009   9.979  68.195  1.00  0.00    -0.255 OA 
HETATM   19  H   UNL     1     -12.218  10.869  66.194  1.00  0.00     0.000 HD 
HETATM   20  C   UNL     1     -11.377  12.775  66.018  1.00  0.00    -0.321 A  
HETATM   21  C   UNL     1     -12.220  13.175  64.977  1.00  0.00    -0.440 A  
HETATM   22  O   UNL     1     -13.140  12.342  64.403  1.00  0.00    -0.786 OA 
HETATM   23  C   UNL     1     -12.157  14.467  64.477  1.00  0.00    -0.498 A  
HETATM   24  H   UNL     1     -13.712  12.614  63.695  1.00  0.00     0.000 HD 
HETATM   25  C   UNL     1     -11.255  15.375  65.030  1.00  0.00    -0.393 A  
ENDBRANCH   9  12
ENDBRANCH   3   9
ENDBRANCH   2   3
TORSDOF 5
ENDMDL
MODEL       25
REMARK 921   NORMALIZED FREE ENERGY PREDICTED BY IDOCK:   -5.92 KCAL/MOL
REMARK 922        TOTAL FREE ENERGY PREDICTED BY IDOCK:   -8.51 KCAL/MOL
REMARK 923 INTER-LIGAND FREE ENERGY PREDICTED BY IDOCK:   -7.49 KCAL/MOL
REMARK 924 INTRA-LIGAND FREE ENERGY PREDICTED BY IDOCK:   -1.02 KCAL/MOL
REMARK 927      BINDING AFFINITY PREDICTED BY RF-SCORE:    0.00 PKD
ROOT
HETATM    1  C   UNL     1     -12.392  15.556  74.070  1.00  0.00    -0.791 C  
HETATM    2  C   UNL     1     -12.264  16.050  72.632  1.00  0.00    -0.619 C  
ENDROOT
BRANCH   2   3
HETATM    3  C   UNL     1     -11.548  15.070  71.663  1.00  0.00    -0.354 C  
BRANCH   3   4
HETATM    4  N   UNL     1     -10.420  15.704  70.935  1.00  0.00    -0.115 NA 
HETATM    5  H   UNL     1      -9.588  16.037  71.423  1.00  0.00     0.000 HD 
BRANCH   4   6
HETATM    6  C   UNL     1     -10.561  15.828  69.478  1.00  0.00    -0.272 C  
HETATM    7  C   UNL     1      -9.335  15.179  68.828  1.00  0.00    -0.200 C  
HETATM    8  C   UNL     1     -10.690  17.275  69.003  1.00  0.00    -0.158 C  
ENDBRANCH   4   6
ENDBRANCH   3   4
BRANCH   3   9
HETATM    9  C   UNL     1     -12.571  14.429  70.656  1.00  0.00    -0.357 C  
HETATM   10  H   UNL     1     -14.507  14.570  70.242  1.00  0.00     0.000 HD 
HETATM   11  O   UNL     1     -13.888  14.957  70.851  1.00  0.00    -0.314 OA 
BRANCH   9  12
HETATM   12  C   UNL     1     -12.589  12.900  70.613  1.00  0.00    -0.256 A  
HETATM   13  C   UNL     1     -12.152  12.104  69.525  1.00  0.00    -0.263 A  
HETATM   14  C   UNL     1     -11.727  12.657  68.229  1.00  0.00    -0.389 C  
HETATM   15  C   UNL     1     -11.164  11.882  67.294  1.00  0.00    -0.376 C  
HETATM   16  C   UNL     1     -10.977  10.434  67.515  1.00  0.00    -0.295 C  
HETATM   17  N   UNL     1     -11.505   9.915  68.660  1.00  0.00    -0.505 N  
HETATM   18  O   UNL     1     -10.385   9.738  66.697  1.00  0.00    -0.235 OA 
HETATM   19  H   UNL     1     -11.474   8.904  68.788  1.00  0.00     0.000 HD 
HETATM   20  C   UNL     1     -12.091  10.694  69.675  1.00  0.00    -0.240 A  
HETATM   21  C   UNL     1     -12.546  10.088  70.850  1.00  0.00    -0.332 A  
HETATM   22  O   UNL     1     -12.543   8.733  71.037  1.00  0.00    -0.469 OA 
HETATM   23  C   UNL     1     -13.024  10.857  71.899  1.00  0.00    -0.502 A  
HETATM   24  H   UNL     1     -12.852   8.322  71.835  1.00  0.00     0.000 HD 
HETATM   25  C   UNL     1     -13.036  12.246  71.783  1.00  0.00    -0.449 A  
ENDBRANCH   9  12
ENDBRANCH   3   9
ENDBRANCH   2   3
TORSDOF 5
ENDMDL
MODEL       26
REMARK 921   NORMALIZED FREE ENERGY PREDICTED BY IDOCK:   -5.92 KCAL/MOL
REMARK 922        TOTAL FREE ENERGY PREDICTED BY IDOCK:   -8.50 KCAL/MOL
REMARK 923 INTER-LIGAND FREE ENERGY PREDICTED BY IDOCK:   -8.15 KCAL/MOL
REMARK 924 INTRA-LIGAND FREE ENERGY PREDICTED BY IDOCK:   -0.34 KCAL/MOL
REMARK 927      BINDING AFFINITY PREDICTED BY RF-SCORE:    0.00 PKD
ROOT
HETATM    1  C   UNL     1      -9.230  16.695  66.186  1.00  0.00    -0.312 C  
HETATM    2  C   UNL     1     -10.559  16.347  66.850  1.00  0.00    -0.252 C  
ENDROOT
BRANCH   2   3
HETATM    3  C   UNL     1     -10.800  14.829  67.080  1.00  0.00    -0.311 C  
BRANCH   3   4
HETATM    4  N   UNL     1     -12.218  14.437  66.887  1.00  0.00    -0.545 NA 
HETATM    5  H   UNL     1     -12.944  14.711  67.548  1.00  0.00     0.000 HD 
BRANCH   4   6
HETATM    6  C   UNL     1     -12.524  13.636  65.694  1.00  0.00    -0.496 C  
HETATM    7  C   UNL     1     -11.867  12.262  65.866  1.00  0.00    -0.420 C  
HETATM    8  C   UNL     1     -12.042  14.278  64.393  1.00  0.00    -0.490 C  
ENDBRANCH   4   6
ENDBRANCH   3   4
BRANCH   3   9
HETATM    9  C   UNL     1     -10.289  14.390  68.501  1.00  0.00    -0.248 C  
HETATM   10  H   UNL     1      -9.256  12.890  69.290  1.00  0.00     0.000 HD 
HETATM   11  O   UNL     1      -9.565  13.156  68.432  1.00  0.00    -0.225 OA 
BRANCH   9  12
HETATM   12  C   UNL     1     -11.349  14.348  69.603  1.00  0.00    -0.309 A  
HETATM   13  C   UNL     1     -11.956  13.174  70.114  1.00  0.00    -0.381 A  
HETATM   14  C   UNL     1     -11.726  11.830  69.560  1.00  0.00    -0.408 C  
HETATM   15  C   UNL     1     -12.186  10.736  70.179  1.00  0.00    -0.425 C  
HETATM   16  C   UNL     1     -12.969  10.836  71.426  1.00  0.00    -0.432 C  
HETATM   17  N   UNL     1     -13.294  12.093  71.846  1.00  0.00    -0.418 N  
HETATM   18  O   UNL     1     -13.318   9.834  72.041  1.00  0.00    -0.419 OA 
HETATM   19  H   UNL     1     -13.915  12.185  72.650  1.00  0.00     0.000 HD 
HETATM   20  C   UNL     1     -12.821  13.269  71.236  1.00  0.00    -0.312 A  
HETATM   21  C   UNL     1     -13.146  14.518  71.774  1.00  0.00    -0.346 A  
HETATM   22  O   UNL     1     -13.999  14.673  72.830  1.00  0.00    -0.514 OA 
HETATM   23  C   UNL     1     -12.597  15.676  71.245  1.00  0.00    -0.523 A  
HETATM   24  H   UNL     1     -14.220  15.522  73.195  1.00  0.00     0.000 HD 
HETATM   25  C   UNL     1     -11.703  15.589  70.179  1.00  0.00    -0.367 A  
ENDBRANCH   9  12
ENDBRANCH   3   9
ENDBRANCH   2   3
TORSDOF 5
ENDMDL
MODEL       27
REMARK 921   NORMALIZED FREE ENERGY PREDICTED BY IDOCK:   -5.90 KCAL/MOL
REMARK 922        TOTAL FREE ENERGY PREDICTED BY IDOCK:   -8.48 KCAL/MOL
REMARK 923 INTER-LIGAND FREE ENERGY PREDICTED BY IDOCK:   -7.71 KCAL/MOL
REMARK 924 INTRA-LIGAND FREE ENERGY PREDICTED BY IDOCK:   -0.76 KCAL/MOL
REMARK 927      BINDING AFFINITY PREDICTED BY RF-SCORE:    0.00 PKD
ROOT
HETATM    1  C   UNL     1     -12.603  11.292  71.262  1.00  0.00    -0.487 C  
HETATM    2  C   UNL     1     -11.872  11.743  70.001  1.00  0.00    -0.422 C  
ENDROOT
BRANCH   2   3
HETATM    3  C   UNL     1     -11.558  10.612  68.984  1.00  0.00    -0.261 C  
BRANCH   3   4
HETATM    4  N   UNL     1     -11.491   9.272  69.619  1.00  0.00    -0.434 NA 
HETATM    5  H   UNL     1     -12.309   8.843  70.051  1.00  0.00     0.000 HD 
BRANCH   4   6
HETATM    6  C   UNL     1     -10.188   8.594  69.593  1.00  0.00    -0.208 C  
HETATM    7  C   UNL     1     -10.380   7.223  68.936  1.00  0.00    -0.207 C  
HETATM    8  C   UNL     1      -9.569   8.418  70.980  1.00  0.00    -0.212 C  
ENDBRANCH   4   6
ENDBRANCH   3   4
BRANCH   3   9
HETATM    9  C   UNL     1     -10.235  10.921  68.192  1.00  0.00    -0.176 C  
HETATM   10  H   UNL     1      -8.815  12.307  68.192  1.00  0.00     0.000 HD 
HETATM   11  O   UNL     1      -9.614  12.120  68.670  1.00  0.00    -0.165 OA 
BRANCH   9  12
HETATM   12  C   UNL     1     -10.362  10.934  66.668  1.00  0.00    -0.289 A  
HETATM   13  C   UNL     1     -11.092  11.885  65.913  1.00  0.00    -0.365 A  
HETATM   14  C   UNL     1     -11.933  12.933  66.516  1.00  0.00    -0.447 C  
HETATM   15  C   UNL     1     -12.465  13.910  65.771  1.00  0.00    -0.530 C  
HETATM   16  C   UNL     1     -12.256  13.956  64.310  1.00  0.00    -0.408 C  
HETATM   17  N   UNL     1     -11.597  12.901  63.752  1.00  0.00    -0.448 N  
HETATM   18  O   UNL     1     -12.670  14.895  63.638  1.00  0.00    -0.689 OA 
HETATM   19  H   UNL     1     -11.525  12.863  62.735  1.00  0.00     0.000 HD 
HETATM   20  C   UNL     1     -11.008  11.863  64.496  1.00  0.00    -0.322 A  
HETATM   21  C   UNL     1     -10.288  10.855  63.847  1.00  0.00    -0.329 A  
HETATM   22  O   UNL     1     -10.201  10.762  62.486  1.00  0.00    -0.741 OA 
HETATM   23  C   UNL     1      -9.615   9.890  64.579  1.00  0.00    -0.290 A  
HETATM   24  H   UNL     1      -9.712  10.078  62.045  1.00  0.00     0.000 HD 
HETATM   25  C   UNL     1      -9.645   9.935  65.971  1.00  0.00    -0.284 A  
ENDBRANCH   9  12
ENDBRANCH   3   9
ENDBRANCH   2   3
TORSDOF 5
ENDMDL
MODEL       28
REMARK 921   NORMALIZED FREE ENERGY PREDICTED BY IDOCK:   -5.89 KCAL/MOL
REMARK 922        TOTAL FREE ENERGY PREDICTED BY IDOCK:   -8.46 KCAL/MOL
REMARK 923 INTER-LIGAND FREE ENERGY PREDICTED BY IDOCK:   -7.47 KCAL/MOL
REMARK 924 INTRA-LIGAND FREE ENERGY PREDICTED BY IDOCK:   -0.98 KCAL/MOL
REMARK 927      BINDING AFFINITY PREDICTED BY RF-SCORE:    0.00 PKD
ROOT
HETATM    1  C   UNL     1      -9.879  19.983  66.362  1.00  0.00    -0.578 C  
HETATM    2  C   UNL     1     -10.653  18.726  65.976  1.00  0.00    -0.442 C  
ENDROOT
BRANCH   2   3
HETATM    3  C   UNL     1      -9.900  17.390  66.224  1.00  0.00    -0.279 C  
BRANCH   3   4
HETATM    4  N   UNL     1      -8.431  17.520  66.057  1.00  0.00    -0.532 NA 
HETATM    5  H   UNL     1      -8.019  17.874  65.193  1.00  0.00     0.000 HD 
BRANCH   4   6
HETATM    6  C   UNL     1      -7.599  17.114  67.197  1.00  0.00    -0.174 C  
HETATM    7  C   UNL     1      -7.532  15.584  67.213  1.00  0.00    -0.258 C  
HETATM    8  C   UNL     1      -8.125  17.620  68.541  1.00  0.00    -0.283 C  
ENDBRANCH   4   6
ENDBRANCH   3   4
BRANCH   3   9
HETATM    9  C   UNL     1     -10.467  16.248  65.304  1.00  0.00    -0.300 C  
HETATM   10  H   UNL     1     -11.816  16.060  63.861  1.00  0.00     0.000 HD 
HETATM   11  O   UNL     1     -11.473  16.750  64.417  1.00  0.00    -1.024 OA 
BRANCH   9  12
HETATM   12  C   UNL     1     -10.947  14.989  66.029  1.00  0.00    -0.334 A  
HETATM   13  C   UNL     1     -10.762  13.660  65.576  1.00  0.00    -0.296 A  
HETATM   14  C   UNL     1     -10.178  13.318  64.268  1.00  0.00    -0.221 C  
HETATM   15  C   UNL     1      -9.868  12.053  63.956  1.00  0.00    -0.237 C  
HETATM   16  C   UNL     1     -10.130  10.948  64.899  1.00  0.00    -0.312 C  
HETATM   17  N   UNL     1     -10.801  11.264  66.043  1.00  0.00    -0.248 N  
HETATM   18  O   UNL     1      -9.770   9.802  64.651  1.00  0.00    -0.268 OA 
HETATM   19  H   UNL     1     -11.078  10.503  66.664  1.00  0.00     0.000 HD 
HETATM   20  C   UNL     1     -11.132  12.579  66.419  1.00  0.00    -0.290 A  
HETATM   21  C   UNL     1     -11.759  12.822  67.645  1.00  0.00    -0.367 A  
HETATM   22  O   UNL     1     -12.169  11.821  68.481  1.00  0.00    -0.430 OA 
HETATM   23  C   UNL     1     -11.991  14.120  68.071  1.00  0.00    -0.372 A  
HETATM   24  H   UNL     1     -12.595  11.986  69.314  1.00  0.00     0.000 HD 
HETATM   25  C   UNL     1     -11.581  15.189  67.276  1.00  0.00    -0.231 A  
ENDBRANCH   9  12
ENDBRANCH   3   9
ENDBRANCH   2   3
TORSDOF 5
ENDMDL
MODEL       29
REMARK 921   NORMALIZED FREE ENERGY PREDICTED BY IDOCK:   -5.88 KCAL/MOL
REMARK 922        TOTAL FREE ENERGY PREDICTED BY IDOCK:   -8.44 KCAL/MOL
REMARK 923 INTER-LIGAND FREE ENERGY PREDICTED BY IDOCK:   -7.55 KCAL/MOL
REMARK 924 INTRA-LIGAND FREE ENERGY PREDICTED BY IDOCK:   -0.90 KCAL/MOL
REMARK 927      BINDING AFFINITY PREDICTED BY RF-SCORE:    0.00 PKD
ROOT
HETATM    1  C   UNL     1      -7.844  12.921  67.586  1.00  0.00    -0.168 C  
HETATM    2  C   UNL     1      -9.122  12.221  68.039  1.00  0.00    -0.191 C  
ENDROOT
BRANCH   2   3
HETATM    3  C   UNL     1     -10.134  11.905  66.904  1.00  0.00    -0.207 C  
BRANCH   3   4
HETATM    4  N   UNL     1      -9.577  12.157  65.551  1.00  0.00    -0.390 NA 
HETATM    5  H   UNL     1      -9.322  13.096  65.244  1.00  0.00     0.000 HD 
BRANCH   4   6
HETATM    6  C   UNL     1      -9.412  10.988  64.677  1.00  0.00    -0.234 C  
HETATM    7  C   UNL     1     -10.333  11.169  63.466  1.00  0.00    -0.446 C  
HETATM    8  C   UNL     1      -9.728   9.663  65.371  1.00  0.00    -0.365 C  
ENDBRANCH   4   6
ENDBRANCH   3   4
BRANCH   3   9
HETATM    9  C   UNL     1     -11.475  12.699  67.112  1.00  0.00    -0.346 C  
HETATM   10  H   UNL     1     -13.139  13.061  66.093  1.00  0.00     0.000 HD 
HETATM   11  O   UNL     1     -12.328  12.581  65.968  1.00  0.00    -0.615 OA 
BRANCH   9  12
HETATM   12  C   UNL     1     -11.321  14.160  67.539  1.00  0.00    -0.343 A  
HETATM   13  C   UNL     1     -11.626  14.677  68.823  1.00  0.00    -0.346 A  
HETATM   14  C   UNL     1     -12.252  13.883  69.893  1.00  0.00    -0.393 C  
HETATM   15  C   UNL     1     -12.364  14.363  71.138  1.00  0.00    -0.428 C  
HETATM   16  C   UNL     1     -11.894  15.720  71.478  1.00  0.00    -0.446 C  
HETATM   17  N   UNL     1     -11.449  16.492  70.445  1.00  0.00    -0.456 N  
HETATM   18  O   UNL     1     -11.917  16.130  72.633  1.00  0.00    -0.488 OA 
HETATM   19  H   UNL     1     -11.211  17.464  70.640  1.00  0.00     0.000 HD 
HETATM   20  C   UNL     1     -11.300  16.024  69.127  1.00  0.00    -0.352 A  
HETATM   21  C   UNL     1     -10.770  16.862  68.141  1.00  0.00    -0.375 A  
HETATM   22  O   UNL     1     -10.469  18.177  68.365  1.00  0.00    -0.359 OA 
HETATM   23  C   UNL     1     -10.518  16.377  66.867  1.00  0.00    -0.289 A  
HETATM   24  H   UNL     1     -10.110  18.746  67.695  1.00  0.00     0.000 HD 
HETATM   25  C   UNL     1     -10.783  15.040  66.574  1.00  0.00    -0.312 A  
ENDBRANCH   9  12
ENDBRANCH   3   9
ENDBRANCH   2   3
TORSDOF 5
ENDMDL
MODEL       30
REMARK 921   NORMALIZED FREE ENERGY PREDICTED BY IDOCK:   -5.88 KCAL/MOL
REMARK 922        TOTAL FREE ENERGY PREDICTED BY IDOCK:   -8.44 KCAL/MOL
REMARK 923 INTER-LIGAND FREE ENERGY PREDICTED BY IDOCK:   -7.49 KCAL/MOL
REMARK 924 INTRA-LIGAND FREE ENERGY PREDICTED BY IDOCK:   -0.95 KCAL/MOL
REMARK 927      BINDING AFFINITY PREDICTED BY RF-SCORE:    0.00 PKD
ROOT
HETATM    1  C   UNL     1      -8.207  13.204  67.558  1.00  0.00    -0.183 C  
HETATM    2  C   UNL     1      -8.836  14.107  66.500  1.00  0.00    -0.071 C  
ENDROOT
BRANCH   2   3
HETATM    3  C   UNL     1     -10.149  13.565  65.873  1.00  0.00    -0.303 C  
BRANCH   3   4
HETATM    4  N   UNL     1     -10.085  13.477  64.392  1.00  0.00    -0.717 NA 
HETATM    5  H   UNL     1      -9.684  14.226  63.828  1.00  0.00     0.000 HD 
BRANCH   4   6
HETATM    6  C   UNL     1     -10.625  12.256  63.780  1.00  0.00    -0.451 C  
HETATM    7  C   UNL     1     -12.117  12.482  63.513  1.00  0.00    -0.653 C  
HETATM    8  C   UNL     1     -10.441  11.010  64.647  1.00  0.00    -0.398 C  
ENDBRANCH   4   6
ENDBRANCH   3   4
BRANCH   3   9
HETATM    9  C   UNL     1     -11.384  14.426  66.326  1.00  0.00    -0.350 C  
HETATM   10  H   UNL     1     -12.029  16.291  66.117  1.00  0.00     0.000 HD 
HETATM   11  O   UNL     1     -11.283  15.770  65.842  1.00  0.00    -0.168 OA 
BRANCH   9  12
HETATM   12  C   UNL     1     -11.696  14.399  67.824  1.00  0.00    -0.407 A  
HETATM   13  C   UNL     1     -11.877  13.231  68.605  1.00  0.00    -0.380 A  
HETATM   14  C   UNL     1     -11.904  11.871  68.042  1.00  0.00    -0.323 C  
HETATM   15  C   UNL     1     -11.906  10.792  68.834  1.00  0.00    -0.287 C  
HETATM   16  C   UNL     1     -11.915  10.924  70.305  1.00  0.00    -0.361 C  
HETATM   17  N   UNL     1     -12.034  12.187  70.806  1.00  0.00    -0.447 N  
HETATM   18  O   UNL     1     -11.831   9.941  71.032  1.00  0.00    -0.317 OA 
HETATM   19  H   UNL     1     -12.140  12.296  71.814  1.00  0.00     0.000 HD 
HETATM   20  C   UNL     1     -12.020  13.349  70.012  1.00  0.00    -0.337 A  
HETATM   21  C   UNL     1     -12.077  14.610  70.613  1.00  0.00    -0.317 A  
HETATM   22  O   UNL     1     -12.248  14.786  71.958  1.00  0.00    -0.337 OA 
HETATM   23  C   UNL     1     -11.953  15.760  69.849  1.00  0.00    -0.346 A  
HETATM   24  H   UNL     1     -12.287  15.642  72.366  1.00  0.00     0.000 HD 
HETATM   25  C   UNL     1     -11.757  15.654  68.473  1.00  0.00    -0.339 A  
ENDBRANCH   9  12
ENDBRANCH   3   9
ENDBRANCH   2   3
TORSDOF 5
ENDMDL
MODEL       31
REMARK 921   NORMALIZED FREE ENERGY PREDICTED BY IDOCK:   -5.86 KCAL/MOL
REMARK 922        TOTAL FREE ENERGY PREDICTED BY IDOCK:   -8.42 KCAL/MOL
REMARK 923 INTER-LIGAND FREE ENERGY PREDICTED BY IDOCK:   -7.66 KCAL/MOL
REMARK 924 INTRA-LIGAND FREE ENERGY PREDICTED BY IDOCK:   -0.76 KCAL/MOL
REMARK 927      BINDING AFFINITY PREDICTED BY RF-SCORE:    0.00 PKD
ROOT
HETATM    1  C   UNL     1      -9.247  15.992  67.734  1.00  0.00    -0.205 C  
HETATM    2  C   UNL     1      -9.992  15.131  66.719  1.00  0.00    -0.246 C  
ENDROOT
BRANCH   2   3
HETATM    3  C   UNL     1     -10.044  13.616  67.056  1.00  0.00    -0.248 C  
BRANCH   3   4
HETATM    4  N   UNL     1      -9.357  12.778  66.042  1.00  0.00    -0.446 NA 
HETATM    5  H   UNL     1      -8.351  12.838  65.891  1.00  0.00     0.000 HD 
BRANCH   4   6
HETATM    6  C   UNL     1     -10.199  11.856  65.268  1.00  0.00    -0.272 C  
HETATM    7  C   UNL     1      -9.530  10.478  65.283  1.00  0.00    -0.281 C  
HETATM    8  C   UNL     1     -10.419  12.306  63.823  1.00  0.00    -0.476 C  
ENDBRANCH   4   6
ENDBRANCH   3   4
BRANCH   3   9
HETATM    9  C   UNL     1     -11.528  13.138  67.262  1.00  0.00    -0.331 C  
HETATM   10  H   UNL     1     -13.355  13.845  66.945  1.00  0.00     0.000 HD 
HETATM   11  O   UNL     1     -12.458  14.134  66.821  1.00  0.00    -0.396 OA 
BRANCH   9  12
HETATM   12  C   UNL     1     -11.876  12.641  68.667  1.00  0.00    -0.342 A  
HETATM   13  C   UNL     1     -12.213  13.464  69.770  1.00  0.00    -0.307 A  
HETATM   14  C   UNL     1     -12.157  14.935  69.736  1.00  0.00    -0.357 C  
HETATM   15  C   UNL     1     -12.646  15.671  70.741  1.00  0.00    -0.482 C  
HETATM   16  C   UNL     1     -13.231  15.036  71.938  1.00  0.00    -0.363 C  
HETATM   17  N   UNL     1     -13.144  13.677  72.016  1.00  0.00    -0.385 N  
HETATM   18  O   UNL     1     -13.756  15.706  72.821  1.00  0.00    -0.543 OA 
HETATM   19  H   UNL     1     -13.453  13.224  72.876  1.00  0.00     0.000 HD 
HETATM   20  C   UNL     1     -12.653  12.864  70.978  1.00  0.00    -0.287 A  
HETATM   21  C   UNL     1     -12.664  11.472  71.112  1.00  0.00    -0.356 A  
HETATM   22  O   UNL     1     -13.044  10.839  72.263  1.00  0.00    -0.547 OA 
HETATM   23  C   UNL     1     -12.285  10.661  70.055  1.00  0.00    -0.373 A  
HETATM   24  H   UNL     1     -13.051   9.894  72.355  1.00  0.00     0.000 HD 
HETATM   25  C   UNL     1     -11.904  11.239  68.845  1.00  0.00    -0.413 A  
ENDBRANCH   9  12
ENDBRANCH   3   9
ENDBRANCH   2   3
TORSDOF 5
ENDMDL
MODEL       32
REMARK 921   NORMALIZED FREE ENERGY PREDICTED BY IDOCK:   -5.85 KCAL/MOL
REMARK 922        TOTAL FREE ENERGY PREDICTED BY IDOCK:   -8.41 KCAL/MOL
REMARK 923 INTER-LIGAND FREE ENERGY PREDICTED BY IDOCK:   -7.47 KCAL/MOL
REMARK 924 INTRA-LIGAND FREE ENERGY PREDICTED BY IDOCK:   -0.94 KCAL/MOL
REMARK 927      BINDING AFFINITY PREDICTED BY RF-SCORE:    0.00 PKD
ROOT
HETATM    1  C   UNL     1     -10.869  19.433  67.382  1.00  0.00    -0.555 C  
HETATM    2  C   UNL     1      -9.947  18.362  67.958  1.00  0.00    -0.374 C  
ENDROOT
BRANCH   2   3
HETATM    3  C   UNL     1     -10.443  16.902  67.774  1.00  0.00    -0.340 C  
BRANCH   3   4
HETATM    4  N   UNL     1     -10.430  16.127  69.041  1.00  0.00    -0.242 NA 
HETATM    5  H   UNL     1      -9.567  15.966  69.560  1.00  0.00     0.000 HD 
BRANCH   4   6
HETATM    6  C   UNL     1     -11.721  15.606  69.508  1.00  0.00    -0.370 C  
HETATM    7  C   UNL     1     -11.864  15.959  70.992  1.00  0.00    -0.468 C  
HETATM    8  C   UNL     1     -11.866  14.095  69.323  1.00  0.00    -0.381 C  
ENDBRANCH   4   6
ENDBRANCH   3   4
BRANCH   3   9
HETATM    9  C   UNL     1      -9.612  16.164  66.661  1.00  0.00    -0.244 C  
HETATM   10  H   UNL     1      -8.513  16.655  65.083  1.00  0.00     0.000 HD 
HETATM   11  O   UNL     1      -9.015  17.100  65.756  1.00  0.00    -0.523 OA 
BRANCH   9  12
HETATM   12  C   UNL     1     -10.352  15.059  65.905  1.00  0.00    -0.329 A  
HETATM   13  C   UNL     1     -10.223  13.669  66.148  1.00  0.00    -0.306 A  
HETATM   14  C   UNL     1      -9.254  13.094  67.096  1.00  0.00    -0.227 C  
HETATM   15  C   UNL     1      -9.284  11.795  67.416  1.00  0.00    -0.174 C  
HETATM   16  C   UNL     1     -10.270  10.881  66.806  1.00  0.00    -0.231 C  
HETATM   17  N   UNL     1     -11.064  11.401  65.826  1.00  0.00    -0.210 N  
HETATM   18  O   UNL     1     -10.356   9.710  67.161  1.00  0.00    -0.228 OA 
HETATM   19  H   UNL     1     -11.684  10.766  65.324  1.00  0.00     0.000 HD 
HETATM   20  C   UNL     1     -11.077  12.761  65.469  1.00  0.00    -0.285 A  
HETATM   21  C   UNL     1     -11.973  13.224  64.500  1.00  0.00    -0.400 A  
HETATM   22  O   UNL     1     -12.794  12.393  63.790  1.00  0.00    -0.734 OA 
HETATM   23  C   UNL     1     -12.068  14.578  64.220  1.00  0.00    -0.448 A  
HETATM   24  H   UNL     1     -13.403  12.707  63.132  1.00  0.00     0.000 HD 
HETATM   25  C   UNL     1     -11.273  15.483  64.921  1.00  0.00    -0.396 A  
ENDBRANCH   9  12
ENDBRANCH   3   9
ENDBRANCH   2   3
TORSDOF 5
ENDMDL
MODEL       33
REMARK 921   NORMALIZED FREE ENERGY PREDICTED BY IDOCK:   -5.85 KCAL/MOL
REMARK 922        TOTAL FREE ENERGY PREDICTED BY IDOCK:   -8.40 KCAL/MOL
REMARK 923 INTER-LIGAND FREE ENERGY PREDICTED BY IDOCK:   -7.57 KCAL/MOL
REMARK 924 INTRA-LIGAND FREE ENERGY PREDICTED BY IDOCK:   -0.83 KCAL/MOL
REMARK 927      BINDING AFFINITY PREDICTED BY RF-SCORE:    0.00 PKD
ROOT
HETATM    1  C   UNL     1     -11.778  11.084  70.306  1.00  0.00    -0.445 C  
HETATM    2  C   UNL     1     -12.022  12.002  69.111  1.00  0.00    -0.326 C  
ENDROOT
BRANCH   2   3
HETATM    3  C   UNL     1     -11.655  13.493  69.344  1.00  0.00    -0.312 C  
BRANCH   3   4
HETATM    4  N   UNL     1     -12.845  14.344  69.597  1.00  0.00    -0.440 NA 
HETATM    5  H   UNL     1     -13.503  14.578  68.854  1.00  0.00     0.000 HD 
BRANCH   4   6
HETATM    6  C   UNL     1     -13.028  14.830  70.971  1.00  0.00    -0.363 C  
HETATM    7  C   UNL     1     -11.660  15.267  71.504  1.00  0.00    -0.456 C  
HETATM    8  C   UNL     1     -13.636  13.786  71.907  1.00  0.00    -0.514 C  
ENDBRANCH   4   6
ENDBRANCH   3   4
BRANCH   3   9
HETATM    9  C   UNL     1     -10.811  14.057  68.143  1.00  0.00    -0.248 C  
HETATM   10  H   UNL     1     -10.241  15.829  67.455  1.00  0.00     0.000 HD 
HETATM   11  O   UNL     1     -10.751  15.487  68.181  1.00  0.00    -0.265 OA 
BRANCH   9  12
HETATM   12  C   UNL     1     -11.217  13.557  66.755  1.00  0.00    -0.327 A  
HETATM   13  C   UNL     1     -10.545  12.553  66.015  1.00  0.00    -0.289 A  
HETATM   14  C   UNL     1      -9.279  11.935  66.443  1.00  0.00    -0.218 C  
HETATM   15  C   UNL     1      -8.771  10.877  65.800  1.00  0.00    -0.196 C  
HETATM   16  C   UNL     1      -9.445  10.307  64.616  1.00  0.00    -0.293 C  
HETATM   17  N   UNL     1     -10.537  10.979  64.150  1.00  0.00    -0.406 N  
HETATM   18  O   UNL     1      -9.029   9.287  64.077  1.00  0.00    -0.187 OA 
HETATM   19  H   UNL     1     -10.961  10.661  63.278  1.00  0.00     0.000 HD 
HETATM   20  C   UNL     1     -11.113  12.085  64.801  1.00  0.00    -0.317 A  
HETATM   21  C   UNL     1     -12.275  12.672  64.292  1.00  0.00    -0.445 A  
HETATM   22  O   UNL     1     -12.847  12.286  63.112  1.00  0.00    -0.746 OA 
HETATM   23  C   UNL     1     -12.910  13.691  64.985  1.00  0.00    -0.325 A  
HETATM   24  H   UNL     1     -13.637  12.686  62.766  1.00  0.00     0.000 HD 
HETATM   25  C   UNL     1     -12.391  14.120  66.206  1.00  0.00    -0.451 A  
ENDBRANCH   9  12
ENDBRANCH   3   9
ENDBRANCH   2   3
TORSDOF 5
ENDMDL
MODEL       34
REMARK 921   NORMALIZED FREE ENERGY PREDICTED BY IDOCK:   -5.81 KCAL/MOL
REMARK 922        TOTAL FREE ENERGY PREDICTED BY IDOCK:   -8.36 KCAL/MOL
REMARK 923 INTER-LIGAND FREE ENERGY PREDICTED BY IDOCK:   -8.18 KCAL/MOL
REMARK 924 INTRA-LIGAND FREE ENERGY PREDICTED BY IDOCK:   -0.18 KCAL/MOL
REMARK 927      BINDING AFFINITY PREDICTED BY RF-SCORE:    0.00 PKD
ROOT
HETATM    1  C   UNL     1     -13.807  13.706  72.316  1.00  0.00    -0.689 C  
HETATM    2  C   UNL     1     -13.445  14.645  71.169  1.00  0.00    -0.425 C  
ENDROOT
BRANCH   2   3
HETATM    3  C   UNL     1     -12.418  14.074  70.153  1.00  0.00    -0.319 C  
BRANCH   3   4
HETATM    4  N   UNL     1     -11.841  12.778  70.588  1.00  0.00    -0.492 NA 
HETATM    5  H   UNL     1     -11.179  12.719  71.362  1.00  0.00     0.000 HD 
BRANCH   4   6
HETATM    6  C   UNL     1     -12.270  11.583  69.848  1.00  0.00    -0.258 C  
HETATM    7  C   UNL     1     -12.384  10.425  70.846  1.00  0.00    -0.480 C  
HETATM    8  C   UNL     1     -11.316  11.196  68.718  1.00  0.00    -0.342 C  
ENDBRANCH   4   6
ENDBRANCH   3   4
BRANCH   3   9
HETATM    9  C   UNL     1     -11.282  15.120  69.857  1.00  0.00    -0.283 C  
HETATM   10  H   UNL     1     -10.666  16.862  70.580  1.00  0.00     0.000 HD 
HETATM   11  O   UNL     1     -11.352  16.230  70.759  1.00  0.00    -0.395 OA 
BRANCH   9  12
HETATM   12  C   UNL     1     -11.177  15.592  68.405  1.00  0.00    -0.352 A  
HETATM   13  C   UNL     1     -10.644  16.834  67.982  1.00  0.00    -0.347 A  
HETATM   14  C   UNL     1     -10.221  17.898  68.909  1.00  0.00    -0.331 C  
HETATM   15  C   UNL     1      -9.568  18.981  68.471  1.00  0.00    -0.442 C  
HETATM   16  C   UNL     1      -9.274  19.167  67.036  1.00  0.00    -0.296 C  
HETATM   17  N   UNL     1      -9.798  18.244  66.179  1.00  0.00    -0.299 N  
HETATM   18  O   UNL     1      -8.603  20.114  66.642  1.00  0.00    -0.314 OA 
HETATM   19  H   UNL     1      -9.691  18.405  65.177  1.00  0.00     0.000 HD 
HETATM   20  C   UNL     1     -10.476  17.085  66.595  1.00  0.00    -0.253 A  
HETATM   21  C   UNL     1     -10.920  16.154  65.651  1.00  0.00    -0.140 A  
HETATM   22  O   UNL     1     -10.817  16.355  64.303  1.00  0.00    -1.042 OA 
HETATM   23  C   UNL     1     -11.492  14.958  66.057  1.00  0.00    -0.275 A  
HETATM   24  H   UNL     1     -11.119  15.723  63.662  1.00  0.00     0.000 HD 
HETATM   25  C   UNL     1     -11.610  14.679  67.418  1.00  0.00    -0.408 A  
ENDBRANCH   9  12
ENDBRANCH   3   9
ENDBRANCH   2   3
TORSDOF 5
ENDMDL
MODEL       35
REMARK 921   NORMALIZED FREE ENERGY PREDICTED BY IDOCK:   -5.81 KCAL/MOL
REMARK 922        TOTAL FREE ENERGY PREDICTED BY IDOCK:   -8.35 KCAL/MOL
REMARK 923 INTER-LIGAND FREE ENERGY PREDICTED BY IDOCK:   -7.87 KCAL/MOL
REMARK 924 INTRA-LIGAND FREE ENERGY PREDICTED BY IDOCK:   -0.49 KCAL/MOL
REMARK 927      BINDING AFFINITY PREDICTED BY RF-SCORE:    0.00 PKD
ROOT
HETATM    1  C   UNL     1     -10.409  12.690  67.549  1.00  0.00    -0.220 C  
HETATM    2  C   UNL     1     -11.193  11.382  67.501  1.00  0.00    -0.356 C  
ENDROOT
BRANCH   2   3
HETATM    3  C   UNL     1     -10.423  10.135  68.015  1.00  0.00    -0.209 C  
BRANCH   3   4
HETATM    4  N   UNL     1     -11.138   8.864  67.740  1.00  0.00    -0.445 NA 
HETATM    5  H   UNL     1     -12.007   8.625  68.218  1.00  0.00     0.000 HD 
BRANCH   4   6
HETATM    6  C   UNL     1     -10.534   7.969  66.745  1.00  0.00    -0.248 C  
HETATM    7  C   UNL     1     -10.981   6.538  67.062  1.00  0.00    -0.466 C  
HETATM    8  C   UNL     1      -9.006   8.035  66.719  1.00  0.00    -0.169 C  
ENDBRANCH   4   6
ENDBRANCH   3   4
BRANCH   3   9
HETATM    9  C   UNL     1     -10.096  10.271  69.547  1.00  0.00    -0.235 C  
HETATM   10  H   UNL     1      -8.629   9.766  70.785  1.00  0.00     0.000 HD 
HETATM   11  O   UNL     1      -8.827   9.684  69.859  1.00  0.00    -0.187 OA 
BRANCH   9  12
HETATM   12  C   UNL     1     -11.183   9.777  70.503  1.00  0.00    -0.381 A  
HETATM   13  C   UNL     1     -11.296   8.458  71.008  1.00  0.00    -0.303 A  
HETATM   14  C   UNL     1     -10.435   7.344  70.577  1.00  0.00    -0.227 C  
HETATM   15  C   UNL     1     -10.466   6.161  71.203  1.00  0.00    -0.281 C  
HETATM   16  C   UNL     1     -11.389   5.917  72.329  1.00  0.00    -0.298 C  
HETATM   17  N   UNL     1     -12.277   6.910  72.620  1.00  0.00    -0.476 N  
HETATM   18  O   UNL     1     -11.360   4.864  72.958  1.00  0.00    -0.291 OA 
HETATM   19  H   UNL     1     -12.988   6.726  73.328  1.00  0.00     0.000 HD 
HETATM   20  C   UNL     1     -12.270   8.172  72.000  1.00  0.00    -0.339 A  
HETATM   21  C   UNL     1     -13.173   9.159  72.407  1.00  0.00    -0.444 A  
HETATM   22  O   UNL     1     -14.154   8.933  73.332  1.00  0.00    -1.256 OA 
HETATM   23  C   UNL     1     -13.103  10.439  71.879  1.00  0.00    -0.563 A  
HETATM   24  H   UNL     1     -14.768   9.603  73.609  1.00  0.00     0.000 HD 
HETATM   25  C   UNL     1     -12.114  10.744  70.945  1.00  0.00    -0.475 A  
ENDBRANCH   9  12
ENDBRANCH   3   9
ENDBRANCH   2   3
TORSDOF 5
ENDMDL
MODEL       36
REMARK 921   NORMALIZED FREE ENERGY PREDICTED BY IDOCK:   -5.81 KCAL/MOL
REMARK 922        TOTAL FREE ENERGY PREDICTED BY IDOCK:   -8.35 KCAL/MOL
REMARK 923 INTER-LIGAND FREE ENERGY PREDICTED BY IDOCK:   -7.70 KCAL/MOL
REMARK 924 INTRA-LIGAND FREE ENERGY PREDICTED BY IDOCK:   -0.65 KCAL/MOL
REMARK 927      BINDING AFFINITY PREDICTED BY RF-SCORE:    0.00 PKD
ROOT
HETATM    1  C   UNL     1      -6.165  17.203  66.804  1.00  0.00    -0.244 C  
HETATM    2  C   UNL     1      -7.191  16.110  67.093  1.00  0.00    -0.255 C  
ENDROOT
BRANCH   2   3
HETATM    3  C   UNL     1      -8.622  16.397  66.561  1.00  0.00    -0.294 C  
BRANCH   3   4
HETATM    4  N   UNL     1      -8.753  17.751  65.967  1.00  0.00    -0.514 NA 
HETATM    5  H   UNL     1      -8.334  17.983  65.066  1.00  0.00     0.000 HD 
BRANCH   4   6
HETATM    6  C   UNL     1      -9.516  18.740  66.740  1.00  0.00    -0.319 C  
HETATM    7  C   UNL     1     -10.678  19.227  65.868  1.00  0.00    -0.463 C  
HETATM    8  C   UNL     1      -8.676  19.935  67.191  1.00  0.00    -0.397 C  
ENDBRANCH   4   6
ENDBRANCH   3   4
BRANCH   3   9
HETATM    9  C   UNL     1      -9.694  16.178  67.690  1.00  0.00    -0.233 C  
HETATM   10  H   UNL     1      -9.781  16.279  69.670  1.00  0.00     0.000 HD 
HETATM   11  O   UNL     1      -9.134  16.411  68.988  1.00  0.00    -0.257 OA 
BRANCH   9  12
HETATM   12  C   UNL     1     -10.443  14.844  67.643  1.00  0.00    -0.249 A  
HETATM   13  C   UNL     1     -11.172  14.351  66.533  1.00  0.00    -0.340 A  
HETATM   14  C   UNL     1     -11.405  15.124  65.302  1.00  0.00    -0.318 C  
HETATM   15  C   UNL     1     -11.950  14.557  64.219  1.00  0.00    -0.419 C  
HETATM   16  C   UNL     1     -12.370  13.142  64.227  1.00  0.00    -0.351 C  
HETATM   17  N   UNL     1     -12.279  12.483  65.418  1.00  0.00    -0.455 N  
HETATM   18  O   UNL     1     -12.790  12.597  63.213  1.00  0.00    -0.643 OA 
HETATM   19  H   UNL     1     -12.653  11.535  65.473  1.00  0.00     0.000 HD 
HETATM   20  C   UNL     1     -11.699  13.034  66.575  1.00  0.00    -0.382 A  
HETATM   21  C   UNL     1     -11.582  12.264  67.737  1.00  0.00    -0.351 A  
HETATM   22  O   UNL     1     -12.100  11.003  67.848  1.00  0.00    -0.721 OA 
HETATM   23  C   UNL     1     -10.916  12.760  68.846  1.00  0.00    -0.275 A  
HETATM   24  H   UNL     1     -12.021  10.480  68.637  1.00  0.00     0.000 HD 
HETATM   25  C   UNL     1     -10.346  14.031  68.795  1.00  0.00    -0.225 A  
ENDBRANCH   9  12
ENDBRANCH   3   9
ENDBRANCH   2   3
TORSDOF 5
ENDMDL
MODEL       37
REMARK 921   NORMALIZED FREE ENERGY PREDICTED BY IDOCK:   -5.80 KCAL/MOL
REMARK 922        TOTAL FREE ENERGY PREDICTED BY IDOCK:   -8.34 KCAL/MOL
REMARK 923 INTER-LIGAND FREE ENERGY PREDICTED BY IDOCK:   -7.23 KCAL/MOL
REMARK 924 INTRA-LIGAND FREE ENERGY PREDICTED BY IDOCK:   -1.11 KCAL/MOL
REMARK 927      BINDING AFFINITY PREDICTED BY RF-SCORE:    0.00 PKD
ROOT
HETATM    1  C   UNL     1     -10.306   8.507  67.433  1.00  0.00    -0.356 C  
HETATM    2  C   UNL     1     -10.309   9.573  68.526  1.00  0.00    -0.234 C  
ENDROOT
BRANCH   2   3
HETATM    3  C   UNL     1      -9.960  11.007  68.044  1.00  0.00    -0.173 C  
BRANCH   3   4
HETATM    4  N   UNL     1      -8.819  11.600  68.785  1.00  0.00    -0.361 NA 
HETATM    5  H   UNL     1      -8.900  11.872  69.765  1.00  0.00     0.000 HD 
BRANCH   4   6
HETATM    6  C   UNL     1      -7.566  11.777  68.038  1.00  0.00    -0.116 C  
HETATM    7  C   UNL     1      -7.396  13.272  67.747  1.00  0.00    -0.147 C  
HETATM    8  C   UNL     1      -7.526  10.990  66.728  1.00  0.00    -0.139 C  
ENDBRANCH   4   6
ENDBRANCH   3   4
BRANCH   3   9
HETATM    9  C   UNL     1     -11.220  11.945  68.116  1.00  0.00    -0.258 C  
HETATM   10  H   UNL     1     -13.132  11.797  68.624  1.00  0.00     0.000 HD 
HETATM   11  O   UNL     1     -12.370  11.230  68.580  1.00  0.00    -0.534 OA 
BRANCH   9  12
HETATM   12  C   UNL     1     -11.534  12.732  66.841  1.00  0.00    -0.396 A  
HETATM   13  C   UNL     1     -11.210  14.092  66.615  1.00  0.00    -0.330 A  
HETATM   14  C   UNL     1     -10.625  14.972  67.640  1.00  0.00    -0.267 C  
HETATM   15  C   UNL     1     -10.181  16.197  67.332  1.00  0.00    -0.272 C  
HETATM   16  C   UNL     1     -10.290  16.725  65.958  1.00  0.00    -0.335 C  
HETATM   17  N   UNL     1     -10.963  15.954  65.057  1.00  0.00    -0.432 N  
HETATM   18  O   UNL     1      -9.808  17.811  65.654  1.00  0.00    -0.528 OA 
HETATM   19  H   UNL     1     -11.136  16.341  64.129  1.00  0.00     0.000 HD 
HETATM   20  C   UNL     1     -11.433  14.657  65.332  1.00  0.00    -0.352 A  
HETATM   21  C   UNL     1     -12.052  13.907  64.328  1.00  0.00    -0.440 A  
HETATM   22  O   UNL     1     -12.323  14.409  63.086  1.00  0.00    -1.014 OA 
HETATM   23  C   UNL     1     -12.420  12.591  64.559  1.00  0.00    -0.539 A  
HETATM   24  H   UNL     1     -12.744  13.899  62.403  1.00  0.00     0.000 HD 
HETATM   25  C   UNL     1     -12.155  12.009  65.797  1.00  0.00    -0.011 A  
ENDBRANCH   9  12
ENDBRANCH   3   9
ENDBRANCH   2   3
TORSDOF 5
ENDMDL
MODEL       38
REMARK 921   NORMALIZED FREE ENERGY PREDICTED BY IDOCK:   -5.79 KCAL/MOL
REMARK 922        TOTAL FREE ENERGY PREDICTED BY IDOCK:   -8.33 KCAL/MOL
REMARK 923 INTER-LIGAND FREE ENERGY PREDICTED BY IDOCK:   -7.44 KCAL/MOL
REMARK 924 INTRA-LIGAND FREE ENERGY PREDICTED BY IDOCK:   -0.88 KCAL/MOL
REMARK 927      BINDING AFFINITY PREDICTED BY RF-SCORE:    0.00 PKD
ROOT
HETATM    1  C   UNL     1     -10.162  11.729  63.448  1.00  0.00    -0.482 C  
HETATM    2  C   UNL     1     -10.651  12.917  64.271  1.00  0.00    -0.430 C  
ENDROOT
BRANCH   2   3
HETATM    3  C   UNL     1     -10.790  12.647  65.794  1.00  0.00    -0.274 C  
BRANCH   3   4
HETATM    4  N   UNL     1     -10.857  11.199  66.117  1.00  0.00    -0.227 NA 
HETATM    5  H   UNL     1     -11.433  10.556  65.574  1.00  0.00     0.000 HD 
BRANCH   4   6
HETATM    6  C   UNL     1     -10.051  10.739  67.256  1.00  0.00    -0.196 C  
HETATM    7  C   UNL     1     -11.010  10.347  68.385  1.00  0.00    -0.312 C  
HETATM    8  C   UNL     1      -9.063  11.790  67.762  1.00  0.00    -0.178 C  
ENDBRANCH   4   6
ENDBRANCH   3   4
BRANCH   3   9
HETATM    9  C   UNL     1     -12.032  13.408  66.388  1.00  0.00    -0.406 C  
HETATM   10  H   UNL     1     -13.468  14.609  65.730  1.00  0.00     0.000 HD 
HETATM   11  O   UNL     1     -12.718  14.149  65.372  1.00  0.00    -0.545 OA 
BRANCH   9  12
HETATM   12  C   UNL     1     -11.751  14.279  67.614  1.00  0.00    -0.421 A  
HETATM   13  C   UNL     1     -11.177  15.574  67.587  1.00  0.00    -0.291 A  
HETATM   14  C   UNL     1     -10.659  16.211  66.365  1.00  0.00    -0.269 C  
HETATM   15  C   UNL     1     -10.283  17.495  66.358  1.00  0.00    -0.354 C  
HETATM   16  C   UNL     1     -10.342  18.315  67.584  1.00  0.00    -0.396 C  
HETATM   17  N   UNL     1     -10.688  17.671  68.736  1.00  0.00    -0.321 N  
HETATM   18  O   UNL     1     -10.080  19.513  67.562  1.00  0.00    -0.356 OA 
HETATM   19  H   UNL     1     -10.641  18.194  69.611  1.00  0.00     0.000 HD 
HETATM   20  C   UNL     1     -11.104  16.329  68.787  1.00  0.00    -0.355 A  
HETATM   21  C   UNL     1     -11.509  15.765  70.001  1.00  0.00    -0.356 A  
HETATM   22  O   UNL     1     -11.429  16.431  71.192  1.00  0.00    -0.536 OA 
HETATM   23  C   UNL     1     -12.023  14.479  70.043  1.00  0.00    -0.388 A  
HETATM   24  H   UNL     1     -11.704  16.048  72.017  1.00  0.00     0.000 HD 
HETATM   25  C   UNL     1     -12.150  13.750  68.862  1.00  0.00    -0.348 A  
ENDBRANCH   9  12
ENDBRANCH   3   9
ENDBRANCH   2   3
TORSDOF 5
ENDMDL
MODEL       39
REMARK 921   NORMALIZED FREE ENERGY PREDICTED BY IDOCK:   -5.77 KCAL/MOL
REMARK 922        TOTAL FREE ENERGY PREDICTED BY IDOCK:   -8.31 KCAL/MOL
REMARK 923 INTER-LIGAND FREE ENERGY PREDICTED BY IDOCK:   -7.33 KCAL/MOL
REMARK 924 INTRA-LIGAND FREE ENERGY PREDICTED BY IDOCK:   -0.99 KCAL/MOL
REMARK 927      BINDING AFFINITY PREDICTED BY RF-SCORE:    0.00 PKD
ROOT
HETATM    1  C   UNL     1      -8.684  11.126  65.761  1.00  0.00    -0.153 C  
HETATM    2  C   UNL     1     -10.120  10.659  65.982  1.00  0.00    -0.308 C  
ENDROOT
BRANCH   2   3
HETATM    3  C   UNL     1     -10.836  11.295  67.204  1.00  0.00    -0.270 C  
BRANCH   3   4
HETATM    4  N   UNL     1     -11.463  10.285  68.093  1.00  0.00    -0.633 NA 
HETATM    5  H   UNL     1     -12.375   9.879  67.882  1.00  0.00     0.000 HD 
BRANCH   4   6
HETATM    6  C   UNL     1     -10.706   9.898  69.290  1.00  0.00    -0.224 C  
HETATM    7  C   UNL     1     -11.475  10.395  70.518  1.00  0.00    -0.431 C  
HETATM    8  C   UNL     1      -9.283  10.457  69.314  1.00  0.00    -0.198 C  
ENDBRANCH   4   6
ENDBRANCH   3   4
BRANCH   3   9
HETATM    9  C   UNL     1     -11.893  12.363  66.742  1.00  0.00    -0.315 C  
HETATM   10  H   UNL     1     -12.872  12.835  65.081  1.00  0.00     0.000 HD 
HETATM   11  O   UNL     1     -12.233  12.190  65.361  1.00  0.00    -0.515 OA 
BRANCH   9  12
HETATM   12  C   UNL     1     -11.539  13.821  67.045  1.00  0.00    -0.391 A  
HETATM   13  C   UNL     1     -11.698  14.460  68.299  1.00  0.00    -0.376 A  
HETATM   14  C   UNL     1     -12.345  13.827  69.461  1.00  0.00    -0.258 C  
HETATM   15  C   UNL     1     -12.320  14.404  70.669  1.00  0.00    -0.422 C  
HETATM   16  C   UNL     1     -11.671  15.714  70.876  1.00  0.00    -0.387 C  
HETATM   17  N   UNL     1     -11.204  16.349  69.763  1.00  0.00    -0.352 N  
HETATM   18  O   UNL     1     -11.572  16.204  71.996  1.00  0.00    -0.455 OA 
HETATM   19  H   UNL     1     -10.840  17.297  69.869  1.00  0.00     0.000 HD 
HETATM   20  C   UNL     1     -11.196  15.775  68.479  1.00  0.00    -0.354 A  
HETATM   21  C   UNL     1     -10.633  16.470  67.404  1.00  0.00    -0.300 A  
HETATM   22  O   UNL     1     -10.165  17.750  67.509  1.00  0.00    -0.325 OA 
HETATM   23  C   UNL     1     -10.522  15.869  66.160  1.00  0.00    -0.336 A  
HETATM   24  H   UNL     1      -9.783  18.222  66.778  1.00  0.00     0.000 HD 
HETATM   25  C   UNL     1     -10.962  14.558  65.987  1.00  0.00    -0.324 A  
ENDBRANCH   9  12
ENDBRANCH   3   9
ENDBRANCH   2   3
TORSDOF 5
ENDMDL
MODEL       40
REMARK 921   NORMALIZED FREE ENERGY PREDICTED BY IDOCK:   -5.77 KCAL/MOL
REMARK 922        TOTAL FREE ENERGY PREDICTED BY IDOCK:   -8.31 KCAL/MOL
REMARK 923 INTER-LIGAND FREE ENERGY PREDICTED BY IDOCK:   -7.40 KCAL/MOL
REMARK 924 INTRA-LIGAND FREE ENERGY PREDICTED BY IDOCK:   -0.91 KCAL/MOL
REMARK 927      BINDING AFFINITY PREDICTED BY RF-SCORE:    0.00 PKD
ROOT
HETATM    1  C   UNL     1     -12.530  13.915  65.703  1.00  0.00    -0.538 C  
HETATM    2  C   UNL     1     -11.228  14.709  65.648  1.00  0.00    -0.342 C  
ENDROOT
BRANCH   2   3
HETATM    3  C   UNL     1     -10.904  15.527  66.928  1.00  0.00    -0.301 C  
BRANCH   3   4
HETATM    4  N   UNL     1     -10.224  16.813  66.631  1.00  0.00    -0.301 NA 
HETATM    5  H   UNL     1      -9.417  16.860  66.009  1.00  0.00     0.000 HD 
BRANCH   4   6
HETATM    6  C   UNL     1     -10.772  18.014  67.275  1.00  0.00    -0.290 C  
HETATM    7  C   UNL     1     -10.717  19.161  66.261  1.00  0.00    -0.444 C  
HETATM    8  C   UNL     1     -10.023  18.414  68.547  1.00  0.00    -0.415 C  
ENDBRANCH   4   6
ENDBRANCH   3   4
BRANCH   3   9
HETATM    9  C   UNL     1     -10.060  14.672  67.942  1.00  0.00    -0.225 C  
HETATM   10  H   UNL     1      -8.609  13.321  67.870  1.00  0.00     0.000 HD 
HETATM   11  O   UNL     1      -9.119  13.838  67.257  1.00  0.00    -0.211 OA 
BRANCH   9  12
HETATM   12  C   UNL     1     -10.868  13.870  68.965  1.00  0.00    -0.253 A  
HETATM   13  C   UNL     1     -11.476  14.401  70.130  1.00  0.00    -0.280 A  
HETATM   14  C   UNL     1     -11.307  15.794  70.575  1.00  0.00    -0.400 C  
HETATM   15  C   UNL     1     -12.033  16.294  71.581  1.00  0.00    -0.436 C  
HETATM   16  C   UNL     1     -13.010  15.458  72.307  1.00  0.00    -0.391 C  
HETATM   17  N   UNL     1     -13.050  14.135  71.976  1.00  0.00    -0.362 N  
HETATM   18  O   UNL     1     -13.737  15.934  73.172  1.00  0.00    -0.576 OA 
HETATM   19  H   UNL     1     -13.646  13.519  72.530  1.00  0.00     0.000 HD 
HETATM   20  C   UNL     1     -12.317  13.571  70.917  1.00  0.00    -0.356 A  
HETATM   21  C   UNL     1     -12.469  12.218  70.600  1.00  0.00    -0.236 A  
HETATM   22  O   UNL     1     -13.237  11.363  71.341  1.00  0.00    -0.326 OA 
HETATM   23  C   UNL     1     -11.835  11.679  69.492  1.00  0.00    -0.414 A  
HETATM   24  H   UNL     1     -13.340  10.443  71.126  1.00  0.00     0.000 HD 
HETATM   25  C   UNL     1     -11.052  12.498  68.681  1.00  0.00    -0.305 A  
ENDBRANCH   9  12
ENDBRANCH   3   9
ENDBRANCH   2   3
TORSDOF 5
ENDMDL
MODEL       41
REMARK 921   NORMALIZED FREE ENERGY PREDICTED BY IDOCK:   -5.77 KCAL/MOL
REMARK 922        TOTAL FREE ENERGY PREDICTED BY IDOCK:   -8.31 KCAL/MOL
REMARK 923 INTER-LIGAND FREE ENERGY PREDICTED BY IDOCK:   -7.47 KCAL/MOL
REMARK 924 INTRA-LIGAND FREE ENERGY PREDICTED BY IDOCK:   -0.84 KCAL/MOL
REMARK 927      BINDING AFFINITY PREDICTED BY RF-SCORE:    0.00 PKD
ROOT
HETATM    1  C   UNL     1     -10.752  12.726  66.128  1.00  0.00    -0.297 C  
HETATM    2  C   UNL     1     -11.642  12.047  67.164  1.00  0.00    -0.387 C  
ENDROOT
BRANCH   2   3
HETATM    3  C   UNL     1     -11.198  12.241  68.639  1.00  0.00    -0.259 C  
BRANCH   3   4
HETATM    4  N   UNL     1     -10.236  13.360  68.807  1.00  0.00    -0.396 NA 
HETATM    5  H   UNL     1      -9.256  13.267  68.542  1.00  0.00     0.000 HD 
BRANCH   4   6
HETATM    6  C   UNL     1     -10.767  14.607  69.372  1.00  0.00    -0.222 C  
HETATM    7  C   UNL     1     -11.994  14.257  70.221  1.00  0.00    -0.398 C  
HETATM    8  C   UNL     1     -11.154  15.637  68.310  1.00  0.00    -0.336 C  
ENDBRANCH   4   6
ENDBRANCH   3   4
BRANCH   3   9
HETATM    9  C   UNL     1     -10.609  10.907  69.228  1.00  0.00    -0.217 C  
HETATM   10  H   UNL     1      -9.925   9.176  68.541  1.00  0.00     0.000 HD 
HETATM   11  O   UNL     1     -10.280   9.982  68.185  1.00  0.00    -0.160 OA 
BRANCH   9  12
HETATM   12  C   UNL     1     -11.448  10.237  70.318  1.00  0.00    -0.395 A  
HETATM   13  C   UNL     1     -10.989   9.235  71.208  1.00  0.00    -0.421 A  
HETATM   14  C   UNL     1      -9.656   8.616  71.121  1.00  0.00    -0.281 C  
HETATM   15  C   UNL     1      -9.206   7.800  72.082  1.00  0.00    -0.198 C  
HETATM   16  C   UNL     1     -10.041   7.464  73.252  1.00  0.00    -0.316 C  
HETATM   17  N   UNL     1     -11.322   7.932  73.245  1.00  0.00    -0.386 N  
HETATM   18  O   UNL     1      -9.600   6.787  74.174  1.00  0.00    -0.217 OA 
HETATM   19  H   UNL     1     -11.947   7.632  73.993  1.00  0.00     0.000 HD 
HETATM   20  C   UNL     1     -11.832   8.802  72.265  1.00  0.00    -0.333 A  
HETATM   21  C   UNL     1     -13.138   9.290  72.371  1.00  0.00    -0.406 A  
HETATM   22  O   UNL     1     -14.007   8.885  73.346  1.00  0.00    -1.236 OA 
HETATM   23  C   UNL     1     -13.612  10.232  71.472  1.00  0.00    -0.212 A  
HETATM   24  H   UNL     1     -14.894   9.216  73.418  1.00  0.00     0.000 HD 
HETATM   25  C   UNL     1     -12.774  10.705  70.464  1.00  0.00    -0.395 A  
ENDBRANCH   9  12
ENDBRANCH   3   9
ENDBRANCH   2   3
TORSDOF 5
ENDMDL
MODEL       42
REMARK 921   NORMALIZED FREE ENERGY PREDICTED BY IDOCK:   -5.77 KCAL/MOL
REMARK 922        TOTAL FREE ENERGY PREDICTED BY IDOCK:   -8.30 KCAL/MOL
REMARK 923 INTER-LIGAND FREE ENERGY PREDICTED BY IDOCK:   -7.91 KCAL/MOL
REMARK 924 INTRA-LIGAND FREE ENERGY PREDICTED BY IDOCK:   -0.39 KCAL/MOL
REMARK 927      BINDING AFFINITY PREDICTED BY RF-SCORE:    0.00 PKD
ROOT
HETATM    1  C   UNL     1      -9.374   8.030  66.531  1.00  0.00    -0.261 C  
HETATM    2  C   UNL     1     -10.584   8.653  67.220  1.00  0.00    -0.308 C  
ENDROOT
BRANCH   2   3
HETATM    3  C   UNL     1     -10.381  10.114  67.707  1.00  0.00    -0.210 C  
BRANCH   3   4
HETATM    4  N   UNL     1     -11.662  10.805  67.999  1.00  0.00    -0.729 NA 
HETATM    5  H   UNL     1     -12.293  11.100  67.253  1.00  0.00     0.000 HD 
BRANCH   4   6
HETATM    6  C   UNL     1     -11.976  11.044  69.413  1.00  0.00    -0.337 C  
HETATM    7  C   UNL     1     -11.884  12.552  69.671  1.00  0.00    -0.382 C  
HETATM    8  C   UNL     1     -11.047  10.301  70.374  1.00  0.00    -0.391 C  
ENDBRANCH   4   6
ENDBRANCH   3   4
BRANCH   3   9
HETATM    9  C   UNL     1      -9.527  10.936  66.674  1.00  0.00    -0.179 C  
HETATM   10  H   UNL     1      -8.040  12.250  66.716  1.00  0.00     0.000 HD 
HETATM   11  O   UNL     1      -8.557  11.753  67.340  1.00  0.00    -0.148 OA 
BRANCH   9  12
HETATM   12  C   UNL     1     -10.324  11.747  65.651  1.00  0.00    -0.293 A  
HETATM   13  C   UNL     1     -10.495  13.153  65.671  1.00  0.00    -0.290 A  
HETATM   14  C   UNL     1     -10.018  14.017  66.764  1.00  0.00    -0.268 C  
HETATM   15  C   UNL     1     -10.052  15.351  66.659  1.00  0.00    -0.273 C  
HETATM   16  C   UNL     1     -10.599  16.009  65.456  1.00  0.00    -0.398 C  
HETATM   17  N   UNL     1     -11.166  15.197  64.518  1.00  0.00    -0.655 N  
HETATM   18  O   UNL     1     -10.553  17.227  65.320  1.00  0.00    -0.667 OA 
HETATM   19  H   UNL     1     -11.637  15.635  63.725  1.00  0.00     0.000 HD 
HETATM   20  C   UNL     1     -11.140  13.792  64.580  1.00  0.00    -0.380 A  
HETATM   21  C   UNL     1     -11.685  13.034  63.539  1.00  0.00    -0.471 A  
HETATM   22  O   UNL     1     -12.346  13.591  62.480  1.00  0.00    -0.609 OA 
HETATM   23  C   UNL     1     -11.567  11.653  63.539  1.00  0.00    -0.408 A  
HETATM   24  H   UNL     1     -12.717  13.076  61.773  1.00  0.00     0.000 HD 
HETATM   25  C   UNL     1     -10.887  11.020  64.578  1.00  0.00    -0.257 A  
ENDBRANCH   9  12
ENDBRANCH   3   9
ENDBRANCH   2   3
TORSDOF 5
ENDMDL
MODEL       43
REMARK 921   NORMALIZED FREE ENERGY PREDICTED BY IDOCK:   -5.76 KCAL/MOL
REMARK 922        TOTAL FREE ENERGY PREDICTED BY IDOCK:   -8.30 KCAL/MOL
REMARK 923 INTER-LIGAND FREE ENERGY PREDICTED BY IDOCK:   -7.32 KCAL/MOL
REMARK 924 INTRA-LIGAND FREE ENERGY PREDICTED BY IDOCK:   -0.97 KCAL/MOL
REMARK 927      BINDING AFFINITY PREDICTED BY RF-SCORE:    0.00 PKD
ROOT
HETATM    1  C   UNL     1     -10.906  10.614  67.116  1.00  0.00    -0.328 C  
HETATM    2  C   UNL     1      -9.897  11.371  66.258  1.00  0.00    -0.250 C  
ENDROOT
BRANCH   2   3
HETATM    3  C   UNL     1     -10.184  12.889  66.093  1.00  0.00    -0.278 C  
BRANCH   3   4
HETATM    4  N   UNL     1     -10.333  13.294  64.673  1.00  0.00    -0.502 NA 
HETATM    5  H   UNL     1      -9.523  13.485  64.083  1.00  0.00     0.000 HD 
BRANCH   4   6
HETATM    6  C   UNL     1     -11.704  13.407  64.159  1.00  0.00    -0.419 C  
HETATM    7  C   UNL     1     -12.604  13.868  65.310  1.00  0.00    -0.508 C  
HETATM    8  C   UNL     1     -12.243  12.099  63.578  1.00  0.00    -0.670 C  
ENDBRANCH   4   6
ENDBRANCH   3   4
BRANCH   3   9
HETATM    9  C   UNL     1      -9.078  13.749  66.806  1.00  0.00    -0.221 C  
HETATM   10  H   UNL     1      -7.680  13.487  68.189  1.00  0.00     0.000 HD 
HETATM   11  O   UNL     1      -8.348  12.967  67.758  1.00  0.00    -0.149 OA 
BRANCH   9  12
HETATM   12  C   UNL     1      -9.556  15.066  67.422  1.00  0.00    -0.205 A  
HETATM   13  C   UNL     1     -10.527  15.188  68.447  1.00  0.00    -0.233 A  
HETATM   14  C   UNL     1     -11.299  14.052  68.978  1.00  0.00    -0.319 C  
HETATM   15  C   UNL     1     -12.078  14.188  70.058  1.00  0.00    -0.409 C  
HETATM   16  C   UNL     1     -12.219  15.490  70.740  1.00  0.00    -0.403 C  
HETATM   17  N   UNL     1     -11.611  16.559  70.150  1.00  0.00    -0.337 N  
HETATM   18  O   UNL     1     -12.863  15.598  71.778  1.00  0.00    -0.407 OA 
HETATM   19  H   UNL     1     -11.775  17.484  70.548  1.00  0.00     0.000 HD 
HETATM   20  C   UNL     1     -10.772  16.461  69.025  1.00  0.00    -0.322 A  
HETATM   21  C   UNL     1     -10.132  17.599  68.526  1.00  0.00    -0.375 A  
HETATM   22  O   UNL     1     -10.355  18.854  69.019  1.00  0.00    -0.506 OA 
HETATM   23  C   UNL     1      -9.220  17.494  67.487  1.00  0.00    -0.242 A  
HETATM   24  H   UNL     1      -9.920  19.627  68.680  1.00  0.00     0.000 HD 
HETATM   25  C   UNL     1      -8.931  16.241  66.949  1.00  0.00    -0.242 A  
ENDBRANCH   9  12
ENDBRANCH   3   9
ENDBRANCH   2   3
TORSDOF 5
ENDMDL
MODEL       44
REMARK 921   NORMALIZED FREE ENERGY PREDICTED BY IDOCK:   -5.76 KCAL/MOL
REMARK 922        TOTAL FREE ENERGY PREDICTED BY IDOCK:   -8.29 KCAL/MOL
REMARK 923 INTER-LIGAND FREE ENERGY PREDICTED BY IDOCK:   -7.59 KCAL/MOL
REMARK 924 INTRA-LIGAND FREE ENERGY PREDICTED BY IDOCK:   -0.71 KCAL/MOL
REMARK 927      BINDING AFFINITY PREDICTED BY RF-SCORE:    0.00 PKD
ROOT
HETATM    1  C   UNL     1     -11.742  12.792  65.649  1.00  0.00    -0.443 C  
HETATM    2  C   UNL     1     -10.612  13.573  66.314  1.00  0.00    -0.288 C  
ENDROOT
BRANCH   2   3
HETATM    3  C   UNL     1     -11.070  14.776  67.184  1.00  0.00    -0.333 C  
BRANCH   3   4
HETATM    4  N   UNL     1     -10.843  16.084  66.520  1.00  0.00    -0.230 NA 
HETATM    5  H   UNL     1     -11.290  16.320  65.634  1.00  0.00     0.000 HD 
BRANCH   4   6
HETATM    6  C   UNL     1      -9.942  17.023  67.202  1.00  0.00    -0.281 C  
HETATM    7  C   UNL     1     -10.538  18.428  67.074  1.00  0.00    -0.400 C  
HETATM    8  C   UNL     1      -8.520  17.014  66.641  1.00  0.00    -0.283 C  
ENDBRANCH   4   6
ENDBRANCH   3   4
BRANCH   3   9
HETATM    9  C   UNL     1     -10.381  14.741  68.597  1.00  0.00    -0.245 C  
HETATM   10  H   UNL     1      -8.962  13.698  69.512  1.00  0.00     0.000 HD 
HETATM   11  O   UNL     1      -9.379  13.719  68.658  1.00  0.00    -0.176 OA 
BRANCH   9  12
HETATM   12  C   UNL     1     -11.329  14.658  69.795  1.00  0.00    -0.315 A  
HETATM   13  C   UNL     1     -11.974  13.483  70.253  1.00  0.00    -0.386 A  
HETATM   14  C   UNL     1     -11.906  12.190  69.551  1.00  0.00    -0.386 C  
HETATM   15  C   UNL     1     -12.388  11.072  70.108  1.00  0.00    -0.389 C  
HETATM   16  C   UNL     1     -13.035  11.098  71.434  1.00  0.00    -0.403 C  
HETATM   17  N   UNL     1     -13.217  12.324  72.004  1.00  0.00    -0.474 N  
HETATM   18  O   UNL     1     -13.401  10.064  71.983  1.00  0.00    -0.429 OA 
HETATM   19  H   UNL     1     -13.749  12.375  72.873  1.00  0.00     0.000 HD 
HETATM   20  C   UNL     1     -12.715  13.521  71.463  1.00  0.00    -0.322 A  
HETATM   21  C   UNL     1     -12.886  14.727  72.148  1.00  0.00    -0.331 A  
HETATM   22  O   UNL     1     -13.617  14.831  73.299  1.00  0.00    -0.545 OA 
HETATM   23  C   UNL     1     -12.301  15.893  71.678  1.00  0.00    -0.519 A  
HETATM   24  H   UNL     1     -13.734  15.651  73.765  1.00  0.00     0.000 HD 
HETATM   25  C   UNL     1     -11.526  15.855  70.521  1.00  0.00    -0.412 A  
ENDBRANCH   9  12
ENDBRANCH   3   9
ENDBRANCH   2   3
TORSDOF 5
ENDMDL
MODEL       45
REMARK 921   NORMALIZED FREE ENERGY PREDICTED BY IDOCK:   -5.75 KCAL/MOL
REMARK 922        TOTAL FREE ENERGY PREDICTED BY IDOCK:   -8.28 KCAL/MOL
REMARK 923 INTER-LIGAND FREE ENERGY PREDICTED BY IDOCK:   -7.77 KCAL/MOL
REMARK 924 INTRA-LIGAND FREE ENERGY PREDICTED BY IDOCK:   -0.50 KCAL/MOL
REMARK 927      BINDING AFFINITY PREDICTED BY RF-SCORE:    0.00 PKD
ROOT
HETATM    1  C   UNL     1      -8.639  10.357  69.383  1.00  0.00    -0.143 C  
HETATM    2  C   UNL     1     -10.091  10.098  68.993  1.00  0.00    -0.216 C  
ENDROOT
BRANCH   2   3
HETATM    3  C   UNL     1     -11.124  10.304  70.136  1.00  0.00    -0.319 C  
BRANCH   3   4
HETATM    4  N   UNL     1     -11.688   9.025  70.636  1.00  0.00    -0.414 NA 
HETATM    5  H   UNL     1     -11.826   8.224  70.021  1.00  0.00     0.000 HD 
BRANCH   4   6
HETATM    6  C   UNL     1     -12.037   8.972  72.062  1.00  0.00    -0.370 C  
HETATM    7  C   UNL     1     -11.314   7.771  72.682  1.00  0.00    -0.449 C  
HETATM    8  C   UNL     1     -13.541   8.853  72.314  1.00  0.00    -0.513 C  
ENDBRANCH   4   6
ENDBRANCH   3   4
BRANCH   3   9
HETATM    9  C   UNL     1     -12.270  11.281  69.686  1.00  0.00    -0.271 C  
HETATM   10  H   UNL     1     -12.884  12.151  68.011  1.00  0.00     0.000 HD 
HETATM   11  O   UNL     1     -12.191  11.560  68.283  1.00  0.00    -0.561 OA 
BRANCH   9  12
HETATM   12  C   UNL     1     -12.399  12.570  70.500  1.00  0.00    -0.345 A  
HETATM   13  C   UNL     1     -11.808  13.814  70.167  1.00  0.00    -0.360 A  
HETATM   14  C   UNL     1     -10.880  14.000  69.039  1.00  0.00    -0.268 C  
HETATM   15  C   UNL     1     -10.482  15.221  68.663  1.00  0.00    -0.235 C  
HETATM   16  C   UNL     1     -10.932  16.428  69.384  1.00  0.00    -0.325 C  
HETATM   17  N   UNL     1     -11.674  16.227  70.511  1.00  0.00    -0.479 N  
HETATM   18  O   UNL     1     -10.638  17.551  68.990  1.00  0.00    -0.306 OA 
HETATM   19  H   UNL     1     -11.914  17.039  71.079  1.00  0.00     0.000 HD 
HETATM   20  C   UNL     1     -12.127  14.965  70.935  1.00  0.00    -0.317 A  
HETATM   21  C   UNL     1     -12.943  14.855  72.065  1.00  0.00    -0.333 A  
HETATM   22  O   UNL     1     -13.257  15.921  72.861  1.00  0.00    -0.483 OA 
HETATM   23  C   UNL     1     -13.484  13.631  72.427  1.00  0.00    -0.685 A  
HETATM   24  H   UNL     1     -13.811  15.847  73.629  1.00  0.00     0.000 HD 
HETATM   25  C   UNL     1     -13.221  12.506  71.648  1.00  0.00    -0.381 A  
ENDBRANCH   9  12
ENDBRANCH   3   9
ENDBRANCH   2   3
TORSDOF 5
ENDMDL
MODEL       46
REMARK 921   NORMALIZED FREE ENERGY PREDICTED BY IDOCK:   -5.74 KCAL/MOL
REMARK 922        TOTAL FREE ENERGY PREDICTED BY IDOCK:   -8.27 KCAL/MOL
REMARK 923 INTER-LIGAND FREE ENERGY PREDICTED BY IDOCK:   -8.00 KCAL/MOL
REMARK 924 INTRA-LIGAND FREE ENERGY PREDICTED BY IDOCK:   -0.27 KCAL/MOL
REMARK 927      BINDING AFFINITY PREDICTED BY RF-SCORE:    0.00 PKD
ROOT
HETATM    1  C   UNL     1     -12.183  15.106  73.743  1.00  0.00    -0.678 C  
HETATM    2  C   UNL     1     -12.265  16.141  72.625  1.00  0.00    -0.625 C  
ENDROOT
BRANCH   2   3
HETATM    3  C   UNL     1     -11.649  15.694  71.271  1.00  0.00    -0.428 C  
BRANCH   3   4
HETATM    4  N   UNL     1     -10.935  16.794  70.574  1.00  0.00    -0.268 NA 
HETATM    5  H   UNL     1     -10.813  17.710  71.005  1.00  0.00     0.000 HD 
BRANCH   4   6
HETATM    6  C   UNL     1     -10.411  16.496  69.235  1.00  0.00    -0.326 C  
HETATM    7  C   UNL     1      -9.088  15.742  69.401  1.00  0.00    -0.254 C  
HETATM    8  C   UNL     1     -10.188  17.744  68.380  1.00  0.00    -0.384 C  
ENDBRANCH   4   6
ENDBRANCH   3   4
BRANCH   3   9
HETATM    9  C   UNL     1     -12.746  15.063  70.337  1.00  0.00    -0.325 C  
HETATM   10  H   UNL     1     -14.675  14.608  70.439  1.00  0.00     0.000 HD 
HETATM   11  O   UNL     1     -14.012  14.990  71.003  1.00  0.00    -0.382 OA 
BRANCH   9  12
HETATM   12  C   UNL     1     -12.379  13.722  69.697  1.00  0.00    -0.284 A  
HETATM   13  C   UNL     1     -12.520  12.453  70.311  1.00  0.00    -0.152 A  
HETATM   14  C   UNL     1     -12.933  12.267  71.712  1.00  0.00    -0.431 C  
HETATM   15  C   UNL     1     -13.215  11.051  72.196  1.00  0.00    -0.316 C  
HETATM   16  C   UNL     1     -13.092   9.846  71.353  1.00  0.00    -0.407 C  
HETATM   17  N   UNL     1     -12.571  10.022  70.105  1.00  0.00    -0.525 N  
HETATM   18  O   UNL     1     -13.430   8.743  71.767  1.00  0.00    -0.354 OA 
HETATM   19  H   UNL     1     -12.386   9.192  69.540  1.00  0.00     0.000 HD 
HETATM   20  C   UNL     1     -12.276  11.280  69.550  1.00  0.00    -0.256 A  
HETATM   21  C   UNL     1     -11.810  11.376  68.235  1.00  0.00    -0.249 A  
HETATM   22  O   UNL     1     -11.524  10.282  67.466  1.00  0.00    -0.527 OA 
HETATM   23  C   UNL     1     -11.620  12.615  67.645  1.00  0.00    -0.414 A  
HETATM   24  H   UNL     1     -11.208  10.347  66.573  1.00  0.00     0.000 HD 
HETATM   25  C   UNL     1     -11.910  13.773  68.365  1.00  0.00    -0.411 A  
ENDBRANCH   9  12
ENDBRANCH   3   9
ENDBRANCH   2   3
TORSDOF 5
ENDMDL
MODEL       47
REMARK 921   NORMALIZED FREE ENERGY PREDICTED BY IDOCK:   -5.71 KCAL/MOL
REMARK 922        TOTAL FREE ENERGY PREDICTED BY IDOCK:   -8.23 KCAL/MOL
REMARK 923 INTER-LIGAND FREE ENERGY PREDICTED BY IDOCK:   -7.19 KCAL/MOL
REMARK 924 INTRA-LIGAND FREE ENERGY PREDICTED BY IDOCK:   -1.04 KCAL/MOL
REMARK 927      BINDING AFFINITY PREDICTED BY RF-SCORE:    0.00 PKD
ROOT
HETATM    1  C   UNL     1     -10.264  16.981  67.385  1.00  0.00    -0.314 C  
HETATM    2  C   UNL     1     -10.459  15.752  66.501  1.00  0.00    -0.304 C  
ENDROOT
BRANCH   2   3
HETATM    3  C   UNL     1     -10.111  14.397  67.176  1.00  0.00    -0.253 C  
BRANCH   3   4
HETATM    4  N   UNL     1      -8.934  13.735  66.561  1.00  0.00    -0.453 NA 
HETATM    5  H   UNL     1      -8.906  13.507  65.567  1.00  0.00     0.000 HD 
BRANCH   4   6
HETATM    6  C   UNL     1      -7.810  13.424  67.455  1.00  0.00    -0.176 C  
HETATM    7  C   UNL     1      -7.918  11.949  67.856  1.00  0.00    -0.144 C  
HETATM    8  C   UNL     1      -7.775  14.297  68.710  1.00  0.00    -0.134 C  
ENDBRANCH   4   6
ENDBRANCH   3   4
BRANCH   3   9
HETATM    9  C   UNL     1     -11.355  13.435  67.175  1.00  0.00    -0.315 C  
HETATM   10  H   UNL     1     -13.253  13.492  66.599  1.00  0.00     0.000 HD 
HETATM   11  O   UNL     1     -12.501  14.073  66.599  1.00  0.00    -0.420 OA 
BRANCH   9  12
HETATM   12  C   UNL     1     -11.697  12.793  68.521  1.00  0.00    -0.371 A  
HETATM   13  C   UNL     1     -12.101  13.491  69.686  1.00  0.00    -0.365 A  
HETATM   14  C   UNL     1     -12.129  14.960  69.786  1.00  0.00    -0.357 C  
HETATM   15  C   UNL     1     -12.676  15.572  70.843  1.00  0.00    -0.525 C  
HETATM   16  C   UNL     1     -13.244  14.799  71.965  1.00  0.00    -0.351 C  
HETATM   17  N   UNL     1     -13.080  13.445  71.921  1.00  0.00    -0.384 N  
HETATM   18  O   UNL     1     -13.821  15.354  72.893  1.00  0.00    -0.486 OA 
HETATM   19  H   UNL     1     -13.377  12.899  72.729  1.00  0.00     0.000 HD 
HETATM   20  C   UNL     1     -12.526  12.759  70.825  1.00  0.00    -0.271 A  
HETATM   21  C   UNL     1     -12.459  11.363  70.832  1.00  0.00    -0.379 A  
HETATM   22  O   UNL     1     -12.822  10.607  71.912  1.00  0.00    -0.445 OA 
HETATM   23  C   UNL     1     -12.016  10.674  69.714  1.00  0.00    -0.363 A  
HETATM   24  H   UNL     1     -12.776   9.658  71.917  1.00  0.00     0.000 HD 
HETATM   25  C   UNL     1     -11.648  11.381  68.571  1.00  0.00    -0.384 A  
ENDBRANCH   9  12
ENDBRANCH   3   9
ENDBRANCH   2   3
TORSDOF 5
ENDMDL
MODEL       48
REMARK 921   NORMALIZED FREE ENERGY PREDICTED BY IDOCK:   -5.71 KCAL/MOL
REMARK 922        TOTAL FREE ENERGY PREDICTED BY IDOCK:   -8.23 KCAL/MOL
REMARK 923 INTER-LIGAND FREE ENERGY PREDICTED BY IDOCK:   -7.53 KCAL/MOL
REMARK 924 INTRA-LIGAND FREE ENERGY PREDICTED BY IDOCK:   -0.70 KCAL/MOL
REMARK 927      BINDING AFFINITY PREDICTED BY RF-SCORE:    0.00 PKD
ROOT
HETATM    1  C   UNL     1     -12.133  14.051  67.406  1.00  0.00    -0.384 C  
HETATM    2  C   UNL     1     -10.670  13.898  67.000  1.00  0.00    -0.283 C  
ENDROOT
BRANCH   2   3
HETATM    3  C   UNL     1     -10.196  14.865  65.880  1.00  0.00    -0.314 C  
BRANCH   3   4
HETATM    4  N   UNL     1     -10.033  14.188  64.569  1.00  0.00    -0.667 NA 
HETATM    5  H   UNL     1      -9.326  14.487  63.897  1.00  0.00     0.000 HD 
BRANCH   4   6
HETATM    6  C   UNL     1     -10.938  13.066  64.288  1.00  0.00    -0.399 C  
HETATM    7  C   UNL     1     -10.133  11.977  63.571  1.00  0.00    -0.448 C  
HETATM    8  C   UNL     1     -12.144  13.459  63.436  1.00  0.00    -0.437 C  
ENDBRANCH   4   6
ENDBRANCH   3   4
BRANCH   3   9
HETATM    9  C   UNL     1      -8.870  15.599  66.298  1.00  0.00    -0.329 C  
HETATM   10  H   UNL     1      -7.426  15.371  67.640  1.00  0.00     0.000 HD 
HETATM   11  O   UNL     1      -8.227  14.927  67.387  1.00  0.00    -0.168 OA 
BRANCH   9  12
HETATM   12  C   UNL     1      -9.001  17.099  66.573  1.00  0.00    -0.300 A  
HETATM   13  C   UNL     1      -8.021  18.077  66.274  1.00  0.00    -0.276 A  
HETATM   14  C   UNL     1      -6.679  17.757  65.760  1.00  0.00    -0.223 C  
HETATM   15  C   UNL     1      -5.851  18.718  65.334  1.00  0.00    -0.261 C  
HETATM   16  C   UNL     1      -6.239  20.141  65.393  1.00  0.00    -0.234 C  
HETATM   17  N   UNL     1      -7.425  20.428  66.003  1.00  0.00    -0.495 N  
HETATM   18  O   UNL     1      -5.519  21.017  64.925  1.00  0.00    -0.214 OA 
HETATM   19  H   UNL     1      -7.668  21.409  66.143  1.00  0.00     0.000 HD 
HETATM   20  C   UNL     1      -8.332  19.451  66.451  1.00  0.00    -0.331 A  
HETATM   21  C   UNL     1      -9.558  19.832  67.004  1.00  0.00    -0.369 A  
HETATM   22  O   UNL     1      -9.899  21.137  67.230  1.00  0.00    -0.557 OA 
HETATM   23  C   UNL     1     -10.502  18.877  67.347  1.00  0.00    -0.520 A  
HETATM   24  H   UNL     1     -10.732  21.396  67.605  1.00  0.00     0.000 HD 
HETATM   25  C   UNL     1     -10.229  17.528  67.126  1.00  0.00    -0.323 A  
ENDBRANCH   9  12
ENDBRANCH   3   9
ENDBRANCH   2   3
TORSDOF 5
ENDMDL
MODEL       49
REMARK 921   NORMALIZED FREE ENERGY PREDICTED BY IDOCK:   -5.71 KCAL/MOL
REMARK 922        TOTAL FREE ENERGY PREDICTED BY IDOCK:   -8.23 KCAL/MOL
REMARK 923 INTER-LIGAND FREE ENERGY PREDICTED BY IDOCK:   -7.40 KCAL/MOL
REMARK 924 INTRA-LIGAND FREE ENERGY PREDICTED BY IDOCK:   -0.83 KCAL/MOL
REMARK 927      BINDING AFFINITY PREDICTED BY RF-SCORE:    0.00 PKD
ROOT
HETATM    1  C   UNL     1     -12.279  13.797  69.804  1.00  0.00    -0.368 C  
HETATM    2  C   UNL     1     -11.674  12.470  70.253  1.00  0.00    -0.200 C  
ENDROOT
BRANCH   2   3
HETATM    3  C   UNL     1     -11.793  11.314  69.223  1.00  0.00    -0.354 C  
BRANCH   3   4
HETATM    4  N   UNL     1     -12.149  10.018  69.853  1.00  0.00    -0.478 NA 
HETATM    5  H   UNL     1     -12.300   9.176  69.298  1.00  0.00     0.000 HD 
BRANCH   4   6
HETATM    6  C   UNL     1     -12.272  10.008  71.317  1.00  0.00    -0.402 C  
HETATM    7  C   UNL     1     -11.162   9.113  71.879  1.00  0.00    -0.400 C  
HETATM    8  C   UNL     1     -13.632   9.509  71.807  1.00  0.00    -0.447 C  
ENDBRANCH   4   6
ENDBRANCH   3   4
BRANCH   3   9
HETATM    9  C   UNL     1     -10.474  11.178  68.378  1.00  0.00    -0.188 C  
HETATM   10  H   UNL     1      -8.622  10.517  68.643  1.00  0.00     0.000 HD 
HETATM   11  O   UNL     1      -9.419  10.599  69.154  1.00  0.00    -0.200 OA 
BRANCH   9  12
HETATM   12  C   UNL     1     -10.005  12.453  67.672  1.00  0.00    -0.200 A  
HETATM   13  C   UNL     1     -10.659  13.075  66.580  1.00  0.00    -0.292 A  
HETATM   14  C   UNL     1     -11.829  12.499  65.895  1.00  0.00    -0.489 C  
HETATM   15  C   UNL     1     -12.514  13.201  64.984  1.00  0.00    -0.516 C  
HETATM   16  C   UNL     1     -12.103  14.567  64.605  1.00  0.00    -0.473 C  
HETATM   17  N   UNL     1     -10.936  15.027  65.142  1.00  0.00    -0.380 N  
HETATM   18  O   UNL     1     -12.775  15.243  63.834  1.00  0.00    -0.732 OA 
HETATM   19  H   UNL     1     -10.582  15.928  64.821  1.00  0.00     0.000 HD 
HETATM   20  C   UNL     1     -10.194  14.332  66.114  1.00  0.00    -0.307 A  
HETATM   21  C   UNL     1      -9.046  14.909  66.664  1.00  0.00    -0.280 A  
HETATM   22  O   UNL     1      -8.531  16.100  66.233  1.00  0.00    -0.310 OA 
HETATM   23  C   UNL     1      -8.370  14.280  67.699  1.00  0.00    -0.187 A  
HETATM   24  H   UNL     1      -7.751  16.491  66.607  1.00  0.00     0.000 HD 
HETATM   25  C   UNL     1      -8.850  13.072  68.201  1.00  0.00    -0.194 A  
ENDBRANCH   9  12
ENDBRANCH   3   9
ENDBRANCH   2   3
TORSDOF 5
ENDMDL
MODEL       50
REMARK 921   NORMALIZED FREE ENERGY PREDICTED BY IDOCK:   -5.71 KCAL/MOL
REMARK 922        TOTAL FREE ENERGY PREDICTED BY IDOCK:   -8.23 KCAL/MOL
REMARK 923 INTER-LIGAND FREE ENERGY PREDICTED BY IDOCK:   -7.30 KCAL/MOL
REMARK 924 INTRA-LIGAND FREE ENERGY PREDICTED BY IDOCK:   -0.93 KCAL/MOL
REMARK 927      BINDING AFFINITY PREDICTED BY RF-SCORE:    0.00 PKD
ROOT
HETATM    1  C   UNL     1     -10.015   9.214  66.090  1.00  0.00    -0.338 C  
HETATM    2  C   UNL     1     -10.147  10.625  65.525  1.00  0.00    -0.343 C  
ENDROOT
BRANCH   2   3
HETATM    3  C   UNL     1     -10.914  11.626  66.432  1.00  0.00    -0.295 C  
BRANCH   3   4
HETATM    4  N   UNL     1     -12.069  12.255  65.745  1.00  0.00    -0.603 NA 
HETATM    5  H   UNL     1     -13.002  12.254  66.157  1.00  0.00     0.000 HD 
BRANCH   4   6
HETATM    6  C   UNL     1     -11.802  12.878  64.442  1.00  0.00    -0.383 C  
HETATM    7  C   UNL     1     -12.227  14.348  64.525  1.00  0.00    -0.483 C  
HETATM    8  C   UNL     1     -12.531  12.197  63.283  1.00  0.00    -0.528 C  
ENDBRANCH   4   6
ENDBRANCH   3   4
BRANCH   3   9
HETATM    9  C   UNL     1      -9.942  12.722  67.005  1.00  0.00    -0.231 C  
HETATM   10  H   UNL     1      -8.156  12.793  67.866  1.00  0.00     0.000 HD 
HETATM   11  O   UNL     1      -8.743  12.131  67.520  1.00  0.00    -0.158 OA 
BRANCH   9  12
HETATM   12  C   UNL     1     -10.559  13.692  68.015  1.00  0.00    -0.256 A  
HETATM   13  C   UNL     1     -10.471  15.104  67.956  1.00  0.00    -0.247 A  
HETATM   14  C   UNL     1      -9.662  15.830  66.963  1.00  0.00    -0.235 C  
HETATM   15  C   UNL     1      -9.744  17.160  66.839  1.00  0.00    -0.270 C  
HETATM   16  C   UNL     1     -10.626  17.956  67.716  1.00  0.00    -0.389 C  
HETATM   17  N   UNL     1     -11.257  17.284  68.721  1.00  0.00    -0.131 N  
HETATM   18  O   UNL     1     -10.768  19.162  67.549  1.00  0.00    -0.462 OA 
HETATM   19  H   UNL     1     -11.794  17.827  69.399  1.00  0.00     0.000 HD 
HETATM   20  C   UNL     1     -11.211  15.888  68.879  1.00  0.00    -0.343 A  
HETATM   21  C   UNL     1     -11.946  15.272  69.898  1.00  0.00    -0.343 A  
HETATM   22  O   UNL     1     -12.649  15.975  70.836  1.00  0.00    -0.526 OA 
HETATM   23  C   UNL     1     -11.994  13.890  69.994  1.00  0.00    -0.404 A  
HETATM   24  H   UNL     1     -13.148  15.557  71.528  1.00  0.00     0.000 HD 
HETATM   25  C   UNL     1     -11.315  13.111  69.058  1.00  0.00    -0.332 A  
ENDBRANCH   9  12
ENDBRANCH   3   9
ENDBRANCH   2   3
TORSDOF 5
ENDMDL
MODEL       51
REMARK 921   NORMALIZED FREE ENERGY PREDICTED BY IDOCK:   -5.65 KCAL/MOL
REMARK 922        TOTAL FREE ENERGY PREDICTED BY IDOCK:   -8.16 KCAL/MOL
REMARK 923 INTER-LIGAND FREE ENERGY PREDICTED BY IDOCK:   -7.15 KCAL/MOL
REMARK 924 INTRA-LIGAND FREE ENERGY PREDICTED BY IDOCK:   -1.01 KCAL/MOL
REMARK 927      BINDING AFFINITY PREDICTED BY RF-SCORE:    0.00 PKD
ROOT
HETATM    1  C   UNL     1      -8.265  10.993  66.103  1.00  0.00    -0.155 C  
HETATM    2  C   UNL     1      -9.687  11.246  65.612  1.00  0.00    -0.267 C  
ENDROOT
BRANCH   2   3
HETATM    3  C   UNL     1     -10.781  11.195  66.714  1.00  0.00    -0.276 C  
BRANCH   3   4
HETATM    4  N   UNL     1     -11.977  12.005  66.374  1.00  0.00    -0.593 NA 
HETATM    5  H   UNL     1     -12.801  12.021  66.974  1.00  0.00     0.000 HD 
BRANCH   4   6
HETATM    6  C   UNL     1     -11.914  12.784  65.130  1.00  0.00    -0.424 C  
HETATM    7  C   UNL     1     -12.579  14.140  65.388  1.00  0.00    -0.485 C  
HETATM    8  C   UNL     1     -12.595  12.094  63.948  1.00  0.00    -0.545 C  
ENDBRANCH   4   6
ENDBRANCH   3   4
BRANCH   3   9
HETATM    9  C   UNL     1     -10.193  11.625  68.107  1.00  0.00    -0.197 C  
HETATM   10  H   UNL     1      -9.787  10.776  69.854  1.00  0.00     0.000 HD 
HETATM   11  O   UNL     1     -10.142  10.516  69.012  1.00  0.00    -0.197 OA 
BRANCH   9  12
HETATM   12  C   UNL     1     -10.855  12.841  68.759  1.00  0.00    -0.270 A  
HETATM   13  C   UNL     1     -10.637  14.191  68.391  1.00  0.00    -0.263 A  
HETATM   14  C   UNL     1      -9.638  14.613  67.395  1.00  0.00    -0.215 C  
HETATM   15  C   UNL     1      -9.585  15.877  66.957  1.00  0.00    -0.232 C  
HETATM   16  C   UNL     1     -10.506  16.905  67.480  1.00  0.00    -0.328 C  
HETATM   17  N   UNL     1     -11.327  16.530  68.503  1.00  0.00    -0.311 N  
HETATM   18  O   UNL     1     -10.518  18.042  67.021  1.00  0.00    -0.362 OA 
HETATM   19  H   UNL     1     -11.902  17.247  68.946  1.00  0.00     0.000 HD 
HETATM   20  C   UNL     1     -11.426  15.211  68.983  1.00  0.00    -0.309 A  
HETATM   21  C   UNL     1     -12.345  14.898  69.989  1.00  0.00    -0.312 A  
HETATM   22  O   UNL     1     -13.107  15.842  70.620  1.00  0.00    -0.682 OA 
HETATM   23  C   UNL     1     -12.527  13.585  70.392  1.00  0.00    -0.345 A  
HETATM   24  H   UNL     1     -13.731  15.630  71.304  1.00  0.00     0.000 HD 
HETATM   25  C   UNL     1     -11.797  12.569  69.777  1.00  0.00    -0.380 A  
ENDBRANCH   9  12
ENDBRANCH   3   9
ENDBRANCH   2   3
TORSDOF 5
ENDMDL
MODEL       52
REMARK 921   NORMALIZED FREE ENERGY PREDICTED BY IDOCK:   -5.64 KCAL/MOL
REMARK 922        TOTAL FREE ENERGY PREDICTED BY IDOCK:   -8.13 KCAL/MOL
REMARK 923 INTER-LIGAND FREE ENERGY PREDICTED BY IDOCK:   -7.49 KCAL/MOL
REMARK 924 INTRA-LIGAND FREE ENERGY PREDICTED BY IDOCK:   -0.65 KCAL/MOL
REMARK 927      BINDING AFFINITY PREDICTED BY RF-SCORE:    0.00 PKD
ROOT
HETATM    1  C   UNL     1      -7.150  20.774  67.294  1.00  0.00    -0.417 C  
HETATM    2  C   UNL     1      -8.304  19.879  67.736  1.00  0.00    -0.343 C  
ENDROOT
BRANCH   2   3
HETATM    3  C   UNL     1      -7.945  18.375  67.891  1.00  0.00    -0.258 C  
BRANCH   3   4
HETATM    4  N   UNL     1      -6.493  18.112  67.730  1.00  0.00    -0.186 NA 
HETATM    5  H   UNL     1      -6.029  18.205  66.827  1.00  0.00     0.000 HD 
BRANCH   4   6
HETATM    6  C   UNL     1      -5.758  17.712  68.937  1.00  0.00    -0.178 C  
HETATM    7  C   UNL     1      -6.474  16.503  69.549  1.00  0.00    -0.223 C  
HETATM    8  C   UNL     1      -5.649  18.826  69.978  1.00  0.00    -0.245 C  
ENDBRANCH   4   6
ENDBRANCH   3   4
BRANCH   3   9
HETATM    9  C   UNL     1      -8.785  17.493  66.897  1.00  0.00    -0.251 C  
HETATM   10  H   UNL     1      -9.740  17.729  65.174  1.00  0.00     0.000 HD 
HETATM   11  O   UNL     1      -9.232  18.262  65.775  1.00  0.00    -0.450 OA 
BRANCH   9  12
HETATM   12  C   UNL     1      -9.939  16.706  67.523  1.00  0.00    -0.264 A  
HETATM   13  C   UNL     1     -10.794  15.813  66.831  1.00  0.00    -0.265 A  
HETATM   14  C   UNL     1     -10.757  15.615  65.372  1.00  0.00    -0.424 C  
HETATM   15  C   UNL     1     -11.464  14.641  64.786  1.00  0.00    -0.410 C  
HETATM   16  C   UNL     1     -12.335  13.748  65.576  1.00  0.00    -0.475 C  
HETATM   17  N   UNL     1     -12.467  14.037  66.903  1.00  0.00    -0.529 N  
HETATM   18  O   UNL     1     -12.917  12.803  65.055  1.00  0.00    -0.811 OA 
HETATM   19  H   UNL     1     -13.137  13.495  67.448  1.00  0.00     0.000 HD 
HETATM   20  C   UNL     1     -11.732  15.039  67.562  1.00  0.00    -0.253 A  
HETATM   21  C   UNL     1     -11.877  15.224  68.941  1.00  0.00    -0.320 A  
HETATM   22  O   UNL     1     -12.788  14.533  69.691  1.00  0.00    -0.545 OA 
HETATM   23  C   UNL     1     -11.080  16.133  69.617  1.00  0.00    -0.344 A  
HETATM   24  H   UNL     1     -12.887  14.658  70.628  1.00  0.00     0.000 HD 
HETATM   25  C   UNL     1     -10.117  16.858  68.916  1.00  0.00    -0.297 A  
ENDBRANCH   9  12
ENDBRANCH   3   9
ENDBRANCH   2   3
TORSDOF 5
ENDMDL
MODEL       53
REMARK 921   NORMALIZED FREE ENERGY PREDICTED BY IDOCK:   -5.60 KCAL/MOL
REMARK 922        TOTAL FREE ENERGY PREDICTED BY IDOCK:   -8.08 KCAL/MOL
REMARK 923 INTER-LIGAND FREE ENERGY PREDICTED BY IDOCK:   -7.27 KCAL/MOL
REMARK 924 INTRA-LIGAND FREE ENERGY PREDICTED BY IDOCK:   -0.81 KCAL/MOL
REMARK 927      BINDING AFFINITY PREDICTED BY RF-SCORE:    0.00 PKD
ROOT
HETATM    1  C   UNL     1     -10.280  19.775  68.383  1.00  0.00    -0.568 C  
HETATM    2  C   UNL     1     -10.806  18.610  67.549  1.00  0.00    -0.373 C  
ENDROOT
BRANCH   2   3
HETATM    3  C   UNL     1     -10.262  17.213  67.955  1.00  0.00    -0.332 C  
BRANCH   3   4
HETATM    4  N   UNL     1      -9.248  17.285  69.037  1.00  0.00    -0.174 NA 
HETATM    5  H   UNL     1      -9.512  17.451  70.008  1.00  0.00     0.000 HD 
BRANCH   4   6
HETATM    6  C   UNL     1      -7.846  17.104  68.640  1.00  0.00    -0.265 C  
HETATM    7  C   UNL     1      -7.302  15.873  69.373  1.00  0.00    -0.217 C  
HETATM    8  C   UNL     1      -6.967  18.316  68.949  1.00  0.00    -0.289 C  
ENDBRANCH   4   6
ENDBRANCH   3   4
BRANCH   3   9
HETATM    9  C   UNL     1      -9.691  16.449  66.706  1.00  0.00    -0.251 C  
HETATM   10  H   UNL     1      -8.999  16.898  64.901  1.00  0.00     0.000 HD 
HETATM   11  O   UNL     1      -9.344  17.360  65.656  1.00  0.00    -0.496 OA 
BRANCH   9  12
HETATM   12  C   UNL     1     -10.555  15.302  66.179  1.00  0.00    -0.318 A  
HETATM   13  C   UNL     1     -10.814  14.087  66.861  1.00  0.00    -0.290 A  
HETATM   14  C   UNL     1     -10.177  13.718  68.136  1.00  0.00    -0.253 C  
HETATM   15  C   UNL     1     -10.577  12.643  68.826  1.00  0.00    -0.214 C  
HETATM   16  C   UNL     1     -11.652  11.767  68.319  1.00  0.00    -0.308 C  
HETATM   17  N   UNL     1     -12.130  12.043  67.072  1.00  0.00    -0.009 N  
HETATM   18  O   UNL     1     -12.079  10.832  68.988  1.00  0.00    -0.380 OA 
HETATM   19  H   UNL     1     -12.803  11.395  66.661  1.00  0.00     0.000 HD 
HETATM   20  C   UNL     1     -11.750  13.168  66.319  1.00  0.00    -0.375 A  
HETATM   21  C   UNL     1     -12.341  13.414  65.076  1.00  0.00    -0.436 A  
HETATM   22  O   UNL     1     -13.223  12.550  64.488  1.00  0.00    -0.832 OA 
HETATM   23  C   UNL     1     -12.054  14.576  64.378  1.00  0.00    -0.492 A  
HETATM   24  H   UNL     1     -13.625  12.717  63.644  1.00  0.00     0.000 HD 
HETATM   25  C   UNL     1     -11.178  15.511  64.928  1.00  0.00    -0.396 A  
ENDBRANCH   9  12
ENDBRANCH   3   9
ENDBRANCH   2   3
TORSDOF 5
ENDMDL
MODEL       54
REMARK 921   NORMALIZED FREE ENERGY PREDICTED BY IDOCK:   -5.57 KCAL/MOL
REMARK 922        TOTAL FREE ENERGY PREDICTED BY IDOCK:   -8.05 KCAL/MOL
REMARK 923 INTER-LIGAND FREE ENERGY PREDICTED BY IDOCK:   -7.27 KCAL/MOL
REMARK 924 INTRA-LIGAND FREE ENERGY PREDICTED BY IDOCK:   -0.78 KCAL/MOL
REMARK 927      BINDING AFFINITY PREDICTED BY RF-SCORE:    0.00 PKD
ROOT
HETATM    1  C   UNL     1     -11.408  14.222  68.710  1.00  0.00    -0.303 C  
HETATM    2  C   UNL     1     -12.098  14.438  67.366  1.00  0.00    -0.348 C  
ENDROOT
BRANCH   2   3
HETATM    3  C   UNL     1     -11.155  14.406  66.132  1.00  0.00    -0.330 C  
BRANCH   3   4
HETATM    4  N   UNL     1     -10.885  15.757  65.580  1.00  0.00    -0.328 NA 
HETATM    5  H   UNL     1     -11.513  16.195  64.907  1.00  0.00     0.000 HD 
BRANCH   4   6
HETATM    6  C   UNL     1      -9.669  16.432  66.053  1.00  0.00    -0.326 C  
HETATM    7  C   UNL     1      -8.686  15.357  66.528  1.00  0.00    -0.335 C  
HETATM    8  C   UNL     1      -9.929  17.427  67.184  1.00  0.00    -0.291 C  
ENDBRANCH   4   6
ENDBRANCH   3   4
BRANCH   3   9
HETATM    9  C   UNL     1     -11.722  13.452  65.018  1.00  0.00    -0.325 C  
HETATM   10  H   UNL     1     -13.417  12.497  64.628  1.00  0.00     0.000 HD 
HETATM   11  O   UNL     1     -13.074  13.073  65.301  1.00  0.00    -0.689 OA 
BRANCH   9  12
HETATM   12  C   UNL     1     -10.862  12.229  64.692  1.00  0.00    -0.349 A  
HETATM   13  C   UNL     1     -10.599  11.151  65.573  1.00  0.00    -0.289 A  
HETATM   14  C   UNL     1     -11.029  11.126  66.981  1.00  0.00    -0.348 C  
HETATM   15  C   UNL     1     -10.906  10.020  67.725  1.00  0.00    -0.337 C  
HETATM   16  C   UNL     1     -10.304   8.791  67.171  1.00  0.00    -0.293 C  
HETATM   17  N   UNL     1      -9.782   8.877  65.914  1.00  0.00    -0.423 N  
HETATM   18  O   UNL     1     -10.268   7.752  67.821  1.00  0.00    -0.187 OA 
HETATM   19  H   UNL     1      -9.276   8.070  65.548  1.00  0.00     0.000 HD 
HETATM   20  C   UNL     1      -9.902  10.012  65.092  1.00  0.00    -0.318 A  
HETATM   21  C   UNL     1      -9.398   9.991  63.788  1.00  0.00    -0.257 A  
HETATM   22  O   UNL     1      -8.690   8.937  63.282  1.00  0.00    -0.385 OA 
HETATM   23  C   UNL     1      -9.607  11.064  62.936  1.00  0.00    -0.369 A  
HETATM   24  H   UNL     1      -8.347   8.923  62.396  1.00  0.00     0.000 HD 
HETATM   25  C   UNL     1     -10.338  12.165  63.381  1.00  0.00    -0.438 A  
ENDBRANCH   9  12
ENDBRANCH   3   9
ENDBRANCH   2   3
TORSDOF 5
ENDMDL
MODEL       55
REMARK 921   NORMALIZED FREE ENERGY PREDICTED BY IDOCK:   -5.57 KCAL/MOL
REMARK 922        TOTAL FREE ENERGY PREDICTED BY IDOCK:   -8.04 KCAL/MOL
REMARK 923 INTER-LIGAND FREE ENERGY PREDICTED BY IDOCK:   -6.98 KCAL/MOL
REMARK 924 INTRA-LIGAND FREE ENERGY PREDICTED BY IDOCK:   -1.06 KCAL/MOL
REMARK 927      BINDING AFFINITY PREDICTED BY RF-SCORE:    0.00 PKD
ROOT
HETATM    1  C   UNL     1      -9.535  14.965  66.308  1.00  0.00    -0.339 C  
HETATM    2  C   UNL     1     -11.006  14.721  66.632  1.00  0.00    -0.326 C  
ENDROOT
BRANCH   2   3
HETATM    3  C   UNL     1     -11.422  13.226  66.708  1.00  0.00    -0.350 C  
BRANCH   3   4
HETATM    4  N   UNL     1     -12.532  12.891  65.782  1.00  0.00    -0.555 NA 
HETATM    5  H   UNL     1     -13.500  13.122  66.001  1.00  0.00     0.000 HD 
BRANCH   4   6
HETATM    6  C   UNL     1     -12.165  12.210  64.533  1.00  0.00    -0.319 C  
HETATM    7  C   UNL     1     -10.811  11.525  64.747  1.00  0.00    -0.360 C  
HETATM    8  C   UNL     1     -12.081  13.152  63.331  1.00  0.00    -0.558 C  
ENDBRANCH   4   6
ENDBRANCH   3   4
BRANCH   3   9
HETATM    9  C   UNL     1     -11.785  12.820  68.183  1.00  0.00    -0.345 C  
HETATM   10  H   UNL     1     -12.146  13.730  69.909  1.00  0.00     0.000 HD 
HETATM   11  O   UNL     1     -11.927  13.975  69.018  1.00  0.00    -0.332 OA 
BRANCH   9  12
HETATM   12  C   UNL     1     -10.867  11.780  68.830  1.00  0.00    -0.268 A  
HETATM   13  C   UNL     1     -11.230  10.907  69.885  1.00  0.00    -0.355 A  
HETATM   14  C   UNL     1     -12.523  10.971  70.587  1.00  0.00    -0.465 C  
HETATM   15  C   UNL     1     -12.886  10.022  71.458  1.00  0.00    -0.537 C  
HETATM   16  C   UNL     1     -11.991   8.891  71.773  1.00  0.00    -0.359 C  
HETATM   17  N   UNL     1     -10.743   8.926  71.224  1.00  0.00    -0.260 N  
HETATM   18  O   UNL     1     -12.355   7.977  72.505  1.00  0.00    -0.289 OA 
HETATM   19  H   UNL     1     -10.075   8.208  71.504  1.00  0.00     0.000 HD 
HETATM   20  C   UNL     1     -10.324   9.893  70.293  1.00  0.00    -0.281 A  
HETATM   21  C   UNL     1      -9.050   9.815  69.724  1.00  0.00    -0.225 A  
HETATM   22  O   UNL     1      -8.124   8.882  70.101  1.00  0.00    -0.101 OA 
HETATM   23  C   UNL     1      -8.668  10.699  68.727  1.00  0.00    -0.157 A  
HETATM   24  H   UNL     1      -7.257   8.829  69.715  1.00  0.00     0.000 HD 
HETATM   25  C   UNL     1      -9.570  11.663  68.281  1.00  0.00    -0.198 A  
ENDBRANCH   9  12
ENDBRANCH   3   9
ENDBRANCH   2   3
TORSDOF 5
ENDMDL
MODEL       56
REMARK 921   NORMALIZED FREE ENERGY PREDICTED BY IDOCK:   -5.51 KCAL/MOL
REMARK 922        TOTAL FREE ENERGY PREDICTED BY IDOCK:   -7.97 KCAL/MOL
REMARK 923 INTER-LIGAND FREE ENERGY PREDICTED BY IDOCK:   -7.06 KCAL/MOL
REMARK 924 INTRA-LIGAND FREE ENERGY PREDICTED BY IDOCK:   -0.91 KCAL/MOL
REMARK 927      BINDING AFFINITY PREDICTED BY RF-SCORE:    0.00 PKD
ROOT
HETATM    1  C   UNL     1     -10.268   8.068  70.073  1.00  0.00    -0.205 C  
HETATM    2  C   UNL     1     -10.211   9.578  70.290  1.00  0.00    -0.312 C  
ENDROOT
BRANCH   2   3
HETATM    3  C   UNL     1      -9.682  10.394  69.079  1.00  0.00    -0.206 C  
BRANCH   3   4
HETATM    4  N   UNL     1      -8.528  11.259  69.430  1.00  0.00    -0.349 NA 
HETATM    5  H   UNL     1      -8.525  11.831  70.275  1.00  0.00     0.000 HD 
BRANCH   4   6
HETATM    6  C   UNL     1      -7.390  11.251  68.502  1.00  0.00    -0.106 C  
HETATM    7  C   UNL     1      -6.103  11.306  69.330  1.00  0.00    -0.074 C  
HETATM    8  C   UNL     1      -7.412  12.413  67.507  1.00  0.00    -0.150 C  
ENDBRANCH   4   6
ENDBRANCH   3   4
BRANCH   3   9
HETATM    9  C   UNL     1     -10.835  11.240  68.426  1.00  0.00    -0.205 C  
HETATM   10  H   UNL     1     -12.810  11.380  68.561  1.00  0.00     0.000 HD 
HETATM   11  O   UNL     1     -12.113  10.868  68.955  1.00  0.00    -0.417 OA 
BRANCH   9  12
HETATM   12  C   UNL     1     -10.856  11.264  66.896  1.00  0.00    -0.333 A  
HETATM   13  C   UNL     1     -11.438  12.279  66.098  1.00  0.00    -0.429 A  
HETATM   14  C   UNL     1     -12.215  13.403  66.648  1.00  0.00    -0.391 C  
HETATM   15  C   UNL     1     -12.600  14.425  65.874  1.00  0.00    -0.275 C  
HETATM   16  C   UNL     1     -12.287  14.450  64.431  1.00  0.00    -0.403 C  
HETATM   17  N   UNL     1     -11.694  13.336  63.913  1.00  0.00    -0.519 N  
HETATM   18  O   UNL     1     -12.563  15.423  63.738  1.00  0.00    -0.678 OA 
HETATM   19  H   UNL     1     -11.557  13.291  62.903  1.00  0.00     0.000 HD 
HETATM   20  C   UNL     1     -11.259  12.248  64.691  1.00  0.00    -0.315 A  
HETATM   21  C   UNL     1     -10.596  11.175  64.087  1.00  0.00    -0.368 A  
HETATM   22  O   UNL     1     -10.424  11.073  62.735  1.00  0.00    -0.756 OA 
HETATM   23  C   UNL     1     -10.069  10.150  64.858  1.00  0.00    -0.277 A  
HETATM   24  H   UNL     1      -9.974  10.344  62.325  1.00  0.00     0.000 HD 
HETATM   25  C   UNL     1     -10.190  10.201  66.245  1.00  0.00    -0.288 A  
ENDBRANCH   9  12
ENDBRANCH   3   9
ENDBRANCH   2   3
TORSDOF 5
ENDMDL
MODEL       57
REMARK 921   NORMALIZED FREE ENERGY PREDICTED BY IDOCK:   -5.48 KCAL/MOL
REMARK 922        TOTAL FREE ENERGY PREDICTED BY IDOCK:   -7.94 KCAL/MOL
REMARK 923 INTER-LIGAND FREE ENERGY PREDICTED BY IDOCK:   -7.38 KCAL/MOL
REMARK 924 INTRA-LIGAND FREE ENERGY PREDICTED BY IDOCK:   -0.55 KCAL/MOL
REMARK 927      BINDING AFFINITY PREDICTED BY RF-SCORE:    0.00 PKD
ROOT
HETATM    1  C   UNL     1      -8.247  12.708  67.548  1.00  0.00    -0.178 C  
HETATM    2  C   UNL     1      -9.658  12.278  67.939  1.00  0.00    -0.203 C  
ENDROOT
BRANCH   2   3
HETATM    3  C   UNL     1     -10.698  12.314  66.786  1.00  0.00    -0.240 C  
BRANCH   3   4
HETATM    4  N   UNL     1     -10.115  12.775  65.502  1.00  0.00    -0.308 NA 
HETATM    5  H   UNL     1      -9.745  13.719  65.390  1.00  0.00     0.000 HD 
BRANCH   4   6
HETATM    6  C   UNL     1     -10.096  11.804  64.400  1.00  0.00    -0.282 C  
HETATM    7  C   UNL     1     -11.399  11.961  63.608  1.00  0.00    -0.536 C  
HETATM    8  C   UNL     1      -9.952  10.357  64.870  1.00  0.00    -0.409 C  
ENDBRANCH   4   6
ENDBRANCH   3   4
BRANCH   3   9
HETATM    9  C   UNL     1     -11.942  13.192  67.181  1.00  0.00    -0.341 C  
HETATM   10  H   UNL     1     -13.244  14.383  66.274  1.00  0.00     0.000 HD 
HETATM   11  O   UNL     1     -12.492  13.853  66.036  1.00  0.00    -0.463 OA 
BRANCH   9  12
HETATM   12  C   UNL     1     -11.721  14.173  68.334  1.00  0.00    -0.380 A  
HETATM   13  C   UNL     1     -11.107  15.446  68.223  1.00  0.00    -0.309 A  
HETATM   14  C   UNL     1     -10.486  15.946  66.986  1.00  0.00    -0.306 C  
HETATM   15  C   UNL     1     -10.072  17.215  66.881  1.00  0.00    -0.298 C  
HETATM   16  C   UNL     1     -10.192  18.153  68.014  1.00  0.00    -0.380 C  
HETATM   17  N   UNL     1     -10.636  17.634  69.195  1.00  0.00    -0.387 N  
HETATM   18  O   UNL     1      -9.892  19.336  67.895  1.00  0.00    -0.315 OA 
HETATM   19  H   UNL     1     -10.635  18.240  70.016  1.00  0.00     0.000 HD 
HETATM   20  C   UNL     1     -11.096  16.314  69.346  1.00  0.00    -0.328 A  
HETATM   21  C   UNL     1     -11.601  15.883  70.577  1.00  0.00    -0.381 A  
HETATM   22  O   UNL     1     -11.585  16.662  71.700  1.00  0.00    -0.592 OA 
HETATM   23  C   UNL     1     -12.156  14.620  70.706  1.00  0.00    -0.387 A  
HETATM   24  H   UNL     1     -11.928  16.369  72.536  1.00  0.00     0.000 HD 
HETATM   25  C   UNL     1     -12.222  13.780  69.595  1.00  0.00    -0.359 A  
ENDBRANCH   9  12
ENDBRANCH   3   9
ENDBRANCH   2   3
TORSDOF 5
ENDMDL
MODEL       58
REMARK 921   NORMALIZED FREE ENERGY PREDICTED BY IDOCK:   -5.44 KCAL/MOL
REMARK 922        TOTAL FREE ENERGY PREDICTED BY IDOCK:   -7.88 KCAL/MOL
REMARK 923 INTER-LIGAND FREE ENERGY PREDICTED BY IDOCK:   -7.33 KCAL/MOL
REMARK 924 INTRA-LIGAND FREE ENERGY PREDICTED BY IDOCK:   -0.55 KCAL/MOL
REMARK 927      BINDING AFFINITY PREDICTED BY RF-SCORE:    0.00 PKD
ROOT
HETATM    1  C   UNL     1     -12.764  14.027  65.318  1.00  0.00    -0.468 C  
HETATM    2  C   UNL     1     -12.037  13.319  66.457  1.00  0.00    -0.435 C  
ENDROOT
BRANCH   2   3
HETATM    3  C   UNL     1     -10.509  13.585  66.526  1.00  0.00    -0.284 C  
BRANCH   3   4
HETATM    4  N   UNL     1      -9.709  12.508  65.889  1.00  0.00    -0.335 NA 
HETATM    5  H   UNL     1      -8.705  12.605  65.738  1.00  0.00     0.000 HD 
BRANCH   4   6
HETATM    6  C   UNL     1     -10.436  11.297  65.487  1.00  0.00    -0.265 C  
HETATM    7  C   UNL     1      -9.888  10.123  66.306  1.00  0.00    -0.288 C  
HETATM    8  C   UNL     1     -10.315  10.984  63.996  1.00  0.00    -0.436 C  
ENDBRANCH   4   6
ENDBRANCH   3   4
BRANCH   3   9
HETATM    9  C   UNL     1     -10.046  13.817  68.011  1.00  0.00    -0.245 C  
HETATM   10  H   UNL     1      -8.807  12.974  69.312  1.00  0.00     0.000 HD 
HETATM   11  O   UNL     1      -9.087  12.834  68.414  1.00  0.00    -0.192 OA 
BRANCH   9  12
HETATM   12  C   UNL     1     -11.170  13.950  69.042  1.00  0.00    -0.312 A  
HETATM   13  C   UNL     1     -11.789  12.874  69.725  1.00  0.00    -0.380 A  
HETATM   14  C   UNL     1     -11.507  11.457  69.439  1.00  0.00    -0.378 C  
HETATM   15  C   UNL     1     -11.986  10.482  70.221  1.00  0.00    -0.411 C  
HETATM   16  C   UNL     1     -12.843  10.789  71.384  1.00  0.00    -0.452 C  
HETATM   17  N   UNL     1     -13.210  12.092  71.548  1.00  0.00    -0.286 N  
HETATM   18  O   UNL     1     -13.213   9.906  72.151  1.00  0.00    -0.438 OA 
HETATM   19  H   UNL     1     -13.879  12.313  72.286  1.00  0.00     0.000 HD 
HETATM   20  C   UNL     1     -12.719  13.149  70.761  1.00  0.00    -0.184 A  
HETATM   21  C   UNL     1     -13.093  14.466  71.042  1.00  0.00    -0.353 A  
HETATM   22  O   UNL     1     -14.009  14.790  72.004  1.00  0.00    -0.394 OA 
HETATM   23  C   UNL     1     -12.530  15.522  70.342  1.00  0.00    -0.443 A  
HETATM   24  H   UNL     1     -14.263  15.685  72.195  1.00  0.00     0.000 HD 
HETATM   25  C   UNL     1     -11.574  15.266  69.361  1.00  0.00    -0.347 A  
ENDBRANCH   9  12
ENDBRANCH   3   9
ENDBRANCH   2   3
TORSDOF 5
ENDMDL
MODEL       59
REMARK 921   NORMALIZED FREE ENERGY PREDICTED BY IDOCK:   -5.42 KCAL/MOL
REMARK 922        TOTAL FREE ENERGY PREDICTED BY IDOCK:   -7.86 KCAL/MOL
REMARK 923 INTER-LIGAND FREE ENERGY PREDICTED BY IDOCK:   -6.87 KCAL/MOL
REMARK 924 INTRA-LIGAND FREE ENERGY PREDICTED BY IDOCK:   -0.99 KCAL/MOL
REMARK 927      BINDING AFFINITY PREDICTED BY RF-SCORE:    0.00 PKD
ROOT
HETATM    1  C   UNL     1      -9.896  16.322  66.073  1.00  0.00    -0.371 C  
HETATM    2  C   UNL     1      -9.769  14.806  66.199  1.00  0.00    -0.338 C  
ENDROOT
BRANCH   2   3
HETATM    3  C   UNL     1      -9.782  14.266  67.655  1.00  0.00    -0.220 C  
BRANCH   3   4
HETATM    4  N   UNL     1      -8.489  13.655  68.052  1.00  0.00    -0.164 NA 
HETATM    5  H   UNL     1      -8.253  12.694  67.807  1.00  0.00     0.000 HD 
BRANCH   4   6
HETATM    6  C   UNL     1      -7.565  14.505  68.815  1.00  0.00    -0.131 C  
HETATM    7  C   UNL     1      -8.357  15.701  69.353  1.00  0.00    -0.238 C  
HETATM    8  C   UNL     1      -6.378  15.003  67.990  1.00  0.00    -0.160 C  
ENDBRANCH   4   6
ENDBRANCH   3   4
BRANCH   3   9
HETATM    9  C   UNL     1     -10.965  13.252  67.866  1.00  0.00    -0.249 C  
HETATM   10  H   UNL     1     -12.551  12.617  66.856  1.00  0.00     0.000 HD 
HETATM   11  O   UNL     1     -11.836  13.229  66.729  1.00  0.00    -0.362 OA 
BRANCH   9  12
HETATM   12  C   UNL     1     -11.756  13.417  69.165  1.00  0.00    -0.375 A  
HETATM   13  C   UNL     1     -12.244  12.358  69.970  1.00  0.00    -0.264 A  
HETATM   14  C   UNL     1     -12.154  10.938  69.592  1.00  0.00    -0.400 C  
HETATM   15  C   UNL     1     -12.474   9.968  70.456  1.00  0.00    -0.254 C  
HETATM   16  C   UNL     1     -12.961  10.285  71.813  1.00  0.00    -0.469 C  
HETATM   17  N   UNL     1     -13.174  11.602  72.096  1.00  0.00    -0.545 N  
HETATM   18  O   UNL     1     -13.173   9.400  72.635  1.00  0.00    -0.378 OA 
HETATM   19  H   UNL     1     -13.602  11.838  72.992  1.00  0.00     0.000 HD 
HETATM   20  C   UNL     1     -12.839  12.654  71.225  1.00  0.00    -0.250 A  
HETATM   21  C   UNL     1     -13.026  13.981  71.622  1.00  0.00    -0.352 A  
HETATM   22  O   UNL     1     -13.624  14.327  72.802  1.00  0.00    -0.565 OA 
HETATM   23  C   UNL     1     -12.598  15.024  70.815  1.00  0.00    -0.429 A  
HETATM   24  H   UNL     1     -13.751  15.228  73.072  1.00  0.00     0.000 HD 
HETATM   25  C   UNL     1     -11.964  14.744  69.607  1.00  0.00    -0.360 A  
ENDBRANCH   9  12
ENDBRANCH   3   9
ENDBRANCH   2   3
TORSDOF 5
ENDMDL
MODEL       60
REMARK 921   NORMALIZED FREE ENERGY PREDICTED BY IDOCK:   -5.42 KCAL/MOL
REMARK 922        TOTAL FREE ENERGY PREDICTED BY IDOCK:   -7.86 KCAL/MOL
REMARK 923 INTER-LIGAND FREE ENERGY PREDICTED BY IDOCK:   -6.90 KCAL/MOL
REMARK 924 INTRA-LIGAND FREE ENERGY PREDICTED BY IDOCK:   -0.96 KCAL/MOL
REMARK 927      BINDING AFFINITY PREDICTED BY RF-SCORE:    0.00 PKD
ROOT
HETATM    1  C   UNL     1      -7.523   8.050  69.653  1.00  0.00    -0.091 C  
HETATM    2  C   UNL     1      -8.271   9.320  69.257  1.00  0.00    -0.108 C  
ENDROOT
BRANCH   2   3
HETATM    3  C   UNL     1      -9.615   9.548  70.002  1.00  0.00    -0.238 C  
BRANCH   3   4
HETATM    4  N   UNL     1      -9.965   8.429  70.911  1.00  0.00    -0.185 NA 
HETATM    5  H   UNL     1      -9.279   8.020  71.546  1.00  0.00     0.000 HD 
BRANCH   4   6
HETATM    6  C   UNL     1     -11.348   7.939  70.852  1.00  0.00    -0.277 C  
HETATM    7  C   UNL     1     -11.908   7.929  72.279  1.00  0.00    -0.404 C  
HETATM    8  C   UNL     1     -11.470   6.542  70.242  1.00  0.00    -0.474 C  
ENDBRANCH   4   6
ENDBRANCH   3   4
BRANCH   3   9
HETATM    9  C   UNL     1     -10.780   9.825  68.984  1.00  0.00    -0.217 C  
HETATM   10  H   UNL     1     -11.187   9.440  67.080  1.00  0.00     0.000 HD 
HETATM   11  O   UNL     1     -10.483   9.273  67.696  1.00  0.00    -0.238 OA 
BRANCH   9  12
HETATM   12  C   UNL     1     -11.229  11.283  68.870  1.00  0.00    -0.315 A  
HETATM   13  C   UNL     1     -12.012  11.978  69.825  1.00  0.00    -0.370 A  
HETATM   14  C   UNL     1     -12.604  11.341  71.013  1.00  0.00    -0.495 C  
HETATM   15  C   UNL     1     -13.190  12.068  71.971  1.00  0.00    -0.481 C  
HETATM   16  C   UNL     1     -13.295  13.536  71.859  1.00  0.00    -0.443 C  
HETATM   17  N   UNL     1     -12.871  14.093  70.688  1.00  0.00    -0.322 N  
HETATM   18  O   UNL     1     -13.754  14.213  72.772  1.00  0.00    -0.628 OA 
HETATM   19  H   UNL     1     -13.023  15.092  70.548  1.00  0.00     0.000 HD 
HETATM   20  C   UNL     1     -12.236  13.370  69.662  1.00  0.00    -0.221 A  
HETATM   21  C   UNL     1     -11.768  14.032  68.523  1.00  0.00    -0.352 A  
HETATM   22  O   UNL     1     -11.984  15.363  68.295  1.00  0.00    -0.500 OA 
HETATM   23  C   UNL     1     -11.046  13.347  67.558  1.00  0.00    -0.294 A  
HETATM   24  H   UNL     1     -11.666  15.812  67.521  1.00  0.00     0.000 HD 
HETATM   25  C   UNL     1     -10.773  11.992  67.736  1.00  0.00    -0.243 A  
ENDBRANCH   9  12
ENDBRANCH   3   9
ENDBRANCH   2   3
TORSDOF 5
ENDMDL
MODEL       61
REMARK 921   NORMALIZED FREE ENERGY PREDICTED BY IDOCK:   -5.41 KCAL/MOL
REMARK 922        TOTAL FREE ENERGY PREDICTED BY IDOCK:   -7.85 KCAL/MOL
REMARK 923 INTER-LIGAND FREE ENERGY PREDICTED BY IDOCK:   -7.09 KCAL/MOL
REMARK 924 INTRA-LIGAND FREE ENERGY PREDICTED BY IDOCK:   -0.75 KCAL/MOL
REMARK 927      BINDING AFFINITY PREDICTED BY RF-SCORE:    0.00 PKD
ROOT
HETATM    1  C   UNL     1     -10.252   6.962  67.257  1.00  0.00    -0.284 C  
HETATM    2  C   UNL     1      -9.834   8.405  66.992  1.00  0.00    -0.296 C  
ENDROOT
BRANCH   2   3
HETATM    3  C   UNL     1     -10.842   9.481  67.481  1.00  0.00    -0.170 C  
BRANCH   3   4
HETATM    4  N   UNL     1     -11.116  10.519  66.456  1.00  0.00    -0.005 NA 
HETATM    5  H   UNL     1     -12.063  10.716  66.132  1.00  0.00     0.000 HD 
BRANCH   4   6
HETATM    6  C   UNL     1      -9.954  11.249  65.930  1.00  0.00    -0.234 C  
HETATM    7  C   UNL     1     -10.289  12.744  65.945  1.00  0.00    -0.298 C  
HETATM    8  C   UNL     1      -9.562  10.824  64.515  1.00  0.00    -0.322 C  
ENDBRANCH   4   6
ENDBRANCH   3   4
BRANCH   3   9
HETATM    9  C   UNL     1     -10.355  10.138  68.823  1.00  0.00    -0.194 C  
HETATM   10  H   UNL     1      -8.721  10.136  69.950  1.00  0.00     0.000 HD 
HETATM   11  O   UNL     1      -9.016   9.739  69.138  1.00  0.00    -0.142 OA 
BRANCH   9  12
HETATM   12  C   UNL     1     -11.283   9.956  70.026  1.00  0.00    -0.327 A  
HETATM   13  C   UNL     1     -11.957  10.998  70.709  1.00  0.00    -0.436 A  
HETATM   14  C   UNL     1     -11.754  12.427  70.419  1.00  0.00    -0.113 C  
HETATM   15  C   UNL     1     -12.534  13.365  70.970  1.00  0.00    -0.437 C  
HETATM   16  C   UNL     1     -13.608  13.005  71.916  1.00  0.00    -0.332 C  
HETATM   17  N   UNL     1     -13.688  11.694  72.283  1.00  0.00    -0.353 N  
HETATM   18  O   UNL     1     -14.378  13.852  72.356  1.00  0.00    -0.647 OA 
HETATM   19  H   UNL     1     -14.358  11.438  73.008  1.00  0.00     0.000 HD 
HETATM   20  C   UNL     1     -12.901  10.674  71.718  1.00  0.00    -0.444 A  
HETATM   21  C   UNL     1     -13.096   9.343  72.101  1.00  0.00    -0.442 A  
HETATM   22  O   UNL     1     -13.964   8.974  73.090  1.00  0.00    -1.130 OA 
HETATM   23  C   UNL     1     -12.401   8.321  71.473  1.00  0.00    -0.336 A  
HETATM   24  H   UNL     1     -14.097   8.070  73.351  1.00  0.00     0.000 HD 
HETATM   25  C   UNL     1     -11.513   8.625  70.443  1.00  0.00    -0.151 A  
ENDBRANCH   9  12
ENDBRANCH   3   9
ENDBRANCH   2   3
TORSDOF 5
ENDMDL
MODEL       62
REMARK 921   NORMALIZED FREE ENERGY PREDICTED BY IDOCK:   -5.40 KCAL/MOL
REMARK 922        TOTAL FREE ENERGY PREDICTED BY IDOCK:   -7.83 KCAL/MOL
REMARK 923 INTER-LIGAND FREE ENERGY PREDICTED BY IDOCK:   -7.32 KCAL/MOL
REMARK 924 INTRA-LIGAND FREE ENERGY PREDICTED BY IDOCK:   -0.50 KCAL/MOL
REMARK 927      BINDING AFFINITY PREDICTED BY RF-SCORE:    0.00 PKD
ROOT
HETATM    1  C   UNL     1      -7.468  19.853  68.657  1.00  0.00    -0.276 C  
HETATM    2  C   UNL     1      -8.598  18.844  68.474  1.00  0.00    -0.383 C  
ENDROOT
BRANCH   2   3
HETATM    3  C   UNL     1      -8.628  18.137  67.091  1.00  0.00    -0.247 C  
BRANCH   3   4
HETATM    4  N   UNL     1      -7.796  18.828  66.074  1.00  0.00    -0.450 NA 
HETATM    5  H   UNL     1      -8.033  19.759  65.732  1.00  0.00     0.000 HD 
BRANCH   4   6
HETATM    6  C   UNL     1      -6.615  18.105  65.585  1.00  0.00    -0.242 C  
HETATM    7  C   UNL     1      -6.256  17.032  66.618  1.00  0.00    -0.240 C  
HETATM    8  C   UNL     1      -5.407  19.011  65.345  1.00  0.00    -0.201 C  
ENDBRANCH   4   6
ENDBRANCH   3   4
BRANCH   3   9
HETATM    9  C   UNL     1     -10.105  17.965  66.581  1.00  0.00    -0.362 C  
HETATM   10  H   UNL     1     -11.888  18.750  66.958  1.00  0.00     0.000 HD 
HETATM   11  O   UNL     1     -10.995  18.853  67.266  1.00  0.00    -0.436 OA 
BRANCH   9  12
HETATM   12  C   UNL     1     -10.644  16.533  66.580  1.00  0.00    -0.217 A  
HETATM   13  C   UNL     1     -11.055  15.809  67.726  1.00  0.00    -0.313 A  
HETATM   14  C   UNL     1     -10.903  16.309  69.103  1.00  0.00    -0.314 C  
HETATM   15  C   UNL     1     -11.457  15.668  70.139  1.00  0.00    -0.358 C  
HETATM   16  C   UNL     1     -12.216  14.417  69.944  1.00  0.00    -0.340 C  
HETATM   17  N   UNL     1     -12.225  13.894  68.684  1.00  0.00    -0.487 N  
HETATM   18  O   UNL     1     -12.797  13.873  70.878  1.00  0.00    -0.328 OA 
HETATM   19  H   UNL     1     -12.660  12.982  68.546  1.00  0.00     0.000 HD 
HETATM   20  C   UNL     1     -11.669  14.540  67.566  1.00  0.00    -0.386 A  
HETATM   21  C   UNL     1     -11.784  13.967  66.295  1.00  0.00    -0.383 A  
HETATM   22  O   UNL     1     -12.334  12.733  66.084  1.00  0.00    -0.542 OA 
HETATM   23  C   UNL     1     -11.336  14.647  65.174  1.00  0.00    -0.375 A  
HETATM   24  H   UNL     1     -12.411  12.343  65.221  1.00  0.00     0.000 HD 
HETATM   25  C   UNL     1     -10.781  15.918  65.315  1.00  0.00    -0.442 A  
ENDBRANCH   9  12
ENDBRANCH   3   9
ENDBRANCH   2   3
TORSDOF 5
ENDMDL
MODEL       63
REMARK 921   NORMALIZED FREE ENERGY PREDICTED BY IDOCK:   -5.38 KCAL/MOL
REMARK 922        TOTAL FREE ENERGY PREDICTED BY IDOCK:   -7.80 KCAL/MOL
REMARK 923 INTER-LIGAND FREE ENERGY PREDICTED BY IDOCK:   -7.14 KCAL/MOL
REMARK 924 INTRA-LIGAND FREE ENERGY PREDICTED BY IDOCK:   -0.66 KCAL/MOL
REMARK 927      BINDING AFFINITY PREDICTED BY RF-SCORE:    0.00 PKD
ROOT
HETATM    1  C   UNL     1      -8.740   8.318  70.712  1.00  0.00    -0.151 C  
HETATM    2  C   UNL     1      -8.847   8.547  69.207  1.00  0.00    -0.142 C  
ENDROOT
BRANCH   2   3
HETATM    3  C   UNL     1     -10.296   8.692  68.666  1.00  0.00    -0.193 C  
BRANCH   3   4
HETATM    4  N   UNL     1     -11.008   7.393  68.577  1.00  0.00    -0.434 NA 
HETATM    5  H   UNL     1     -12.000   7.310  68.802  1.00  0.00     0.000 HD 
BRANCH   4   6
HETATM    6  C   UNL     1     -10.215   6.233  68.148  1.00  0.00    -0.169 C  
HETATM    7  C   UNL     1     -10.744   5.776  66.785  1.00  0.00    -0.369 C  
HETATM    8  C   UNL     1     -10.263   5.068  69.136  1.00  0.00    -0.227 C  
ENDBRANCH   4   6
ENDBRANCH   3   4
BRANCH   3   9
HETATM    9  C   UNL     1     -10.305   9.430  67.278  1.00  0.00    -0.260 C  
HETATM   10  H   UNL     1      -9.037   9.774  65.791  1.00  0.00     0.000 HD 
HETATM   11  O   UNL     1      -9.032   9.328  66.630  1.00  0.00    -0.134 OA 
BRANCH   9  12
HETATM   12  C   UNL     1     -10.801  10.877  67.299  1.00  0.00    -0.342 A  
HETATM   13  C   UNL     1     -11.123  11.652  66.158  1.00  0.00    -0.335 A  
HETATM   14  C   UNL     1     -10.904  11.196  64.775  1.00  0.00    -0.277 C  
HETATM   15  C   UNL     1     -11.378  11.889  63.732  1.00  0.00    -0.532 C  
HETATM   16  C   UNL     1     -12.110  13.156  63.927  1.00  0.00    -0.470 C  
HETATM   17  N   UNL     1     -12.178  13.635  65.203  1.00  0.00    -0.407 N  
HETATM   18  O   UNL     1     -12.619  13.748  62.982  1.00  0.00    -0.721 OA 
HETATM   19  H   UNL     1     -12.593  14.555  65.349  1.00  0.00     0.000 HD 
HETATM   20  C   UNL     1     -11.708  12.933  66.328  1.00  0.00    -0.399 A  
HETATM   21  C   UNL     1     -11.881  13.466  67.609  1.00  0.00    -0.354 A  
HETATM   22  O   UNL     1     -12.407  14.708  67.833  1.00  0.00    -0.614 OA 
HETATM   23  C   UNL     1     -11.520  12.735  68.730  1.00  0.00    -0.347 A  
HETATM   24  H   UNL     1     -12.523  15.071  68.703  1.00  0.00     0.000 HD 
HETATM   25  C   UNL     1     -10.995  11.453  68.575  1.00  0.00    -0.267 A  
ENDBRANCH   9  12
ENDBRANCH   3   9
ENDBRANCH   2   3
TORSDOF 5
ENDMDL
MODEL       64
REMARK 921   NORMALIZED FREE ENERGY PREDICTED BY IDOCK:   -5.38 KCAL/MOL
REMARK 922        TOTAL FREE ENERGY PREDICTED BY IDOCK:   -7.80 KCAL/MOL
REMARK 923 INTER-LIGAND FREE ENERGY PREDICTED BY IDOCK:   -6.96 KCAL/MOL
REMARK 924 INTRA-LIGAND FREE ENERGY PREDICTED BY IDOCK:   -0.84 KCAL/MOL
REMARK 927      BINDING AFFINITY PREDICTED BY RF-SCORE:    0.00 PKD
ROOT
HETATM    1  C   UNL     1      -7.958  13.279  67.333  1.00  0.00    -0.175 C  
HETATM    2  C   UNL     1      -8.609  14.656  67.247  1.00  0.00    -0.231 C  
ENDROOT
BRANCH   2   3
HETATM    3  C   UNL     1      -9.521  14.874  66.009  1.00  0.00    -0.281 C  
BRANCH   3   4
HETATM    4  N   UNL     1      -9.589  16.297  65.589  1.00  0.00    -0.487 NA 
HETATM    5  H   UNL     1      -9.903  16.565  64.657  1.00  0.00     0.000 HD 
BRANCH   4   6
HETATM    6  C   UNL     1      -9.183  17.298  66.584  1.00  0.00    -0.257 C  
HETATM    7  C   UNL     1     -10.261  18.386  66.628  1.00  0.00    -0.416 C  
HETATM    8  C   UNL     1      -7.824  17.932  66.286  1.00  0.00    -0.296 C  
ENDBRANCH   4   6
ENDBRANCH   3   4
BRANCH   3   9
HETATM    9  C   UNL     1     -10.962  14.299  66.265  1.00  0.00    -0.317 C  
HETATM   10  H   UNL     1     -12.805  14.610  65.600  1.00  0.00     0.000 HD 
HETATM   11  O   UNL     1     -11.935  14.958  65.446  1.00  0.00    -0.262 OA 
BRANCH   9  12
HETATM   12  C   UNL     1     -11.408  14.256  67.728  1.00  0.00    -0.329 A  
HETATM   13  C   UNL     1     -11.565  13.082  68.504  1.00  0.00    -0.363 A  
HETATM   14  C   UNL     1     -11.430  11.720  67.960  1.00  0.00    -0.388 C  
HETATM   15  C   UNL     1     -11.419  10.649  68.763  1.00  0.00    -0.330 C  
HETATM   16  C   UNL     1     -11.574  10.790  70.224  1.00  0.00    -0.338 C  
HETATM   17  N   UNL     1     -11.841  12.042  70.695  1.00  0.00    -0.468 N  
HETATM   18  O   UNL     1     -11.479   9.821  70.969  1.00  0.00    -0.322 OA 
HETATM   19  H   UNL     1     -12.048  12.147  71.688  1.00  0.00     0.000 HD 
HETATM   20  C   UNL     1     -11.847  13.195  69.891  1.00  0.00    -0.308 A  
HETATM   21  C   UNL     1     -12.061  14.451  70.467  1.00  0.00    -0.334 A  
HETATM   22  O   UNL     1     -12.369  14.620  71.788  1.00  0.00    -0.328 OA 
HETATM   23  C   UNL     1     -11.960  15.603  69.701  1.00  0.00    -0.367 A  
HETATM   24  H   UNL     1     -12.515  15.474  72.179  1.00  0.00     0.000 HD 
HETATM   25  C   UNL     1     -11.629  15.505  68.351  1.00  0.00    -0.368 A  
ENDBRANCH   9  12
ENDBRANCH   3   9
ENDBRANCH   2   3
TORSDOF 5
ENDMDL
MODEL       65
REMARK 921   NORMALIZED FREE ENERGY PREDICTED BY IDOCK:   -5.37 KCAL/MOL
REMARK 922        TOTAL FREE ENERGY PREDICTED BY IDOCK:   -7.78 KCAL/MOL
REMARK 923 INTER-LIGAND FREE ENERGY PREDICTED BY IDOCK:   -6.77 KCAL/MOL
REMARK 924 INTRA-LIGAND FREE ENERGY PREDICTED BY IDOCK:   -1.02 KCAL/MOL
REMARK 927      BINDING AFFINITY PREDICTED BY RF-SCORE:    0.00 PKD
ROOT
HETATM    1  C   UNL     1     -11.357  15.453  71.540  1.00  0.00    -0.461 C  
HETATM    2  C   UNL     1     -12.150  15.403  70.237  1.00  0.00    -0.402 C  
ENDROOT
BRANCH   2   3
HETATM    3  C   UNL     1     -11.354  14.894  69.004  1.00  0.00    -0.292 C  
BRANCH   3   4
HETATM    4  N   UNL     1     -11.167  15.942  67.970  1.00  0.00    -0.340 NA 
HETATM    5  H   UNL     1     -11.955  16.328  67.450  1.00  0.00     0.000 HD 
BRANCH   4   6
HETATM    6  C   UNL     1      -9.790  16.396  67.732  1.00  0.00    -0.239 C  
HETATM    7  C   UNL     1      -9.443  16.108  66.268  1.00  0.00    -0.347 C  
HETATM    8  C   UNL     1      -8.764  15.723  68.645  1.00  0.00    -0.195 C  
ENDBRANCH   4   6
ENDBRANCH   3   4
BRANCH   3   9
HETATM    9  C   UNL     1     -12.032  13.617  68.388  1.00  0.00    -0.356 C  
HETATM   10  H   UNL     1     -12.363  11.732  68.914  1.00  0.00     0.000 HD 
HETATM   11  O   UNL     1     -11.954  12.505  69.287  1.00  0.00    -0.296 OA 
BRANCH   9  12
HETATM   12  C   UNL     1     -11.562  13.228  66.985  1.00  0.00    -0.404 A  
HETATM   13  C   UNL     1     -10.346  12.567  66.680  1.00  0.00    -0.244 A  
HETATM   14  C   UNL     1      -9.307  12.269  67.680  1.00  0.00    -0.186 C  
HETATM   15  C   UNL     1      -8.257  11.496  67.380  1.00  0.00    -0.149 C  
HETATM   16  C   UNL     1      -8.082  10.938  66.024  1.00  0.00    -0.142 C  
HETATM   17  N   UNL     1      -8.975  11.341  65.076  1.00  0.00    -0.383 N  
HETATM   18  O   UNL     1      -7.168  10.161  65.769  1.00  0.00    -0.114 OA 
HETATM   19  H   UNL     1      -8.818  11.047  64.112  1.00  0.00     0.000 HD 
HETATM   20  C   UNL     1     -10.101  12.139  65.349  1.00  0.00    -0.255 A  
HETATM   21  C   UNL     1     -11.006  12.448  64.330  1.00  0.00    -0.351 A  
HETATM   22  O   UNL     1     -10.806  12.093  63.025  1.00  0.00    -0.656 OA 
HETATM   23  C   UNL     1     -12.173  13.141  64.611  1.00  0.00    -0.471 A  
HETATM   24  H   UNL     1     -11.421  12.303  62.332  1.00  0.00     0.000 HD 
HETATM   25  C   UNL     1     -12.450  13.518  65.924  1.00  0.00    -0.484 A  
ENDBRANCH   9  12
ENDBRANCH   3   9
ENDBRANCH   2   3
TORSDOF 5
ENDMDL
MODEL       66
REMARK 921   NORMALIZED FREE ENERGY PREDICTED BY IDOCK:   -5.31 KCAL/MOL
REMARK 922        TOTAL FREE ENERGY PREDICTED BY IDOCK:   -7.72 KCAL/MOL
REMARK 923 INTER-LIGAND FREE ENERGY PREDICTED BY IDOCK:   -7.03 KCAL/MOL
REMARK 924 INTRA-LIGAND FREE ENERGY PREDICTED BY IDOCK:   -0.68 KCAL/MOL
REMARK 927      BINDING AFFINITY PREDICTED BY RF-SCORE:    0.00 PKD
ROOT
HETATM    1  C   UNL     1     -12.004  13.540  68.593  1.00  0.00    -0.378 C  
HETATM    2  C   UNL     1     -11.942  14.630  67.527  1.00  0.00    -0.309 C  
ENDROOT
BRANCH   2   3
HETATM    3  C   UNL     1     -10.581  15.371  67.425  1.00  0.00    -0.289 C  
BRANCH   3   4
HETATM    4  N   UNL     1     -10.699  16.827  67.691  1.00  0.00    -0.331 NA 
HETATM    5  H   UNL     1     -11.293  17.429  67.120  1.00  0.00     0.000 HD 
BRANCH   4   6
HETATM    6  C   UNL     1      -9.919  17.357  68.817  1.00  0.00    -0.329 C  
HETATM    7  C   UNL     1     -10.070  18.882  68.819  1.00  0.00    -0.415 C  
HETATM    8  C   UNL     1      -8.437  16.987  68.754  1.00  0.00    -0.237 C  
ENDBRANCH   4   6
ENDBRANCH   3   4
BRANCH   3   9
HETATM    9  C   UNL     1      -9.905  15.112  66.030  1.00  0.00    -0.320 C  
HETATM   10  H   UNL     1      -9.385  16.169  64.432  1.00  0.00     0.000 HD 
HETATM   11  O   UNL     1      -9.793  16.325  65.276  1.00  0.00    -0.470 OA 
BRANCH   9  12
HETATM   12  C   UNL     1     -10.525  13.994  65.190  1.00  0.00    -0.415 A  
HETATM   13  C   UNL     1     -10.198  12.619  65.282  1.00  0.00    -0.302 A  
HETATM   14  C   UNL     1      -9.115  12.094  66.130  1.00  0.00    -0.101 C  
HETATM   15  C   UNL     1      -8.954  10.778  66.315  1.00  0.00    -0.184 C  
HETATM   16  C   UNL     1      -9.836   9.800  65.649  1.00  0.00    -0.301 C  
HETATM   17  N   UNL     1     -10.740  10.298  64.757  1.00  0.00     0.028 N  
HETATM   18  O   UNL     1      -9.745   8.600  65.883  1.00  0.00    -0.209 OA 
HETATM   19  H   UNL     1     -11.293   9.635  64.213  1.00  0.00     0.000 HD 
HETATM   20  C   UNL     1     -10.954  11.671  64.543  1.00  0.00    -0.314 A  
HETATM   21  C   UNL     1     -11.950  12.097  63.660  1.00  0.00    -0.534 A  
HETATM   22  O   UNL     1     -12.686  11.234  62.897  1.00  0.00    -0.876 OA 
HETATM   23  C   UNL     1     -12.241  13.446  63.525  1.00  0.00    -0.468 A  
HETATM   24  H   UNL     1     -13.363  11.523  62.297  1.00  0.00     0.000 HD 
HETATM   25  C   UNL     1     -11.543  14.380  64.288  1.00  0.00    -0.279 A  
ENDBRANCH   9  12
ENDBRANCH   3   9
ENDBRANCH   2   3
TORSDOF 5
ENDMDL
MODEL       67
REMARK 921   NORMALIZED FREE ENERGY PREDICTED BY IDOCK:   -5.31 KCAL/MOL
REMARK 922        TOTAL FREE ENERGY PREDICTED BY IDOCK:   -7.71 KCAL/MOL
REMARK 923 INTER-LIGAND FREE ENERGY PREDICTED BY IDOCK:   -6.85 KCAL/MOL
REMARK 924 INTRA-LIGAND FREE ENERGY PREDICTED BY IDOCK:   -0.87 KCAL/MOL
REMARK 927      BINDING AFFINITY PREDICTED BY RF-SCORE:    0.00 PKD
ROOT
HETATM    1  C   UNL     1      -9.393   7.652  66.461  1.00  0.00    -0.241 C  
HETATM    2  C   UNL     1     -10.504   7.840  67.490  1.00  0.00    -0.338 C  
ENDROOT
BRANCH   2   3
HETATM    3  C   UNL     1     -10.212   8.903  68.584  1.00  0.00    -0.200 C  
BRANCH   3   4
HETATM    4  N   UNL     1     -11.444   9.403  69.244  1.00  0.00    -0.423 NA 
HETATM    5  H   UNL     1     -12.156   9.920  68.727  1.00  0.00     0.000 HD 
BRANCH   4   6
HETATM    6  C   UNL     1     -11.589   9.115  70.677  1.00  0.00    -0.235 C  
HETATM    7  C   UNL     1     -12.486  10.197  71.288  1.00  0.00    -0.510 C  
HETATM    8  C   UNL     1     -10.255   9.071  71.423  1.00  0.00    -0.399 C  
ENDBRANCH   4   6
ENDBRANCH   3   4
BRANCH   3   9
HETATM    9  C   UNL     1      -9.371  10.096  67.997  1.00  0.00    -0.141 C  
HETATM   10  H   UNL     1      -7.680  11.045  68.417  1.00  0.00     0.000 HD 
HETATM   11  O   UNL     1      -8.188  10.324  68.771  1.00  0.00    -0.104 OA 
BRANCH   9  12
HETATM   12  C   UNL     1     -10.140  11.398  67.765  1.00  0.00    -0.198 A  
HETATM   13  C   UNL     1     -10.642  11.844  66.518  1.00  0.00    -0.278 A  
HETATM   14  C   UNL     1     -10.381  11.158  65.242  1.00  0.00    -0.336 C  
HETATM   15  C   UNL     1     -11.013  11.518  64.118  1.00  0.00    -0.434 C  
HETATM   16  C   UNL     1     -11.973  12.639  64.108  1.00  0.00    -0.426 C  
HETATM   17  N   UNL     1     -12.094  13.353  65.264  1.00  0.00    -0.387 N  
HETATM   18  O   UNL     1     -12.617  12.917  63.102  1.00  0.00    -0.636 OA 
HETATM   19  H   UNL     1     -12.677  14.190  65.253  1.00  0.00     0.000 HD 
HETATM   20  C   UNL     1     -11.462  13.002  66.471  1.00  0.00    -0.340 A  
HETATM   21  C   UNL     1     -11.696  13.749  67.629  1.00  0.00    -0.367 A  
HETATM   22  O   UNL     1     -12.447  14.891  67.638  1.00  0.00    -0.436 OA 
HETATM   23  C   UNL     1     -11.164  13.348  68.844  1.00  0.00    -0.320 A  
HETATM   24  H   UNL     1     -12.606  15.399  68.425  1.00  0.00     0.000 HD 
HETATM   25  C   UNL     1     -10.404  12.182  68.911  1.00  0.00    -0.098 A  
ENDBRANCH   9  12
ENDBRANCH   3   9
ENDBRANCH   2   3
TORSDOF 5
ENDMDL
MODEL       68
REMARK 921   NORMALIZED FREE ENERGY PREDICTED BY IDOCK:   -5.29 KCAL/MOL
REMARK 922        TOTAL FREE ENERGY PREDICTED BY IDOCK:   -7.69 KCAL/MOL
REMARK 923 INTER-LIGAND FREE ENERGY PREDICTED BY IDOCK:   -6.65 KCAL/MOL
REMARK 924 INTRA-LIGAND FREE ENERGY PREDICTED BY IDOCK:   -1.04 KCAL/MOL
REMARK 927      BINDING AFFINITY PREDICTED BY RF-SCORE:    0.00 PKD
ROOT
HETATM    1  C   UNL     1      -5.795  17.890  69.536  1.00  0.00    -0.238 C  
HETATM    2  C   UNL     1      -7.188  18.094  68.946  1.00  0.00    -0.268 C  
ENDROOT
BRANCH   2   3
HETATM    3  C   UNL     1      -7.430  17.395  67.580  1.00  0.00    -0.183 C  
BRANCH   3   4
HETATM    4  N   UNL     1      -8.563  17.987  66.825  1.00  0.00    -0.248 NA 
HETATM    5  H   UNL     1      -8.778  17.699  65.871  1.00  0.00     0.000 HD 
BRANCH   4   6
HETATM    6  C   UNL     1      -9.359  19.006  67.522  1.00  0.00    -0.298 C  
HETATM    7  C   UNL     1     -10.826  18.569  67.483  1.00  0.00    -0.337 C  
HETATM    8  C   UNL     1      -9.222  20.402  66.912  1.00  0.00    -0.450 C  
ENDBRANCH   4   6
ENDBRANCH   3   4
BRANCH   3   9
HETATM    9  C   UNL     1      -7.635  15.847  67.771  1.00  0.00    -0.140 C  
HETATM   10  H   UNL     1      -6.775  14.167  67.159  1.00  0.00     0.000 HD 
HETATM   11  O   UNL     1      -6.651  15.102  67.045  1.00  0.00    -0.233 OA 
BRANCH   9  12
HETATM   12  C   UNL     1      -9.045  15.326  67.487  1.00  0.00    -0.189 A  
HETATM   13  C   UNL     1     -10.097  15.243  68.433  1.00  0.00    -0.220 A  
HETATM   14  C   UNL     1      -9.930  15.543  69.865  1.00  0.00    -0.243 C  
HETATM   15  C   UNL     1     -10.984  15.615  70.686  1.00  0.00    -0.364 C  
HETATM   16  C   UNL     1     -12.354  15.365  70.194  1.00  0.00    -0.361 C  
HETATM   17  N   UNL     1     -12.474  14.949  68.901  1.00  0.00    -0.553 N  
HETATM   18  O   UNL     1     -13.328  15.513  70.923  1.00  0.00    -0.492 OA 
HETATM   19  H   UNL     1     -13.399  14.676  68.568  1.00  0.00     0.000 HD 
HETATM   20  C   UNL     1     -11.397  14.873  68.000  1.00  0.00    -0.324 A  
HETATM   21  C   UNL     1     -11.619  14.503  66.670  1.00  0.00    -0.375 A  
HETATM   22  O   UNL     1     -12.841  14.106  66.203  1.00  0.00    -0.502 OA 
HETATM   23  C   UNL     1     -10.583  14.532  65.749  1.00  0.00    -0.326 A  
HETATM   24  H   UNL     1     -12.992  13.854  65.299  1.00  0.00     0.000 HD 
HETATM   25  C   UNL     1      -9.315  14.946  66.152  1.00  0.00    -0.307 A  
ENDBRANCH   9  12
ENDBRANCH   3   9
ENDBRANCH   2   3
TORSDOF 5
ENDMDL
MODEL       69
REMARK 921   NORMALIZED FREE ENERGY PREDICTED BY IDOCK:   -5.28 KCAL/MOL
REMARK 922        TOTAL FREE ENERGY PREDICTED BY IDOCK:   -7.67 KCAL/MOL
REMARK 923 INTER-LIGAND FREE ENERGY PREDICTED BY IDOCK:   -7.00 KCAL/MOL
REMARK 924 INTRA-LIGAND FREE ENERGY PREDICTED BY IDOCK:   -0.68 KCAL/MOL
REMARK 927      BINDING AFFINITY PREDICTED BY RF-SCORE:    0.00 PKD
ROOT
HETATM    1  C   UNL     1      -7.553  13.421  67.514  1.00  0.00    -0.176 C  
HETATM    2  C   UNL     1      -8.931  13.840  68.016  1.00  0.00    -0.187 C  
ENDROOT
BRANCH   2   3
HETATM    3  C   UNL     1      -9.955  14.192  66.902  1.00  0.00    -0.261 C  
BRANCH   3   4
HETATM    4  N   UNL     1     -10.428  15.597  66.979  1.00  0.00    -0.297 NA 
HETATM    5  H   UNL     1     -11.349  15.871  66.637  1.00  0.00     0.000 HD 
BRANCH   4   6
HETATM    6  C   UNL     1      -9.505  16.572  67.575  1.00  0.00    -0.224 C  
HETATM    7  C   UNL     1     -10.257  17.324  68.678  1.00  0.00    -0.351 C  
HETATM    8  C   UNL     1      -8.943  17.571  66.563  1.00  0.00    -0.284 C  
ENDBRANCH   4   6
ENDBRANCH   3   4
BRANCH   3   9
HETATM    9  C   UNL     1     -11.169  13.193  66.921  1.00  0.00    -0.296 C  
HETATM   10  H   UNL     1     -13.122  13.251  66.573  1.00  0.00     0.000 HD 
HETATM   11  O   UNL     1     -12.388  13.854  66.562  1.00  0.00    -0.445 OA 
BRANCH   9  12
HETATM   12  C   UNL     1     -11.339  12.380  68.206  1.00  0.00    -0.332 A  
HETATM   13  C   UNL     1     -11.896  12.863  69.416  1.00  0.00    -0.371 A  
HETATM   14  C   UNL     1     -12.282  14.267  69.632  1.00  0.00    -0.371 C  
HETATM   15  C   UNL     1     -12.958  14.640  70.725  1.00  0.00    -0.405 C  
HETATM   16  C   UNL     1     -13.315  13.663  71.773  1.00  0.00    -0.388 C  
HETATM   17  N   UNL     1     -12.825  12.399  71.624  1.00  0.00    -0.322 N  
HETATM   18  O   UNL     1     -14.007  13.985  72.733  1.00  0.00    -0.669 OA 
HETATM   19  H   UNL     1     -12.976  11.733  72.382  1.00  0.00     0.000 HD 
HETATM   20  C   UNL     1     -12.125  11.960  70.487  1.00  0.00    -0.331 A  
HETATM   21  C   UNL     1     -11.718  10.626  70.384  1.00  0.00    -0.353 A  
HETATM   22  O   UNL     1     -11.881   9.719  71.395  1.00  0.00    -0.361 OA 
HETATM   23  C   UNL     1     -11.124  10.158  69.222  1.00  0.00    -0.270 A  
HETATM   24  H   UNL     1     -11.605   8.813  71.325  1.00  0.00     0.000 HD 
HETATM   25  C   UNL     1     -10.946  11.024  68.144  1.00  0.00    -0.301 A  
ENDBRANCH   9  12
ENDBRANCH   3   9
ENDBRANCH   2   3
TORSDOF 5
ENDMDL
MODEL       70
REMARK 921   NORMALIZED FREE ENERGY PREDICTED BY IDOCK:   -5.27 KCAL/MOL
REMARK 922        TOTAL FREE ENERGY PREDICTED BY IDOCK:   -7.66 KCAL/MOL
REMARK 923 INTER-LIGAND FREE ENERGY PREDICTED BY IDOCK:   -7.38 KCAL/MOL
REMARK 924 INTRA-LIGAND FREE ENERGY PREDICTED BY IDOCK:   -0.28 KCAL/MOL
REMARK 927      BINDING AFFINITY PREDICTED BY RF-SCORE:    0.00 PKD
ROOT
HETATM    1  C   UNL     1     -12.396  13.428  65.231  1.00  0.00    -0.513 C  
HETATM    2  C   UNL     1     -11.445  13.192  66.400  1.00  0.00    -0.374 C  
ENDROOT
BRANCH   2   3
HETATM    3  C   UNL     1     -11.897  13.813  67.750  1.00  0.00    -0.369 C  
BRANCH   3   4
HETATM    4  N   UNL     1     -11.877  15.297  67.734  1.00  0.00    -0.385 NA 
HETATM    5  H   UNL     1     -12.738  15.844  67.738  1.00  0.00     0.000 HD 
BRANCH   4   6
HETATM    6  C   UNL     1     -10.556  15.939  67.714  1.00  0.00    -0.302 C  
HETATM    7  C   UNL     1     -10.489  16.921  68.888  1.00  0.00    -0.346 C  
HETATM    8  C   UNL     1     -10.262  16.678  66.408  1.00  0.00    -0.322 C  
ENDBRANCH   4   6
ENDBRANCH   3   4
BRANCH   3   9
HETATM    9  C   UNL     1     -11.035  13.256  68.941  1.00  0.00    -0.240 C  
HETATM   10  H   UNL     1      -9.232  12.469  69.205  1.00  0.00     0.000 HD 
HETATM   11  O   UNL     1      -9.754  12.805  68.485  1.00  0.00    -0.206 OA 
BRANCH   9  12
HETATM   12  C   UNL     1     -11.714  12.199  69.814  1.00  0.00    -0.381 A  
HETATM   13  C   UNL     1     -11.548  10.798  69.687  1.00  0.00    -0.388 A  
HETATM   14  C   UNL     1     -10.778  10.163  68.604  1.00  0.00    -0.253 C  
HETATM   15  C   UNL     1     -10.507   8.853  68.621  1.00  0.00    -0.223 C  
HETATM   16  C   UNL     1     -10.998   7.986  69.710  1.00  0.00    -0.137 C  
HETATM   17  N   UNL     1     -11.828   8.563  70.626  1.00  0.00    -0.471 N  
HETATM   18  O   UNL     1     -10.680   6.803  69.773  1.00  0.00    -0.220 OA 
HETATM   19  H   UNL     1     -12.257   7.962  71.331  1.00  0.00     0.000 HD 
HETATM   20  C   UNL     1     -12.126   9.937  70.656  1.00  0.00    -0.257 A  
HETATM   21  C   UNL     1     -12.932  10.458  71.673  1.00  0.00    -0.475 A  
HETATM   22  O   UNL     1     -13.543   9.675  72.612  1.00  0.00    -0.676 OA 
HETATM   23  C   UNL     1     -13.142  11.824  71.773  1.00  0.00    -0.480 A  
HETATM   24  H   UNL     1     -14.090  10.029  73.303  1.00  0.00     0.000 HD 
HETATM   25  C   UNL     1     -12.533  12.683  70.859  1.00  0.00    -0.368 A  
ENDBRANCH   9  12
ENDBRANCH   3   9
ENDBRANCH   2   3
TORSDOF 5
ENDMDL
MODEL       71
REMARK 921   NORMALIZED FREE ENERGY PREDICTED BY IDOCK:   -5.15 KCAL/MOL
REMARK 922        TOTAL FREE ENERGY PREDICTED BY IDOCK:   -7.51 KCAL/MOL
REMARK 923 INTER-LIGAND FREE ENERGY PREDICTED BY IDOCK:   -6.86 KCAL/MOL
REMARK 924 INTRA-LIGAND FREE ENERGY PREDICTED BY IDOCK:   -0.65 KCAL/MOL
REMARK 927      BINDING AFFINITY PREDICTED BY RF-SCORE:    0.00 PKD
ROOT
HETATM    1  C   UNL     1     -13.427  15.387  71.485  1.00  0.00    -0.601 C  
HETATM    2  C   UNL     1     -12.305  15.433  70.451  1.00  0.00    -0.443 C  
ENDROOT
BRANCH   2   3
HETATM    3  C   UNL     1     -12.269  14.230  69.470  1.00  0.00    -0.297 C  
BRANCH   3   4
HETATM    4  N   UNL     1     -11.351  13.152  69.917  1.00  0.00    -0.506 NA 
HETATM    5  H   UNL     1     -10.397  13.352  70.216  1.00  0.00     0.000 HD 
BRANCH   4   6
HETATM    6  C   UNL     1     -11.885  11.784  69.907  1.00  0.00    -0.348 C  
HETATM    7  C   UNL     1     -12.625  11.555  71.229  1.00  0.00    -0.452 C  
HETATM    8  C   UNL     1     -10.808  10.714  69.728  1.00  0.00    -0.317 C  
ENDBRANCH   4   6
ENDBRANCH   3   4
BRANCH   3   9
HETATM    9  C   UNL     1     -11.906  14.703  68.015  1.00  0.00    -0.311 C  
HETATM   10  H   UNL     1     -12.235  14.104  66.152  1.00  0.00     0.000 HD 
HETATM   11  O   UNL     1     -12.454  13.818  67.031  1.00  0.00    -0.315 OA 
BRANCH   9  12
HETATM   12  C   UNL     1     -10.422  14.968  67.755  1.00  0.00    -0.249 A  
HETATM   13  C   UNL     1      -9.779  16.225  67.873  1.00  0.00    -0.233 A  
HETATM   14  C   UNL     1     -10.492  17.483  68.152  1.00  0.00    -0.386 C  
HETATM   15  C   UNL     1      -9.828  18.613  68.422  1.00  0.00    -0.424 C  
HETATM   16  C   UNL     1      -8.352  18.649  68.419  1.00  0.00    -0.334 C  
HETATM   17  N   UNL     1      -7.711  17.513  68.019  1.00  0.00    -0.205 N  
HETATM   18  O   UNL     1      -7.740  19.660  68.749  1.00  0.00    -0.342 OA 
HETATM   19  H   UNL     1      -6.697  17.545  67.916  1.00  0.00     0.000 HD 
HETATM   20  C   UNL     1      -8.368  16.301  67.742  1.00  0.00    -0.161 A  
HETATM   21  C   UNL     1      -7.628  15.163  67.405  1.00  0.00    -0.203 A  
HETATM   22  O   UNL     1      -6.272  15.183  67.231  1.00  0.00    -0.318 OA 
HETATM   23  C   UNL     1      -8.257  13.940  67.236  1.00  0.00    -0.176 A  
HETATM   24  H   UNL     1      -5.769  14.410  67.002  1.00  0.00     0.000 HD 
HETATM   25  C   UNL     1      -9.635  13.843  67.418  1.00  0.00    -0.235 A  
ENDBRANCH   9  12
ENDBRANCH   3   9
ENDBRANCH   2   3
TORSDOF 5
ENDMDL
MODEL       72
REMARK 921   NORMALIZED FREE ENERGY PREDICTED BY IDOCK:   -5.14 KCAL/MOL
REMARK 922        TOTAL FREE ENERGY PREDICTED BY IDOCK:   -7.50 KCAL/MOL
REMARK 923 INTER-LIGAND FREE ENERGY PREDICTED BY IDOCK:   -6.99 KCAL/MOL
REMARK 924 INTRA-LIGAND FREE ENERGY PREDICTED BY IDOCK:   -0.51 KCAL/MOL
REMARK 927      BINDING AFFINITY PREDICTED BY RF-SCORE:    0.00 PKD
ROOT
HETATM    1  C   UNL     1     -12.336  14.299  71.378  1.00  0.00    -0.431 C  
HETATM    2  C   UNL     1     -11.996  14.176  69.896  1.00  0.00    -0.398 C  
ENDROOT
BRANCH   2   3
HETATM    3  C   UNL     1     -12.033  12.729  69.332  1.00  0.00    -0.263 C  
BRANCH   3   4
HETATM    4  N   UNL     1     -11.260  11.771  70.161  1.00  0.00    -0.456 NA 
HETATM    5  H   UNL     1     -10.337  12.003  70.528  1.00  0.00     0.000 HD 
BRANCH   4   6
HETATM    6  C   UNL     1     -11.890  10.471  70.428  1.00  0.00    -0.340 C  
HETATM    7  C   UNL     1     -12.950  10.673  71.516  1.00  0.00    -0.566 C  
HETATM    8  C   UNL     1     -10.897   9.396  70.870  1.00  0.00    -0.392 C  
ENDBRANCH   4   6
ENDBRANCH   3   4
BRANCH   3   9
HETATM    9  C   UNL     1     -11.542  12.697  67.839  1.00  0.00    -0.349 C  
HETATM   10  H   UNL     1     -11.502  11.402  66.335  1.00  0.00     0.000 HD 
HETATM   11  O   UNL     1     -11.798  11.422  67.238  1.00  0.00    -0.594 OA 
BRANCH   9  12
HETATM   12  C   UNL     1     -10.096  13.137  67.606  1.00  0.00    -0.221 A  
HETATM   13  C   UNL     1      -9.694  14.359  67.013  1.00  0.00    -0.256 A  
HETATM   14  C   UNL     1     -10.635  15.328  66.426  1.00  0.00    -0.308 C  
HETATM   15  C   UNL     1     -10.227  16.540  66.032  1.00  0.00    -0.372 C  
HETATM   16  C   UNL     1      -8.810  16.942  66.140  1.00  0.00    -0.244 C  
HETATM   17  N   UNL     1      -7.932  15.983  66.551  1.00  0.00    -0.264 N  
HETATM   18  O   UNL     1      -8.449  18.079  65.860  1.00  0.00    -0.509 OA 
HETATM   19  H   UNL     1      -6.936  16.207  66.541  1.00  0.00     0.000 HD 
HETATM   20  C   UNL     1      -8.317  14.703  66.989  1.00  0.00    -0.185 A  
HETATM   21  C   UNL     1      -7.357  13.804  67.461  1.00  0.00    -0.162 A  
HETATM   22  O   UNL     1      -6.015  14.065  67.431  1.00  0.00    -0.350 OA 
HETATM   23  C   UNL     1      -7.738  12.583  67.995  1.00  0.00    -0.140 A  
HETATM   24  H   UNL     1      -5.362  13.454  67.752  1.00  0.00     0.000 HD 
HETATM   25  C   UNL     1      -9.092  12.259  68.074  1.00  0.00    -0.191 A  
ENDBRANCH   9  12
ENDBRANCH   3   9
ENDBRANCH   2   3
TORSDOF 5
ENDMDL
MODEL       73
REMARK 921   NORMALIZED FREE ENERGY PREDICTED BY IDOCK:   -5.14 KCAL/MOL
REMARK 922        TOTAL FREE ENERGY PREDICTED BY IDOCK:   -7.49 KCAL/MOL
REMARK 923 INTER-LIGAND FREE ENERGY PREDICTED BY IDOCK:   -6.85 KCAL/MOL
REMARK 924 INTRA-LIGAND FREE ENERGY PREDICTED BY IDOCK:   -0.64 KCAL/MOL
REMARK 927      BINDING AFFINITY PREDICTED BY RF-SCORE:    0.00 PKD
ROOT
HETATM    1  C   UNL     1     -10.278  19.787  66.140  1.00  0.00    -0.618 C  
HETATM    2  C   UNL     1     -10.710  18.347  65.881  1.00  0.00    -0.209 C  
ENDROOT
BRANCH   2   3
HETATM    3  C   UNL     1      -9.715  17.264  66.380  1.00  0.00    -0.290 C  
BRANCH   3   4
HETATM    4  N   UNL     1      -8.344  17.453  65.845  1.00  0.00    -0.547 NA 
HETATM    5  H   UNL     1      -8.168  17.544  64.844  1.00  0.00     0.000 HD 
BRANCH   4   6
HETATM    6  C   UNL     1      -7.253  17.503  66.827  1.00  0.00    -0.215 C  
HETATM    7  C   UNL     1      -6.171  18.443  66.285  1.00  0.00    -0.226 C  
HETATM    8  C   UNL     1      -6.642  16.133  67.124  1.00  0.00    -0.208 C  
ENDBRANCH   4   6
ENDBRANCH   3   4
BRANCH   3   9
HETATM    9  C   UNL     1     -10.247  15.821  66.054  1.00  0.00    -0.333 C  
HETATM   10  H   UNL     1     -11.438  14.964  64.717  1.00  0.00     0.000 HD 
HETATM   11  O   UNL     1     -11.116  15.835  64.915  1.00  0.00    -0.422 OA 
BRANCH   9  12
HETATM   12  C   UNL     1     -10.883  15.068  67.224  1.00  0.00    -0.310 A  
HETATM   13  C   UNL     1     -11.078  13.666  67.290  1.00  0.00    -0.309 A  
HETATM   14  C   UNL     1     -10.798  12.751  66.172  1.00  0.00    -0.303 C  
HETATM   15  C   UNL     1     -10.836  11.423  66.335  1.00  0.00    -0.323 C  
HETATM   16  C   UNL     1     -11.193  10.824  67.637  1.00  0.00    -0.299 C  
HETATM   17  N   UNL     1     -11.588  11.684  68.619  1.00  0.00    -0.285 N  
HETATM   18  O   UNL     1     -11.146   9.611  67.813  1.00  0.00    -0.219 OA 
HETATM   19  H   UNL     1     -11.932  11.288  69.494  1.00  0.00     0.000 HD 
HETATM   20  C   UNL     1     -11.549  13.084  68.496  1.00  0.00    -0.328 A  
HETATM   21  C   UNL     1     -11.906  13.894  69.578  1.00  0.00    -0.329 A  
HETATM   22  O   UNL     1     -12.398  13.393  70.752  1.00  0.00    -0.353 OA 
HETATM   23  C   UNL     1     -11.767  15.271  69.503  1.00  0.00    -0.359 A  
HETATM   24  H   UNL     1     -12.641  13.943  71.487  1.00  0.00     0.000 HD 
HETATM   25  C   UNL     1     -11.253  15.848  68.343  1.00  0.00    -0.368 A  
ENDBRANCH   9  12
ENDBRANCH   3   9
ENDBRANCH   2   3
TORSDOF 5
ENDMDL
MODEL       74
REMARK 921   NORMALIZED FREE ENERGY PREDICTED BY IDOCK:   -5.13 KCAL/MOL
REMARK 922        TOTAL FREE ENERGY PREDICTED BY IDOCK:   -7.48 KCAL/MOL
REMARK 923 INTER-LIGAND FREE ENERGY PREDICTED BY IDOCK:   -6.78 KCAL/MOL
REMARK 924 INTRA-LIGAND FREE ENERGY PREDICTED BY IDOCK:   -0.71 KCAL/MOL
REMARK 927      BINDING AFFINITY PREDICTED BY RF-SCORE:    0.00 PKD
ROOT
HETATM    1  C   UNL     1     -10.622  19.539  67.756  1.00  0.00    -0.542 C  
HETATM    2  C   UNL     1     -10.659  18.036  67.498  1.00  0.00    -0.402 C  
ENDROOT
BRANCH   2   3
HETATM    3  C   UNL     1      -9.499  17.492  66.619  1.00  0.00    -0.275 C  
BRANCH   3   4
HETATM    4  N   UNL     1      -8.685  18.574  66.010  1.00  0.00    -0.497 NA 
HETATM    5  H   UNL     1      -9.033  19.129  65.227  1.00  0.00     0.000 HD 
BRANCH   4   6
HETATM    6  C   UNL     1      -7.356  18.806  66.589  1.00  0.00    -0.225 C  
HETATM    7  C   UNL     1      -6.703  19.964  65.828  1.00  0.00    -0.283 C  
HETATM    8  C   UNL     1      -6.448  17.577  66.533  1.00  0.00    -0.269 C  
ENDBRANCH   4   6
ENDBRANCH   3   4
BRANCH   3   9
HETATM    9  C   UNL     1     -10.043  16.514  65.515  1.00  0.00    -0.174 C  
HETATM   10  H   UNL     1     -11.407  16.540  64.075  1.00  0.00     0.000 HD 
HETATM   11  O   UNL     1     -11.078  17.131  64.742  1.00  0.00    -0.909 OA 
BRANCH   9  12
HETATM   12  C   UNL     1     -10.471  15.130  66.009  1.00  0.00    -0.330 A  
HETATM   13  C   UNL     1      -9.632  14.197  66.667  1.00  0.00    -0.301 A  
HETATM   14  C   UNL     1      -8.186  14.396  66.860  1.00  0.00    -0.048 C  
HETATM   15  C   UNL     1      -7.469  13.571  67.633  1.00  0.00    -0.187 C  
HETATM   16  C   UNL     1      -8.095  12.411  68.298  1.00  0.00    -0.166 C  
HETATM   17  N   UNL     1      -9.401  12.161  67.993  1.00  0.00    -0.192 N  
HETATM   18  O   UNL     1      -7.462  11.704  69.074  1.00  0.00    -0.110 OA 
HETATM   19  H   UNL     1      -9.827  11.311  68.363  1.00  0.00     0.000 HD 
HETATM   20  C   UNL     1     -10.195  13.008  67.199  1.00  0.00    -0.243 A  
HETATM   21  C   UNL     1     -11.547  12.714  66.994  1.00  0.00    -0.365 A  
HETATM   22  O   UNL     1     -12.136  11.568  67.452  1.00  0.00    -0.593 OA 
HETATM   23  C   UNL     1     -12.362  13.597  66.304  1.00  0.00    -0.464 A  
HETATM   24  H   UNL     1     -13.054  11.368  67.312  1.00  0.00     0.000 HD 
HETATM   25  C   UNL     1     -11.831  14.794  65.826  1.00  0.00    -0.202 A  
ENDBRANCH   9  12
ENDBRANCH   3   9
ENDBRANCH   2   3
TORSDOF 5
ENDMDL
MODEL       75
REMARK 921   NORMALIZED FREE ENERGY PREDICTED BY IDOCK:   -5.13 KCAL/MOL
REMARK 922        TOTAL FREE ENERGY PREDICTED BY IDOCK:   -7.48 KCAL/MOL
REMARK 923 INTER-LIGAND FREE ENERGY PREDICTED BY IDOCK:   -6.73 KCAL/MOL
REMARK 924 INTRA-LIGAND FREE ENERGY PREDICTED BY IDOCK:   -0.75 KCAL/MOL
REMARK 927      BINDING AFFINITY PREDICTED BY RF-SCORE:    0.00 PKD
ROOT
HETATM    1  C   UNL     1     -11.982  14.587  70.049  1.00  0.00    -0.388 C  
HETATM    2  C   UNL     1     -11.976  15.217  68.659  1.00  0.00    -0.270 C  
ENDROOT
BRANCH   2   3
HETATM    3  C   UNL     1     -10.789  14.792  67.752  1.00  0.00    -0.278 C  
BRANCH   3   4
HETATM    4  N   UNL     1      -9.931  15.937  67.356  1.00  0.00    -0.236 NA 
HETATM    5  H   UNL     1      -8.985  15.800  67.002  1.00  0.00     0.000 HD 
BRANCH   4   6
HETATM    6  C   UNL     1     -10.513  17.278  67.500  1.00  0.00    -0.356 C  
HETATM    7  C   UNL     1     -10.424  17.981  66.141  1.00  0.00    -0.336 C  
HETATM    8  C   UNL     1      -9.819  18.129  68.565  1.00  0.00    -0.393 C  
ENDBRANCH   4   6
ENDBRANCH   3   4
BRANCH   3   9
HETATM    9  C   UNL     1     -11.302  14.016  66.484  1.00  0.00    -0.336 C  
HETATM   10  H   UNL     1     -12.977  13.870  65.431  1.00  0.00     0.000 HD 
HETATM   11  O   UNL     1     -12.667  14.339  66.197  1.00  0.00    -0.401 OA 
BRANCH   9  12
HETATM   12  C   UNL     1     -11.083  12.502  66.501  1.00  0.00    -0.330 A  
HETATM   13  C   UNL     1     -10.614  11.727  65.412  1.00  0.00    -0.325 A  
HETATM   14  C   UNL     1     -10.384  12.273  64.063  1.00  0.00    -0.423 C  
HETATM   15  C   UNL     1      -9.782  11.546  63.114  1.00  0.00    -0.412 C  
HETATM   16  C   UNL     1      -9.353  10.157  63.373  1.00  0.00    -0.294 C  
HETATM   17  N   UNL     1      -9.702   9.623  64.578  1.00  0.00    -0.393 N  
HETATM   18  O   UNL     1      -8.726   9.519  62.535  1.00  0.00    -0.192 OA 
HETATM   19  H   UNL     1      -9.503   8.635  64.742  1.00  0.00     0.000 HD 
HETATM   20  C   UNL     1     -10.321  10.353  65.609  1.00  0.00    -0.190 A  
HETATM   21  C   UNL     1     -10.581   9.745  66.841  1.00  0.00    -0.173 A  
HETATM   22  O   UNL     1     -10.352   8.418  67.079  1.00  0.00    -0.277 OA 
HETATM   23  C   UNL     1     -11.090  10.485  67.897  1.00  0.00    -0.367 A  
HETATM   24  H   UNL     1     -10.529   8.005  67.915  1.00  0.00     0.000 HD 
HETATM   25  C   UNL     1     -11.329  11.848  67.730  1.00  0.00    -0.361 A  
ENDBRANCH   9  12
ENDBRANCH   3   9
ENDBRANCH   2   3
TORSDOF 5
ENDMDL
MODEL       76
REMARK 921   NORMALIZED FREE ENERGY PREDICTED BY IDOCK:   -5.12 KCAL/MOL
REMARK 922        TOTAL FREE ENERGY PREDICTED BY IDOCK:   -7.47 KCAL/MOL
REMARK 923 INTER-LIGAND FREE ENERGY PREDICTED BY IDOCK:   -6.61 KCAL/MOL
REMARK 924 INTRA-LIGAND FREE ENERGY PREDICTED BY IDOCK:   -0.86 KCAL/MOL
REMARK 927      BINDING AFFINITY PREDICTED BY RF-SCORE:    0.00 PKD
ROOT
HETATM    1  C   UNL     1     -12.857  14.431  70.753  1.00  0.00    -0.417 C  
HETATM    2  C   UNL     1     -12.281  14.040  69.395  1.00  0.00    -0.336 C  
ENDROOT
BRANCH   2   3
HETATM    3  C   UNL     1     -10.974  13.202  69.454  1.00  0.00     0.001 C  
BRANCH   3   4
HETATM    4  N   UNL     1      -9.849  13.841  68.727  1.00  0.00    -0.393 NA 
HETATM    5  H   UNL     1      -8.888  13.517  68.837  1.00  0.00     0.000 HD 
BRANCH   4   6
HETATM    6  C   UNL     1     -10.188  14.963  67.842  1.00  0.00    -0.228 C  
HETATM    7  C   UNL     1      -9.837  14.556  66.407  1.00  0.00    -0.306 C  
HETATM    8  C   UNL     1      -9.462  16.259  68.201  1.00  0.00    -0.215 C  
ENDBRANCH   4   6
ENDBRANCH   3   4
BRANCH   3   9
HETATM    9  C   UNL     1     -11.221  11.741  68.926  1.00  0.00    -0.253 C  
HETATM   10  H   UNL     1     -12.384  10.839  67.596  1.00  0.00     0.000 HD 
HETATM   11  O   UNL     1     -12.235  11.721  67.915  1.00  0.00    -0.538 OA 
BRANCH   9  12
HETATM   12  C   UNL     1     -11.490  10.685  70.000  1.00  0.00    -0.404 A  
HETATM   13  C   UNL     1     -10.524   9.806  70.549  1.00  0.00    -0.366 A  
HETATM   14  C   UNL     1      -9.137   9.715  70.063  1.00  0.00    -0.269 C  
HETATM   15  C   UNL     1      -8.217   8.997  70.719  1.00  0.00    -0.213 C  
HETATM   16  C   UNL     1      -8.566   8.242  71.939  1.00  0.00    -0.168 C  
HETATM   17  N   UNL     1      -9.884   8.223  72.292  1.00  0.00    -0.264 N  
HETATM   18  O   UNL     1      -7.710   7.653  72.590  1.00  0.00    -0.087 OA 
HETATM   19  H   UNL     1     -10.163   7.629  73.073  1.00  0.00     0.000 HD 
HETATM   20  C   UNL     1     -10.880   8.973  71.641  1.00  0.00    -0.366 A  
HETATM   21  C   UNL     1     -12.196   8.950  72.112  1.00  0.00    -0.367 A  
HETATM   22  O   UNL     1     -12.605   8.143  73.137  1.00  0.00    -0.561 OA 
HETATM   23  C   UNL     1     -13.160   9.769  71.545  1.00  0.00    -0.506 A  
HETATM   24  H   UNL     1     -13.499   8.127  73.456  1.00  0.00     0.000 HD 
HETATM   25  C   UNL     1     -12.808  10.631  70.509  1.00  0.00    -0.356 A  
ENDBRANCH   9  12
ENDBRANCH   3   9
ENDBRANCH   2   3
TORSDOF 5
ENDMDL
MODEL       77
REMARK 921   NORMALIZED FREE ENERGY PREDICTED BY IDOCK:   -5.12 KCAL/MOL
REMARK 922        TOTAL FREE ENERGY PREDICTED BY IDOCK:   -7.47 KCAL/MOL
REMARK 923 INTER-LIGAND FREE ENERGY PREDICTED BY IDOCK:   -6.56 KCAL/MOL
REMARK 924 INTRA-LIGAND FREE ENERGY PREDICTED BY IDOCK:   -0.91 KCAL/MOL
REMARK 927      BINDING AFFINITY PREDICTED BY RF-SCORE:    0.00 PKD
ROOT
HETATM    1  C   UNL     1      -8.118   8.695  71.444  1.00  0.00    -0.192 C  
HETATM    2  C   UNL     1      -8.865   8.503  70.127  1.00  0.00    -0.138 C  
ENDROOT
BRANCH   2   3
HETATM    3  C   UNL     1      -9.852   9.645  69.761  1.00  0.00    -0.229 C  
BRANCH   3   4
HETATM    4  N   UNL     1     -10.663  10.096  70.919  1.00  0.00    -0.347 NA 
HETATM    5  H   UNL     1     -10.296  10.754  71.606  1.00  0.00     0.000 HD 
BRANCH   4   6
HETATM    6  C   UNL     1     -12.022   9.547  71.026  1.00  0.00    -0.328 C  
HETATM    7  C   UNL     1     -12.990  10.718  71.226  1.00  0.00    -0.502 C  
HETATM    8  C   UNL     1     -12.182   8.546  72.171  1.00  0.00    -0.446 C  
ENDBRANCH   4   6
ENDBRANCH   3   4
BRANCH   3   9
HETATM    9  C   UNL     1     -10.778   9.222  68.562  1.00  0.00    -0.142 C  
HETATM   10  H   UNL     1     -11.229   7.564  67.570  1.00  0.00     0.000 HD 
HETATM   11  O   UNL     1     -10.670   7.819  68.295  1.00  0.00    -0.148 OA 
BRANCH   9  12
HETATM   12  C   UNL     1     -10.619  10.043  67.281  1.00  0.00    -0.319 A  
HETATM   13  C   UNL     1     -10.986  11.403  67.125  1.00  0.00    -0.340 A  
HETATM   14  C   UNL     1     -11.689  12.180  68.159  1.00  0.00    -0.402 C  
HETATM   15  C   UNL     1     -11.863  13.502  68.035  1.00  0.00    -0.400 C  
HETATM   16  C   UNL     1     -11.385  14.226  66.841  1.00  0.00    -0.343 C  
HETATM   17  N   UNL     1     -10.866  13.469  65.832  1.00  0.00    -0.274 N  
HETATM   18  O   UNL     1     -11.467  15.447  66.763  1.00  0.00    -0.206 OA 
HETATM   19  H   UNL     1     -10.620  13.936  64.959  1.00  0.00     0.000 HD 
HETATM   20  C   UNL     1     -10.651  12.082  65.925  1.00  0.00    -0.265 A  
HETATM   21  C   UNL     1     -10.048  11.393  64.868  1.00  0.00    -0.274 A  
HETATM   22  O   UNL     1      -9.735  11.986  63.677  1.00  0.00    -0.524 OA 
HETATM   23  C   UNL     1      -9.733  10.049  64.994  1.00  0.00    -0.386 A  
HETATM   24  H   UNL     1      -9.325  11.518  62.959  1.00  0.00     0.000 HD 
HETATM   25  C   UNL     1     -10.008   9.386  66.189  1.00  0.00    -0.351 A  
ENDBRANCH   9  12
ENDBRANCH   3   9
ENDBRANCH   2   3
TORSDOF 5
ENDMDL
MODEL       78
REMARK 921   NORMALIZED FREE ENERGY PREDICTED BY IDOCK:   -5.12 KCAL/MOL
REMARK 922        TOTAL FREE ENERGY PREDICTED BY IDOCK:   -7.46 KCAL/MOL
REMARK 923 INTER-LIGAND FREE ENERGY PREDICTED BY IDOCK:   -6.36 KCAL/MOL
REMARK 924 INTRA-LIGAND FREE ENERGY PREDICTED BY IDOCK:   -1.10 KCAL/MOL
REMARK 927      BINDING AFFINITY PREDICTED BY RF-SCORE:    0.00 PKD
ROOT
HETATM    1  C   UNL     1      -9.667   8.763  71.825  1.00  0.00    -0.380 C  
HETATM    2  C   UNL     1      -9.282   8.152  70.480  1.00  0.00    -0.157 C  
ENDROOT
BRANCH   2   3
HETATM    3  C   UNL     1      -9.240   9.153  69.293  1.00  0.00    -0.146 C  
BRANCH   3   4
HETATM    4  N   UNL     1      -8.671  10.470  69.673  1.00  0.00    -0.392 NA 
HETATM    5  H   UNL     1      -9.085  11.040  70.411  1.00  0.00     0.000 HD 
BRANCH   4   6
HETATM    6  C   UNL     1      -7.481  10.913  68.935  1.00  0.00    -0.116 C  
HETATM    7  C   UNL     1      -7.625  12.414  68.661  1.00  0.00    -0.082 C  
HETATM    8  C   UNL     1      -7.274  10.167  67.616  1.00  0.00    -0.088 C  
ENDBRANCH   4   6
ENDBRANCH   3   4
BRANCH   3   9
HETATM    9  C   UNL     1     -10.666   9.325  68.653  1.00  0.00    -0.143 C  
HETATM   10  H   UNL     1     -11.596   8.803  66.980  1.00  0.00     0.000 HD 
HETATM   11  O   UNL     1     -10.734   8.699  67.367  1.00  0.00    -0.264 OA 
BRANCH   9  12
HETATM   12  C   UNL     1     -11.200  10.758  68.601  1.00  0.00    -0.333 A  
HETATM   13  C   UNL     1     -11.952  11.392  69.620  1.00  0.00    -0.416 A  
HETATM   14  C   UNL     1     -12.425  10.703  70.832  1.00  0.00    -0.495 C  
HETATM   15  C   UNL     1     -12.983  11.381  71.843  1.00  0.00    -0.466 C  
HETATM   16  C   UNL     1     -13.175  12.843  71.768  1.00  0.00    -0.384 C  
HETATM   17  N   UNL     1     -12.863  13.442  70.582  1.00  0.00    -0.151 N  
HETATM   18  O   UNL     1     -13.607  13.478  72.724  1.00  0.00    -0.672 OA 
HETATM   19  H   UNL     1     -13.078  14.433  70.474  1.00  0.00     0.000 HD 
HETATM   20  C   UNL     1     -12.261  12.772  69.502  1.00  0.00    -0.102 A  
HETATM   21  C   UNL     1     -11.910  13.478  68.347  1.00  0.00    -0.373 A  
HETATM   22  O   UNL     1     -12.212  14.798  68.162  1.00  0.00    -0.578 OA 
HETATM   23  C   UNL     1     -11.219  12.851  67.322  1.00  0.00    -0.329 A  
HETATM   24  H   UNL     1     -11.973  15.278  67.377  1.00  0.00     0.000 HD 
HETATM   25  C   UNL     1     -10.862  11.510  67.453  1.00  0.00    -0.294 A  
ENDBRANCH   9  12
ENDBRANCH   3   9
ENDBRANCH   2   3
TORSDOF 5
ENDMDL
MODEL       79
REMARK 921   NORMALIZED FREE ENERGY PREDICTED BY IDOCK:   -5.11 KCAL/MOL
REMARK 922        TOTAL FREE ENERGY PREDICTED BY IDOCK:   -7.46 KCAL/MOL
REMARK 923 INTER-LIGAND FREE ENERGY PREDICTED BY IDOCK:   -6.58 KCAL/MOL
REMARK 924 INTRA-LIGAND FREE ENERGY PREDICTED BY IDOCK:   -0.87 KCAL/MOL
REMARK 927      BINDING AFFINITY PREDICTED BY RF-SCORE:    0.00 PKD
ROOT
HETATM    1  C   UNL     1      -9.875  12.824  66.635  1.00  0.00    -0.250 C  
HETATM    2  C   UNL     1     -10.818  12.553  67.803  1.00  0.00    -0.254 C  
ENDROOT
BRANCH   2   3
HETATM    3  C   UNL     1     -10.230  11.654  68.926  1.00  0.00    -0.125 C  
BRANCH   3   4
HETATM    4  N   UNL     1      -8.746  11.658  68.947  1.00  0.00    -0.370 NA 
HETATM    5  H   UNL     1      -8.215  12.509  69.132  1.00  0.00     0.000 HD 
BRANCH   4   6
HETATM    6  C   UNL     1      -8.079  10.375  68.687  1.00  0.00    -0.118 C  
HETATM    7  C   UNL     1      -7.491   9.872  70.009  1.00  0.00    -0.173 C  
HETATM    8  C   UNL     1      -6.974  10.469  67.635  1.00  0.00    -0.079 C  
ENDBRANCH   4   6
ENDBRANCH   3   4
BRANCH   3   9
HETATM    9  C   UNL     1     -10.783  10.186  68.817  1.00  0.00    -0.220 C  
HETATM   10  H   UNL     1     -11.790   9.092  67.503  1.00  0.00     0.000 HD 
HETATM   11  O   UNL     1     -11.456   9.979  67.570  1.00  0.00    -0.163 OA 
BRANCH   9  12
HETATM   12  C   UNL     1     -11.638   9.711  69.993  1.00  0.00    -0.137 A  
HETATM   13  C   UNL     1     -11.579   8.425  70.584  1.00  0.00    -0.205 A  
HETATM   14  C   UNL     1     -10.756   7.323  70.058  1.00  0.00    -0.261 C  
HETATM   15  C   UNL     1     -10.601   6.184  70.745  1.00  0.00    -0.299 C  
HETATM   16  C   UNL     1     -11.276   5.976  72.041  1.00  0.00    -0.288 C  
HETATM   17  N   UNL     1     -12.146   6.947  72.442  1.00  0.00    -0.500 N  
HETATM   18  O   UNL     1     -11.069   4.970  72.711  1.00  0.00    -0.247 OA 
HETATM   19  H   UNL     1     -12.696   6.780  73.284  1.00  0.00     0.000 HD 
HETATM   20  C   UNL     1     -12.328   8.164  71.761  1.00  0.00    -0.321 A  
HETATM   21  C   UNL     1     -13.189   9.136  72.280  1.00  0.00    -0.461 A  
HETATM   22  O   UNL     1     -13.961   8.930  73.389  1.00  0.00    -1.236 OA 
HETATM   23  C   UNL     1     -13.292  10.379  71.676  1.00  0.00    -0.432 A  
HETATM   24  H   UNL     1     -14.546   9.590  73.742  1.00  0.00     0.000 HD 
HETATM   25  C   UNL     1     -12.519  10.664  70.552  1.00  0.00    -0.445 A  
ENDBRANCH   9  12
ENDBRANCH   3   9
ENDBRANCH   2   3
TORSDOF 5
ENDMDL
MODEL       80
REMARK 921   NORMALIZED FREE ENERGY PREDICTED BY IDOCK:   -5.11 KCAL/MOL
REMARK 922        TOTAL FREE ENERGY PREDICTED BY IDOCK:   -7.45 KCAL/MOL
REMARK 923 INTER-LIGAND FREE ENERGY PREDICTED BY IDOCK:   -7.19 KCAL/MOL
REMARK 924 INTRA-LIGAND FREE ENERGY PREDICTED BY IDOCK:   -0.26 KCAL/MOL
REMARK 927      BINDING AFFINITY PREDICTED BY RF-SCORE:    0.00 PKD
ROOT
HETATM    1  C   UNL     1     -10.551   6.246  68.903  1.00  0.00    -0.321 C  
HETATM    2  C   UNL     1     -10.478   7.556  68.124  1.00  0.00    -0.233 C  
ENDROOT
BRANCH   2   3
HETATM    3  C   UNL     1     -10.139   8.808  68.978  1.00  0.00    -0.198 C  
BRANCH   3   4
HETATM    4  N   UNL     1     -11.350   9.511  69.472  1.00  0.00    -0.438 NA 
HETATM    5  H   UNL     1     -11.850  10.186  68.894  1.00  0.00     0.000 HD 
BRANCH   4   6
HETATM    6  C   UNL     1     -11.793   9.184  70.834  1.00  0.00    -0.270 C  
HETATM    7  C   UNL     1     -12.722  10.305  71.311  1.00  0.00    -0.523 C  
HETATM    8  C   UNL     1     -10.638   9.017  71.822  1.00  0.00    -0.426 C  
ENDBRANCH   4   6
ENDBRANCH   3   4
BRANCH   3   9
HETATM    9  C   UNL     1      -9.208   9.795  68.182  1.00  0.00    -0.128 C  
HETATM   10  H   UNL     1      -8.412  11.593  68.443  1.00  0.00     0.000 HD 
HETATM   11  O   UNL     1      -8.975  10.997  68.924  1.00  0.00    -0.168 OA 
BRANCH   9  12
HETATM   12  C   UNL     1      -9.644  10.105  66.748  1.00  0.00    -0.222 A  
HETATM   13  C   UNL     1     -10.587  11.093  66.372  1.00  0.00    -0.315 A  
HETATM   14  C   UNL     1     -11.371  11.881  67.337  1.00  0.00    -0.389 C  
HETATM   15  C   UNL     1     -12.121  12.916  66.941  1.00  0.00    -0.313 C  
HETATM   16  C   UNL     1     -12.218  13.287  65.515  1.00  0.00    -0.457 C  
HETATM   17  N   UNL     1     -11.601  12.460  64.623  1.00  0.00    -0.330 N  
HETATM   18  O   UNL     1     -12.835  14.285  65.158  1.00  0.00    -0.659 OA 
HETATM   19  H   UNL     1     -11.735  12.641  63.628  1.00  0.00     0.000 HD 
HETATM   20  C   UNL     1     -10.791  11.373  64.995  1.00  0.00    -0.246 A  
HETATM   21  C   UNL     1     -10.138  10.617  64.017  1.00  0.00    -0.310 A  
HETATM   22  O   UNL     1     -10.321  10.817  62.677  1.00  0.00    -0.761 OA 
HETATM   23  C   UNL     1      -9.252   9.613  64.378  1.00  0.00    -0.258 A  
HETATM   24  H   UNL     1      -9.878  10.304  62.012  1.00  0.00     0.000 HD 
HETATM   25  C   UNL     1      -9.003   9.368  65.727  1.00  0.00    -0.227 A  
ENDBRANCH   9  12
ENDBRANCH   3   9
ENDBRANCH   2   3
TORSDOF 5
ENDMDL
MODEL       81
REMARK 921   NORMALIZED FREE ENERGY PREDICTED BY IDOCK:   -5.09 KCAL/MOL
REMARK 922        TOTAL FREE ENERGY PREDICTED BY IDOCK:   -7.43 KCAL/MOL
REMARK 923 INTER-LIGAND FREE ENERGY PREDICTED BY IDOCK:   -6.97 KCAL/MOL
REMARK 924 INTRA-LIGAND FREE ENERGY PREDICTED BY IDOCK:   -0.46 KCAL/MOL
REMARK 927      BINDING AFFINITY PREDICTED BY RF-SCORE:    0.00 PKD
ROOT
HETATM    1  C   UNL     1     -11.579   6.213  72.197  1.00  0.00    -0.369 C  
HETATM    2  C   UNL     1     -11.977   6.914  70.901  1.00  0.00    -0.430 C  
ENDROOT
BRANCH   2   3
HETATM    3  C   UNL     1     -11.006   8.035  70.438  1.00  0.00    -0.248 C  
BRANCH   3   4
HETATM    4  N   UNL     1      -9.592   7.750  70.785  1.00  0.00    -0.166 NA 
HETATM    5  H   UNL     1      -9.118   6.910  70.452  1.00  0.00     0.000 HD 
BRANCH   4   6
HETATM    6  C   UNL     1      -8.908   8.736  71.632  1.00  0.00    -0.208 C  
HETATM    7  C   UNL     1      -7.677   9.241  70.871  1.00  0.00    -0.134 C  
HETATM    8  C   UNL     1      -8.480   8.177  72.989  1.00  0.00    -0.272 C  
ENDBRANCH   4   6
ENDBRANCH   3   4
BRANCH   3   9
HETATM    9  C   UNL     1     -11.450   9.431  71.008  1.00  0.00    -0.334 C  
HETATM   10  H   UNL     1     -12.884  10.152  72.174  1.00  0.00     0.000 HD 
HETATM   11  O   UNL     1     -12.616   9.308  71.830  1.00  0.00    -0.332 OA 
BRANCH   9  12
HETATM   12  C   UNL     1     -11.618  10.547  69.974  1.00  0.00    -0.392 A  
HETATM   13  C   UNL     1     -12.148  11.835  70.233  1.00  0.00    -0.426 A  
HETATM   14  C   UNL     1     -12.724  12.233  71.528  1.00  0.00    -0.339 C  
HETATM   15  C   UNL     1     -13.056  13.505  71.778  1.00  0.00    -0.475 C  
HETATM   16  C   UNL     1     -12.886  14.554  70.753  1.00  0.00    -0.361 C  
HETATM   17  N   UNL     1     -12.486  14.143  69.516  1.00  0.00    -0.481 N  
HETATM   18  O   UNL     1     -13.108  15.733  71.007  1.00  0.00    -0.505 OA 
HETATM   19  H   UNL     1     -12.456  14.834  68.766  1.00  0.00     0.000 HD 
HETATM   20  C   UNL     1     -12.113  12.821  69.213  1.00  0.00    -0.172 A  
HETATM   21  C   UNL     1     -11.648  12.498  67.935  1.00  0.00    -0.347 A  
HETATM   22  O   UNL     1     -11.624  13.396  66.904  1.00  0.00    -0.329 OA 
HETATM   23  C   UNL     1     -11.176  11.224  67.658  1.00  0.00    -0.357 A  
HETATM   24  H   UNL     1     -11.308  13.177  66.035  1.00  0.00     0.000 HD 
HETATM   25  C   UNL     1     -11.154  10.265  68.669  1.00  0.00    -0.290 A  
ENDBRANCH   9  12
ENDBRANCH   3   9
ENDBRANCH   2   3
TORSDOF 5
ENDMDL
MODEL       82
REMARK 921   NORMALIZED FREE ENERGY PREDICTED BY IDOCK:   -5.09 KCAL/MOL
REMARK 922        TOTAL FREE ENERGY PREDICTED BY IDOCK:   -7.43 KCAL/MOL
REMARK 923 INTER-LIGAND FREE ENERGY PREDICTED BY IDOCK:   -6.15 KCAL/MOL
REMARK 924 INTRA-LIGAND FREE ENERGY PREDICTED BY IDOCK:   -1.28 KCAL/MOL
REMARK 927      BINDING AFFINITY PREDICTED BY RF-SCORE:    0.00 PKD
ROOT
HETATM    1  C   UNL     1      -5.685   7.645  70.347  1.00  0.00    -0.023 C  
HETATM    2  C   UNL     1      -6.462   6.857  71.398  1.00  0.00    -0.042 C  
ENDROOT
BRANCH   2   3
HETATM    3  C   UNL     1      -8.003   7.049  71.354  1.00  0.00    -0.103 C  
BRANCH   3   4
HETATM    4  N   UNL     1      -8.590   6.686  70.040  1.00  0.00    -0.139 NA 
HETATM    5  H   UNL     1      -8.352   7.195  69.189  1.00  0.00     0.000 HD 
BRANCH   4   6
HETATM    6  C   UNL     1      -9.530   5.557  70.026  1.00  0.00    -0.159 C  
HETATM    7  C   UNL     1     -10.872   6.066  69.492  1.00  0.00    -0.439 C  
HETATM    8  C   UNL     1      -9.732   4.920  71.401  1.00  0.00    -0.237 C  
ENDBRANCH   4   6
ENDBRANCH   3   4
BRANCH   3   9
HETATM    9  C   UNL     1      -8.397   8.517  71.754  1.00  0.00    -0.163 C  
HETATM   10  H   UNL     1      -8.210   9.709  73.330  1.00  0.00     0.000 HD 
HETATM   11  O   UNL     1      -7.972   8.822  73.088  1.00  0.00    -0.405 OA 
BRANCH   9  12
HETATM   12  C   UNL     1      -9.866   8.890  71.544  1.00  0.00    -0.384 A  
HETATM   13  C   UNL     1     -10.362   9.720  70.508  1.00  0.00    -0.348 A  
HETATM   14  C   UNL     1      -9.500  10.438  69.555  1.00  0.00    -0.164 C  
HETATM   15  C   UNL     1     -10.015  11.071  68.494  1.00  0.00    -0.198 C  
HETATM   16  C   UNL     1     -11.471  11.101  68.255  1.00  0.00    -0.303 C  
HETATM   17  N   UNL     1     -12.262  10.554  69.223  1.00  0.00    -0.537 N  
HETATM   18  O   UNL     1     -11.939  11.606  67.241  1.00  0.00    -0.627 OA 
HETATM   19  H   UNL     1     -13.273  10.650  69.127  1.00  0.00     0.000 HD 
HETATM   20  C   UNL     1     -11.765   9.867  70.345  1.00  0.00    -0.258 A  
HETATM   21  C   UNL     1     -12.647   9.275  71.254  1.00  0.00    -0.306 A  
HETATM   22  O   UNL     1     -14.005   9.411  71.167  1.00  0.00    -0.440 OA 
HETATM   23  C   UNL     1     -12.167   8.505  72.301  1.00  0.00    -0.454 A  
HETATM   24  H   UNL     1     -14.605   9.010  71.785  1.00  0.00     0.000 HD 
HETATM   25  C   UNL     1     -10.794   8.308  72.437  1.00  0.00    -0.421 A  
ENDBRANCH   9  12
ENDBRANCH   3   9
ENDBRANCH   2   3
TORSDOF 5
ENDMDL
MODEL       83
REMARK 921   NORMALIZED FREE ENERGY PREDICTED BY IDOCK:   -5.07 KCAL/MOL
REMARK 922        TOTAL FREE ENERGY PREDICTED BY IDOCK:   -7.40 KCAL/MOL
REMARK 923 INTER-LIGAND FREE ENERGY PREDICTED BY IDOCK:   -6.17 KCAL/MOL
REMARK 924 INTRA-LIGAND FREE ENERGY PREDICTED BY IDOCK:   -1.23 KCAL/MOL
REMARK 927      BINDING AFFINITY PREDICTED BY RF-SCORE:    0.00 PKD
ROOT
HETATM    1  C   UNL     1     -10.301  12.191  67.171  1.00  0.00    -0.233 C  
HETATM    2  C   UNL     1      -9.372  11.036  66.807  1.00  0.00    -0.199 C  
ENDROOT
BRANCH   2   3
HETATM    3  C   UNL     1      -9.347   9.868  67.830  1.00  0.00    -0.137 C  
BRANCH   3   4
HETATM    4  N   UNL     1     -10.595   9.065  67.816  1.00  0.00    -0.378 NA 
HETATM    5  H   UNL     1     -11.501   9.480  68.035  1.00  0.00     0.000 HD 
BRANCH   4   6
HETATM    6  C   UNL     1     -10.462   7.644  67.470  1.00  0.00    -0.266 C  
HETATM    7  C   UNL     1     -11.202   6.826  68.534  1.00  0.00    -0.155 C  
HETATM    8  C   UNL     1      -9.009   7.176  67.381  1.00  0.00    -0.122 C  
ENDBRANCH   4   6
ENDBRANCH   3   4
BRANCH   3   9
HETATM    9  C   UNL     1      -9.041  10.398  69.278  1.00  0.00    -0.175 C  
HETATM   10  H   UNL     1      -7.495  11.152  70.269  1.00  0.00     0.000 HD 
HETATM   11  O   UNL     1      -7.681  10.832  69.394  1.00  0.00    -0.142 OA 
BRANCH   9  12
HETATM   12  C   UNL     1      -9.419   9.455  70.423  1.00  0.00    -0.319 A  
HETATM   13  C   UNL     1     -10.668   9.436  71.093  1.00  0.00    -0.417 A  
HETATM   14  C   UNL     1     -11.738  10.418  70.849  1.00  0.00    -0.455 C  
HETATM   15  C   UNL     1     -12.957  10.260  71.378  1.00  0.00    -0.540 C  
HETATM   16  C   UNL     1     -13.267   9.113  72.254  1.00  0.00    -0.461 C  
HETATM   17  N   UNL     1     -12.226   8.295  72.584  1.00  0.00    -0.576 N  
HETATM   18  O   UNL     1     -14.404   8.920  72.672  1.00  0.00    -0.613 OA 
HETATM   19  H   UNL     1     -12.395   7.554  73.265  1.00  0.00     0.000 HD 
HETATM   20  C   UNL     1     -10.935   8.414  72.040  1.00  0.00    -0.323 A  
HETATM   21  C   UNL     1      -9.943   7.489  72.379  1.00  0.00    -0.184 A  
HETATM   22  O   UNL     1     -10.131   6.504  73.309  1.00  0.00    -0.177 OA 
HETATM   23  C   UNL     1      -8.700   7.533  71.766  1.00  0.00    -0.128 A  
HETATM   24  H   UNL     1      -9.457   5.876  73.540  1.00  0.00     0.000 HD 
HETATM   25  C   UNL     1      -8.447   8.499  70.794  1.00  0.00    -0.166 A  
ENDBRANCH   9  12
ENDBRANCH   3   9
ENDBRANCH   2   3
TORSDOF 5
ENDMDL
MODEL       84
REMARK 921   NORMALIZED FREE ENERGY PREDICTED BY IDOCK:   -5.06 KCAL/MOL
REMARK 922        TOTAL FREE ENERGY PREDICTED BY IDOCK:   -7.38 KCAL/MOL
REMARK 923 INTER-LIGAND FREE ENERGY PREDICTED BY IDOCK:   -6.50 KCAL/MOL
REMARK 924 INTRA-LIGAND FREE ENERGY PREDICTED BY IDOCK:   -0.89 KCAL/MOL
REMARK 927      BINDING AFFINITY PREDICTED BY RF-SCORE:    0.00 PKD
ROOT
HETATM    1  C   UNL     1     -10.585  18.757  66.860  1.00  0.00    -0.472 C  
HETATM    2  C   UNL     1     -10.651  17.349  66.278  1.00  0.00    -0.194 C  
ENDROOT
BRANCH   2   3
HETATM    3  C   UNL     1      -9.949  16.254  67.128  1.00  0.00    -0.257 C  
BRANCH   3   4
HETATM    4  N   UNL     1      -8.548  16.008  66.703  1.00  0.00    -0.252 NA 
HETATM    5  H   UNL     1      -8.234  16.210  65.754  1.00  0.00     0.000 HD 
BRANCH   4   6
HETATM    6  C   UNL     1      -7.638  15.459  67.716  1.00  0.00    -0.150 C  
HETATM    7  C   UNL     1      -7.675  13.931  67.608  1.00  0.00    -0.193 C  
HETATM    8  C   UNL     1      -7.993  15.883  69.142  1.00  0.00    -0.233 C  
ENDBRANCH   4   6
ENDBRANCH   3   4
BRANCH   3   9
HETATM    9  C   UNL     1     -10.778  14.918  67.117  1.00  0.00    -0.296 C  
HETATM   10  H   UNL     1     -12.252  14.115  66.060  1.00  0.00     0.000 HD 
HETATM   11  O   UNL     1     -11.751  14.922  66.067  1.00  0.00    -0.295 OA 
BRANCH   9  12
HETATM   12  C   UNL     1     -11.408  14.519  68.453  1.00  0.00    -0.311 A  
HETATM   13  C   UNL     1     -11.627  13.190  68.893  1.00  0.00    -0.354 A  
HETATM   14  C   UNL     1     -11.381  12.003  68.057  1.00  0.00    -0.358 C  
HETATM   15  C   UNL     1     -11.440  10.768  68.569  1.00  0.00    -0.362 C  
HETATM   16  C   UNL     1     -11.787  10.546  69.987  1.00  0.00    -0.308 C  
HETATM   17  N   UNL     1     -12.151  11.645  70.708  1.00  0.00    -0.404 N  
HETATM   18  O   UNL     1     -11.759   9.424  70.480  1.00  0.00    -0.262 OA 
HETATM   19  H   UNL     1     -12.488  11.504  71.661  1.00  0.00     0.000 HD 
HETATM   20  C   UNL     1     -12.089  12.961  70.216  1.00  0.00    -0.302 A  
HETATM   21  C   UNL     1     -12.415  14.038  71.046  1.00  0.00    -0.371 A  
HETATM   22  O   UNL     1     -12.896  13.878  72.315  1.00  0.00    -0.333 OA 
HETATM   23  C   UNL     1     -12.252  15.341  70.604  1.00  0.00    -0.412 A  
HETATM   24  H   UNL     1     -13.118  14.609  72.880  1.00  0.00     0.000 HD 
HETATM   25  C   UNL     1     -11.747  15.577  69.327  1.00  0.00    -0.380 A  
ENDBRANCH   9  12
ENDBRANCH   3   9
ENDBRANCH   2   3
TORSDOF 5
ENDMDL
MODEL       85
REMARK 921   NORMALIZED FREE ENERGY PREDICTED BY IDOCK:   -5.05 KCAL/MOL
REMARK 922        TOTAL FREE ENERGY PREDICTED BY IDOCK:   -7.38 KCAL/MOL
REMARK 923 INTER-LIGAND FREE ENERGY PREDICTED BY IDOCK:   -6.50 KCAL/MOL
REMARK 924 INTRA-LIGAND FREE ENERGY PREDICTED BY IDOCK:   -0.89 KCAL/MOL
REMARK 927      BINDING AFFINITY PREDICTED BY RF-SCORE:    0.00 PKD
ROOT
HETATM    1  C   UNL     1     -10.307  17.172  68.365  1.00  0.00    -0.362 C  
HETATM    2  C   UNL     1     -11.024  16.125  67.519  1.00  0.00    -0.238 C  
ENDROOT
BRANCH   2   3
HETATM    3  C   UNL     1     -10.204  14.835  67.238  1.00  0.00    -0.241 C  
BRANCH   3   4
HETATM    4  N   UNL     1      -8.968  15.099  66.460  1.00  0.00    -0.297 NA 
HETATM    5  H   UNL     1      -9.003  15.437  65.498  1.00  0.00     0.000 HD 
BRANCH   4   6
HETATM    6  C   UNL     1      -7.692  14.849  67.144  1.00  0.00    -0.142 C  
HETATM    7  C   UNL     1      -7.999  14.187  68.491  1.00  0.00    -0.145 C  
HETATM    8  C   UNL     1      -6.868  16.117  67.370  1.00  0.00    -0.215 C  
ENDBRANCH   4   6
ENDBRANCH   3   4
BRANCH   3   9
HETATM    9  C   UNL     1     -11.092  13.751  66.524  1.00  0.00    -0.306 C  
HETATM   10  H   UNL     1     -12.987  13.536  65.976  1.00  0.00     0.000 HD 
HETATM   11  O   UNL     1     -12.450  14.191  66.407  1.00  0.00    -0.461 OA 
BRANCH   9  12
HETATM   12  C   UNL     1     -11.016  12.341  67.112  1.00  0.00    -0.308 A  
HETATM   13  C   UNL     1     -11.424  11.972  68.418  1.00  0.00    -0.356 A  
HETATM   14  C   UNL     1     -11.871  12.938  69.435  1.00  0.00    -0.371 C  
HETATM   15  C   UNL     1     -12.406  12.529  70.593  1.00  0.00    -0.369 C  
HETATM   16  C   UNL     1     -12.538  11.093  70.908  1.00  0.00    -0.386 C  
HETATM   17  N   UNL     1     -11.989  10.217  70.018  1.00  0.00    -0.426 N  
HETATM   18  O   UNL     1     -13.104  10.715  71.928  1.00  0.00    -0.469 OA 
HETATM   19  H   UNL     1     -11.981   9.227  70.261  1.00  0.00     0.000 HD 
HETATM   20  C   UNL     1     -11.432  10.601  68.785  1.00  0.00    -0.262 A  
HETATM   21  C   UNL     1     -10.953   9.631  67.899  1.00  0.00    -0.145 A  
HETATM   22  O   UNL     1     -10.903   8.300  68.209  1.00  0.00    -0.436 OA 
HETATM   23  C   UNL     1     -10.503   9.990  66.638  1.00  0.00    -0.244 A  
HETATM   24  H   UNL     1     -10.578   7.641  67.608  1.00  0.00     0.000 HD 
HETATM   25  C   UNL     1     -10.543  11.327  66.248  1.00  0.00    -0.315 A  
ENDBRANCH   9  12
ENDBRANCH   3   9
ENDBRANCH   2   3
TORSDOF 5
ENDMDL
MODEL       86
REMARK 921   NORMALIZED FREE ENERGY PREDICTED BY IDOCK:   -5.05 KCAL/MOL
REMARK 922        TOTAL FREE ENERGY PREDICTED BY IDOCK:   -7.38 KCAL/MOL
REMARK 923 INTER-LIGAND FREE ENERGY PREDICTED BY IDOCK:   -6.61 KCAL/MOL
REMARK 924 INTRA-LIGAND FREE ENERGY PREDICTED BY IDOCK:   -0.77 KCAL/MOL
REMARK 927      BINDING AFFINITY PREDICTED BY RF-SCORE:    0.00 PKD
ROOT
HETATM    1  C   UNL     1      -6.988  13.938  67.583  1.00  0.00    -0.189 C  
HETATM    2  C   UNL     1      -7.615  12.916  68.526  1.00  0.00    -0.120 C  
ENDROOT
BRANCH   2   3
HETATM    3  C   UNL     1      -8.698  12.008  67.882  1.00  0.00    -0.170 C  
BRANCH   3   4
HETATM    4  N   UNL     1      -8.427  11.716  66.452  1.00  0.00    -0.305 NA 
HETATM    5  H   UNL     1      -8.246  12.460  65.779  1.00  0.00     0.000 HD 
BRANCH   4   6
HETATM    6  C   UNL     1      -8.431  10.302  66.055  1.00  0.00    -0.140 C  
HETATM    7  C   UNL     1      -9.674  10.056  65.193  1.00  0.00    -0.380 C  
HETATM    8  C   UNL     1      -8.431   9.339  67.243  1.00  0.00    -0.125 C  
ENDBRANCH   4   6
ENDBRANCH   3   4
BRANCH   3   9
HETATM    9  C   UNL     1     -10.131  12.630  68.062  1.00  0.00    -0.229 C  
HETATM   10  H   UNL     1     -12.011  11.996  68.110  1.00  0.00     0.000 HD 
HETATM   11  O   UNL     1     -11.145  11.621  68.002  1.00  0.00    -0.210 OA 
BRANCH   9  12
HETATM   12  C   UNL     1     -10.464  13.804  67.138  1.00  0.00    -0.272 A  
HETATM   13  C   UNL     1     -10.547  15.162  67.532  1.00  0.00    -0.269 A  
HETATM   14  C   UNL     1     -10.436  15.613  68.930  1.00  0.00    -0.220 C  
HETATM   15  C   UNL     1     -10.350  16.913  69.234  1.00  0.00    -0.298 C  
HETATM   16  C   UNL     1     -10.395  17.949  68.183  1.00  0.00    -0.389 C  
HETATM   17  N   UNL     1     -10.641  17.520  66.912  1.00  0.00    -0.270 N  
HETATM   18  O   UNL     1     -10.231  19.134  68.450  1.00  0.00    -0.387 OA 
HETATM   19  H   UNL     1     -10.774  18.224  66.185  1.00  0.00     0.000 HD 
HETATM   20  C   UNL     1     -10.723  16.165  66.544  1.00  0.00    -0.220 A  
HETATM   21  C   UNL     1     -10.909  15.811  65.204  1.00  0.00    -0.428 A  
HETATM   22  O   UNL     1     -11.118  16.731  64.214  1.00  0.00    -1.301 OA 
HETATM   23  C   UNL     1     -10.882  14.480  64.818  1.00  0.00    -0.410 A  
HETATM   24  H   UNL     1     -11.244  16.491  63.304  1.00  0.00     0.000 HD 
HETATM   25  C   UNL     1     -10.653  13.491  65.773  1.00  0.00    -0.283 A  
ENDBRANCH   9  12
ENDBRANCH   3   9
ENDBRANCH   2   3
TORSDOF 5
ENDMDL
MODEL       87
REMARK 921   NORMALIZED FREE ENERGY PREDICTED BY IDOCK:   -5.03 KCAL/MOL
REMARK 922        TOTAL FREE ENERGY PREDICTED BY IDOCK:   -7.35 KCAL/MOL
REMARK 923 INTER-LIGAND FREE ENERGY PREDICTED BY IDOCK:   -6.78 KCAL/MOL
REMARK 924 INTRA-LIGAND FREE ENERGY PREDICTED BY IDOCK:   -0.57 KCAL/MOL
REMARK 927      BINDING AFFINITY PREDICTED BY RF-SCORE:    0.00 PKD
ROOT
HETATM    1  C   UNL     1      -7.856  19.432  68.873  1.00  0.00    -0.370 C  
HETATM    2  C   UNL     1      -9.178  18.827  68.411  1.00  0.00    -0.376 C  
ENDROOT
BRANCH   2   3
HETATM    3  C   UNL     1      -9.231  17.275  68.428  1.00  0.00    -0.268 C  
BRANCH   3   4
HETATM    4  N   UNL     1      -7.884  16.655  68.482  1.00  0.00    -0.206 NA 
HETATM    5  H   UNL     1      -7.369  16.568  69.358  1.00  0.00     0.000 HD 
BRANCH   4   6
HETATM    6  C   UNL     1      -7.329  16.173  67.210  1.00  0.00    -0.192 C  
HETATM    7  C   UNL     1      -6.937  14.703  67.392  1.00  0.00    -0.123 C  
HETATM    8  C   UNL     1      -6.116  16.973  66.736  1.00  0.00    -0.239 C  
ENDBRANCH   4   6
ENDBRANCH   3   4
BRANCH   3   9
HETATM    9  C   UNL     1     -10.049  16.728  67.202  1.00  0.00    -0.282 C  
HETATM   10  H   UNL     1     -11.494  17.365  66.000  1.00  0.00     0.000 HD 
HETATM   11  O   UNL     1     -10.999  17.695  66.741  1.00  0.00    -0.081 OA 
BRANCH   9  12
HETATM   12  C   UNL     1     -10.704  15.359  67.399  1.00  0.00    -0.296 A  
HETATM   13  C   UNL     1     -11.357  14.609  66.390  1.00  0.00    -0.348 A  
HETATM   14  C   UNL     1     -11.598  15.111  65.027  1.00  0.00    -0.294 C  
HETATM   15  C   UNL     1     -12.065  14.308  64.064  1.00  0.00    -0.350 C  
HETATM   16  C   UNL     1     -12.388  12.894  64.339  1.00  0.00    -0.398 C  
HETATM   17  N   UNL     1     -12.295  12.485  65.637  1.00  0.00    -0.358 N  
HETATM   18  O   UNL     1     -12.734  12.134  63.441  1.00  0.00    -0.722 OA 
HETATM   19  H   UNL     1     -12.606  11.541  65.867  1.00  0.00     0.000 HD 
HETATM   20  C   UNL     1     -11.795  13.290  66.677  1.00  0.00    -0.395 A  
HETATM   21  C   UNL     1     -11.668  12.768  67.968  1.00  0.00    -0.356 A  
HETATM   22  O   UNL     1     -12.103  11.519  68.312  1.00  0.00    -0.580 OA 
HETATM   23  C   UNL     1     -11.077  13.517  68.974  1.00  0.00    -0.293 A  
HETATM   24  H   UNL     1     -12.017  11.165  69.189  1.00  0.00     0.000 HD 
HETATM   25  C   UNL     1     -10.593  14.793  68.688  1.00  0.00    -0.255 A  
ENDBRANCH   9  12
ENDBRANCH   3   9
ENDBRANCH   2   3
TORSDOF 5
ENDMDL
MODEL       88
REMARK 921   NORMALIZED FREE ENERGY PREDICTED BY IDOCK:   -5.00 KCAL/MOL
REMARK 922        TOTAL FREE ENERGY PREDICTED BY IDOCK:   -7.32 KCAL/MOL
REMARK 923 INTER-LIGAND FREE ENERGY PREDICTED BY IDOCK:   -6.74 KCAL/MOL
REMARK 924 INTRA-LIGAND FREE ENERGY PREDICTED BY IDOCK:   -0.57 KCAL/MOL
REMARK 927      BINDING AFFINITY PREDICTED BY RF-SCORE:    0.00 PKD
ROOT
HETATM    1  C   UNL     1     -12.555   9.969  71.796  1.00  0.00    -0.504 C  
HETATM    2  C   UNL     1     -12.704  10.555  70.396  1.00  0.00    -0.325 C  
ENDROOT
BRANCH   2   3
HETATM    3  C   UNL     1     -11.377  10.708  69.604  1.00  0.00    -0.294 C  
BRANCH   3   4
HETATM    4  N   UNL     1     -10.224  10.070  70.287  1.00  0.00    -0.378 NA 
HETATM    5  H   UNL     1      -9.775  10.502  71.096  1.00  0.00     0.000 HD 
BRANCH   4   6
HETATM    6  C   UNL     1      -9.760   8.788  69.742  1.00  0.00    -0.177 C  
HETATM    7  C   UNL     1      -9.357   9.012  68.281  1.00  0.00    -0.145 C  
HETATM    8  C   UNL     1     -10.812   7.681  69.821  1.00  0.00    -0.222 C  
ENDBRANCH   4   6
ENDBRANCH   3   4
BRANCH   3   9
HETATM    9  C   UNL     1     -11.077  12.221  69.298  1.00  0.00    -0.158 C  
HETATM   10  H   UNL     1     -11.864  13.990  69.733  1.00  0.00     0.000 HD 
HETATM   11  O   UNL     1     -12.045  13.075  69.918  1.00  0.00    -0.313 OA 
BRANCH   9  12
HETATM   12  C   UNL     1     -10.892  12.575  67.821  1.00  0.00    -0.254 A  
HETATM   13  C   UNL     1     -10.378  13.800  67.328  1.00  0.00    -0.253 A  
HETATM   14  C   UNL     1     -10.061  14.954  68.185  1.00  0.00    -0.222 C  
HETATM   15  C   UNL     1      -9.421  16.025  67.699  1.00  0.00    -0.216 C  
HETATM   16  C   UNL     1      -9.036  16.103  66.276  1.00  0.00    -0.338 C  
HETATM   17  N   UNL     1      -9.464  15.090  65.469  1.00  0.00    -0.440 N  
HETATM   18  O   UNL     1      -8.376  17.043  65.846  1.00  0.00    -0.515 OA 
HETATM   19  H   UNL     1      -9.295  15.171  64.466  1.00  0.00     0.000 HD 
HETATM   20  C   UNL     1     -10.125  13.941  65.939  1.00  0.00    -0.317 A  
HETATM   21  C   UNL     1     -10.467  12.916  65.052  1.00  0.00    -0.318 A  
HETATM   22  O   UNL     1     -10.280  13.009  63.701  1.00  0.00    -0.643 OA 
HETATM   23  C   UNL     1     -11.019  11.734  65.521  1.00  0.00    -0.344 A  
HETATM   24  H   UNL     1     -10.513  12.312  63.098  1.00  0.00     0.000 HD 
HETATM   25  C   UNL     1     -11.220  11.564  66.890  1.00  0.00    -0.363 A  
ENDBRANCH   9  12
ENDBRANCH   3   9
ENDBRANCH   2   3
TORSDOF 5
ENDMDL
MODEL       89
REMARK 921   NORMALIZED FREE ENERGY PREDICTED BY IDOCK:   -4.99 KCAL/MOL
REMARK 922        TOTAL FREE ENERGY PREDICTED BY IDOCK:   -7.29 KCAL/MOL
REMARK 923 INTER-LIGAND FREE ENERGY PREDICTED BY IDOCK:   -7.00 KCAL/MOL
REMARK 924 INTRA-LIGAND FREE ENERGY PREDICTED BY IDOCK:   -0.29 KCAL/MOL
REMARK 927      BINDING AFFINITY PREDICTED BY RF-SCORE:    0.00 PKD
ROOT
HETATM    1  C   UNL     1     -11.705   8.579  71.154  1.00  0.00    -0.322 C  
HETATM    2  C   UNL     1     -11.318  10.051  71.052  1.00  0.00    -0.434 C  
ENDROOT
BRANCH   2   3
HETATM    3  C   UNL     1     -11.051  10.560  69.609  1.00  0.00    -0.283 C  
BRANCH   3   4
HETATM    4  N   UNL     1      -9.668  11.069  69.426  1.00  0.00    -0.427 NA 
HETATM    5  H   UNL     1      -9.288  11.808  70.016  1.00  0.00     0.000 HD 
BRANCH   4   6
HETATM    6  C   UNL     1      -8.875  10.453  68.354  1.00  0.00    -0.136 C  
HETATM    7  C   UNL     1      -8.468  11.558  67.373  1.00  0.00    -0.147 C  
HETATM    8  C   UNL     1      -9.623   9.350  67.604  1.00  0.00    -0.163 C  
ENDBRANCH   4   6
ENDBRANCH   3   4
BRANCH   3   9
HETATM    9  C   UNL     1     -12.105  11.650  69.195  1.00  0.00    -0.251 C  
HETATM   10  H   UNL     1     -12.789  12.470  67.522  1.00  0.00     0.000 HD 
HETATM   11  O   UNL     1     -12.152  11.811  67.773  1.00  0.00    -0.595 OA 
BRANCH   9  12
HETATM   12  C   UNL     1     -11.973  13.002  69.901  1.00  0.00    -0.381 A  
HETATM   13  C   UNL     1     -11.374  14.161  69.350  1.00  0.00    -0.318 A  
HETATM   14  C   UNL     1     -10.683  14.182  68.049  1.00  0.00    -0.248 C  
HETATM   15  C   UNL     1     -10.282  15.332  67.494  1.00  0.00    -0.239 C  
HETATM   16  C   UNL     1     -10.489  16.623  68.180  1.00  0.00    -0.321 C  
HETATM   17  N   UNL     1     -10.999  16.571  69.444  1.00  0.00    -0.309 N  
HETATM   18  O   UNL     1     -10.200  17.684  67.638  1.00  0.00    -0.320 OA 
HETATM   19  H   UNL     1     -11.059  17.440  69.974  1.00  0.00     0.000 HD 
HETATM   20  C   UNL     1     -11.447  15.388  70.059  1.00  0.00    -0.316 A  
HETATM   21  C   UNL     1     -12.022  15.434  71.333  1.00  0.00    -0.378 A  
HETATM   22  O   UNL     1     -12.090  16.578  72.077  1.00  0.00    -0.616 OA 
HETATM   23  C   UNL     1     -12.565  14.292  71.901  1.00  0.00    -0.396 A  
HETATM   24  H   UNL     1     -12.480  16.609  72.943  1.00  0.00     0.000 HD 
HETATM   25  C   UNL     1     -12.547  13.094  71.189  1.00  0.00    -0.403 A  
ENDBRANCH   9  12
ENDBRANCH   3   9
ENDBRANCH   2   3
TORSDOF 5
ENDMDL
MODEL       90
REMARK 921   NORMALIZED FREE ENERGY PREDICTED BY IDOCK:   -4.98 KCAL/MOL
REMARK 922        TOTAL FREE ENERGY PREDICTED BY IDOCK:   -7.29 KCAL/MOL
REMARK 923 INTER-LIGAND FREE ENERGY PREDICTED BY IDOCK:   -6.25 KCAL/MOL
REMARK 924 INTRA-LIGAND FREE ENERGY PREDICTED BY IDOCK:   -1.04 KCAL/MOL
REMARK 927      BINDING AFFINITY PREDICTED BY RF-SCORE:    0.00 PKD
ROOT
HETATM    1  C   UNL     1     -10.359  19.958  68.068  1.00  0.00    -0.547 C  
HETATM    2  C   UNL     1      -9.562  19.199  67.011  1.00  0.00    -0.378 C  
ENDROOT
BRANCH   2   3
HETATM    3  C   UNL     1      -9.127  17.765  67.422  1.00  0.00    -0.244 C  
BRANCH   3   4
HETATM    4  N   UNL     1      -7.698  17.492  67.128  1.00  0.00    -0.199 NA 
HETATM    5  H   UNL     1      -7.349  17.445  66.171  1.00  0.00     0.000 HD 
BRANCH   4   6
HETATM    6  C   UNL     1      -6.812  17.295  68.282  1.00  0.00    -0.184 C  
HETATM    7  C   UNL     1      -7.383  16.150  69.126  1.00  0.00    -0.215 C  
HETATM    8  C   UNL     1      -6.658  18.545  69.149  1.00  0.00    -0.281 C  
ENDBRANCH   4   6
ENDBRANCH   3   4
BRANCH   3   9
HETATM    9  C   UNL     1     -10.051  16.685  66.751  1.00  0.00    -0.291 C  
HETATM   10  H   UNL     1     -11.509  16.632  65.405  1.00  0.00     0.000 HD 
HETATM   11  O   UNL     1     -10.950  17.285  65.811  1.00  0.00    -0.108 OA 
BRANCH   9  12
HETATM   12  C   UNL     1     -10.796  15.758  67.714  1.00  0.00    -0.316 A  
HETATM   13  C   UNL     1     -11.019  14.373  67.515  1.00  0.00    -0.299 A  
HETATM   14  C   UNL     1     -10.659  13.660  66.278  1.00  0.00    -0.289 C  
HETATM   15  C   UNL     1     -10.732  12.325  66.200  1.00  0.00    -0.296 C  
HETATM   16  C   UNL     1     -11.208  11.519  67.342  1.00  0.00    -0.304 C  
HETATM   17  N   UNL     1     -11.671  12.205  68.426  1.00  0.00    -0.318 N  
HETATM   18  O   UNL     1     -11.195  10.294  67.304  1.00  0.00    -0.252 OA 
HETATM   19  H   UNL     1     -12.095  11.673  69.186  1.00  0.00     0.000 HD 
HETATM   20  C   UNL     1     -11.600  13.604  68.556  1.00  0.00    -0.335 A  
HETATM   21  C   UNL     1     -12.035  14.222  69.732  1.00  0.00    -0.339 A  
HETATM   22  O   UNL     1     -12.633  13.539  70.754  1.00  0.00    -0.337 OA 
HETATM   23  C   UNL     1     -11.868  15.586  69.913  1.00  0.00    -0.380 A  
HETATM   24  H   UNL     1     -12.929  13.959  71.553  1.00  0.00     0.000 HD 
HETATM   25  C   UNL     1     -11.248  16.342  68.919  1.00  0.00    -0.337 A  
ENDBRANCH   9  12
ENDBRANCH   3   9
ENDBRANCH   2   3
TORSDOF 5
ENDMDL
MODEL       91
REMARK 921   NORMALIZED FREE ENERGY PREDICTED BY IDOCK:   -4.97 KCAL/MOL
REMARK 922        TOTAL FREE ENERGY PREDICTED BY IDOCK:   -7.27 KCAL/MOL
REMARK 923 INTER-LIGAND FREE ENERGY PREDICTED BY IDOCK:   -6.19 KCAL/MOL
REMARK 924 INTRA-LIGAND FREE ENERGY PREDICTED BY IDOCK:   -1.08 KCAL/MOL
REMARK 927      BINDING AFFINITY PREDICTED BY RF-SCORE:    0.00 PKD
ROOT
HETATM    1  C   UNL     1     -10.537   5.550  66.589  1.00  0.00    -0.365 C  
HETATM    2  C   UNL     1     -11.111   6.732  67.366  1.00  0.00    -0.366 C  
ENDROOT
BRANCH   2   3
HETATM    3  C   UNL     1     -10.251   8.025  67.323  1.00  0.00    -0.275 C  
BRANCH   3   4
HETATM    4  N   UNL     1      -9.166   7.959  66.312  1.00  0.00    -0.229 NA 
HETATM    5  H   UNL     1      -8.560   7.144  66.230  1.00  0.00     0.000 HD 
BRANCH   4   6
HETATM    6  C   UNL     1      -9.010   9.127  65.435  1.00  0.00    -0.207 C  
HETATM    7  C   UNL     1      -7.801   9.930  65.927  1.00  0.00    -0.116 C  
HETATM    8  C   UNL     1     -10.245  10.028  65.400  1.00  0.00    -0.226 C  
ENDBRANCH   4   6
ENDBRANCH   3   4
BRANCH   3   9
HETATM    9  C   UNL     1      -9.669   8.359  68.744  1.00  0.00    -0.164 C  
HETATM   10  H   UNL     1      -8.830   7.382  70.253  1.00  0.00     0.000 HD 
HETATM   11  O   UNL     1      -9.181   7.180  69.394  1.00  0.00    -0.148 OA 
BRANCH   9  12
HETATM   12  C   UNL     1     -10.593   9.157  69.668  1.00  0.00    -0.237 A  
HETATM   13  C   UNL     1     -10.804  10.557  69.608  1.00  0.00    -0.320 A  
HETATM   14  C   UNL     1     -10.060  11.456  68.710  1.00  0.00    -0.199 C  
HETATM   15  C   UNL     1     -10.411  12.740  68.566  1.00  0.00    -0.252 C  
HETATM   16  C   UNL     1     -11.539  13.313  69.328  1.00  0.00    -0.314 C  
HETATM   17  N   UNL     1     -12.123  12.505  70.258  1.00  0.00    -0.408 N  
HETATM   18  O   UNL     1     -11.916  14.463  69.136  1.00  0.00    -0.316 OA 
HETATM   19  H   UNL     1     -12.838  12.908  70.864  1.00  0.00     0.000 HD 
HETATM   20  C   UNL     1     -11.797  11.148  70.432  1.00  0.00    -0.369 A  
HETATM   21  C   UNL     1     -12.495  10.372  71.363  1.00  0.00    -0.415 A  
HETATM   22  O   UNL     1     -13.437  10.891  72.207  1.00  0.00    -0.599 OA 
HETATM   23  C   UNL     1     -12.256   9.010  71.464  1.00  0.00    -0.403 A  
HETATM   24  H   UNL     1     -13.911  10.364  72.839  1.00  0.00     0.000 HD 
HETATM   25  C   UNL     1     -11.323   8.411  70.620  1.00  0.00    -0.262 A  
ENDBRANCH   9  12
ENDBRANCH   3   9
ENDBRANCH   2   3
TORSDOF 5
ENDMDL
MODEL       92
REMARK 921   NORMALIZED FREE ENERGY PREDICTED BY IDOCK:   -4.96 KCAL/MOL
REMARK 922        TOTAL FREE ENERGY PREDICTED BY IDOCK:   -7.26 KCAL/MOL
REMARK 923 INTER-LIGAND FREE ENERGY PREDICTED BY IDOCK:   -6.45 KCAL/MOL
REMARK 924 INTRA-LIGAND FREE ENERGY PREDICTED BY IDOCK:   -0.81 KCAL/MOL
REMARK 927      BINDING AFFINITY PREDICTED BY RF-SCORE:    0.00 PKD
ROOT
HETATM    1  C   UNL     1     -11.972  12.009  69.042  1.00  0.00    -0.321 C  
HETATM    2  C   UNL     1     -11.518  13.465  69.000  1.00  0.00    -0.348 C  
ENDROOT
BRANCH   2   3
HETATM    3  C   UNL     1     -10.125  13.699  68.352  1.00  0.00    -0.241 C  
BRANCH   3   4
HETATM    4  N   UNL     1      -9.200  14.451  69.236  1.00  0.00    -0.397 NA 
HETATM    5  H   UNL     1      -9.442  14.670  70.202  1.00  0.00     0.000 HD 
BRANCH   4   6
HETATM    6  C   UNL     1      -7.918  14.865  68.650  1.00  0.00    -0.144 C  
HETATM    7  C   UNL     1      -6.901  13.746  68.900  1.00  0.00    -0.110 C  
HETATM    8  C   UNL     1      -7.387  16.180  69.221  1.00  0.00    -0.231 C  
ENDBRANCH   4   6
ENDBRANCH   3   4
BRANCH   3   9
HETATM    9  C   UNL     1     -10.268  14.412  66.958  1.00  0.00    -0.263 C  
HETATM   10  H   UNL     1     -11.192  16.001  66.210  1.00  0.00     0.000 HD 
HETATM   11  O   UNL     1     -11.106  15.570  67.053  1.00  0.00    -0.312 OA 
BRANCH   9  12
HETATM   12  C   UNL     1     -10.695  13.514  65.795  1.00  0.00    -0.278 A  
HETATM   13  C   UNL     1     -10.082  12.288  65.435  1.00  0.00    -0.292 A  
HETATM   14  C   UNL     1      -8.860  11.771  66.073  1.00  0.00    -0.057 C  
HETATM   15  C   UNL     1      -8.415  10.534  65.820  1.00  0.00    -0.177 C  
HETATM   16  C   UNL     1      -9.115   9.652  64.865  1.00  0.00    -0.232 C  
HETATM   17  N   UNL     1     -10.159  10.198  64.178  1.00  0.00    -0.463 N  
HETATM   18  O   UNL     1      -8.761   8.490  64.695  1.00  0.00    -0.118 OA 
HETATM   19  H   UNL     1     -10.596   9.640  63.444  1.00  0.00     0.000 HD 
HETATM   20  C   UNL     1     -10.669  11.486  64.423  1.00  0.00    -0.344 A  
HETATM   21  C   UNL     1     -11.788  11.943  63.720  1.00  0.00    -0.458 A  
HETATM   22  O   UNL     1     -12.375  11.230  62.712  1.00  0.00    -0.856 OA 
HETATM   23  C   UNL     1     -12.363  13.166  64.031  1.00  0.00    -0.425 A  
HETATM   24  H   UNL     1     -13.136  11.541  62.235  1.00  0.00     0.000 HD 
HETATM   25  C   UNL     1     -11.827  13.936  65.061  1.00  0.00    -0.383 A  
ENDBRANCH   9  12
ENDBRANCH   3   9
ENDBRANCH   2   3
TORSDOF 5
ENDMDL
MODEL       93
REMARK 921   NORMALIZED FREE ENERGY PREDICTED BY IDOCK:   -4.94 KCAL/MOL
REMARK 922        TOTAL FREE ENERGY PREDICTED BY IDOCK:   -7.24 KCAL/MOL
REMARK 923 INTER-LIGAND FREE ENERGY PREDICTED BY IDOCK:   -6.73 KCAL/MOL
REMARK 924 INTRA-LIGAND FREE ENERGY PREDICTED BY IDOCK:   -0.50 KCAL/MOL
REMARK 927      BINDING AFFINITY PREDICTED BY RF-SCORE:    0.00 PKD
ROOT
HETATM    1  C   UNL     1     -10.523   8.358  67.361  1.00  0.00    -0.354 C  
HETATM    2  C   UNL     1     -10.876   9.721  67.949  1.00  0.00    -0.298 C  
ENDROOT
BRANCH   2   3
HETATM    3  C   UNL     1     -10.644  10.926  66.998  1.00  0.00    -0.257 C  
BRANCH   3   4
HETATM    4  N   UNL     1      -9.363  11.628  67.262  1.00  0.00    -0.167 NA 
HETATM    5  H   UNL     1      -9.201  12.138  68.130  1.00  0.00     0.000 HD 
BRANCH   4   6
HETATM    6  C   UNL     1      -8.339  11.549  66.212  1.00  0.00    -0.076 C  
HETATM    7  C   UNL     1      -8.956  10.842  65.001  1.00  0.00    -0.211 C  
HETATM    8  C   UNL     1      -7.076  10.809  66.652  1.00  0.00    -0.133 C  
ENDBRANCH   4   6
ENDBRANCH   3   4
BRANCH   3   9
HETATM    9  C   UNL     1     -11.852  11.930  67.059  1.00  0.00    -0.113 C  
HETATM   10  H   UNL     1     -13.075  12.834  65.785  1.00  0.00     0.000 HD 
HETATM   11  O   UNL     1     -12.345  12.227  65.748  1.00  0.00    -0.622 OA 
BRANCH   9  12
HETATM   12  C   UNL     1     -11.610  13.210  67.862  1.00  0.00    -0.375 A  
HETATM   13  C   UNL     1     -11.093  14.421  67.341  1.00  0.00    -0.317 A  
HETATM   14  C   UNL     1     -10.603  14.571  65.961  1.00  0.00    -0.311 C  
HETATM   15  C   UNL     1     -10.283  15.773  65.464  1.00  0.00    -0.407 C  
HETATM   16  C   UNL     1     -10.379  16.991  66.292  1.00  0.00    -0.306 C  
HETATM   17  N   UNL     1     -10.697  16.815  67.607  1.00  0.00    -0.331 N  
HETATM   18  O   UNL     1     -10.169  18.101  65.817  1.00  0.00    -0.580 OA 
HETATM   19  H   UNL     1     -10.674  17.630  68.220  1.00  0.00     0.000 HD 
HETATM   20  C   UNL     1     -11.054  15.575  68.167  1.00  0.00    -0.325 A  
HETATM   21  C   UNL     1     -11.435  15.495  69.510  1.00  0.00    -0.333 A  
HETATM   22  O   UNL     1     -11.385  16.563  70.362  1.00  0.00    -0.496 OA 
HETATM   23  C   UNL     1     -11.892  14.299  70.042  1.00  0.00    -0.378 A  
HETATM   24  H   UNL     1     -11.643  16.509  71.274  1.00  0.00     0.000 HD 
HETATM   25  C   UNL     1     -11.987  13.174  69.224  1.00  0.00    -0.344 A  
ENDBRANCH   9  12
ENDBRANCH   3   9
ENDBRANCH   2   3
TORSDOF 5
ENDMDL
MODEL       94
REMARK 921   NORMALIZED FREE ENERGY PREDICTED BY IDOCK:   -4.93 KCAL/MOL
REMARK 922        TOTAL FREE ENERGY PREDICTED BY IDOCK:   -7.22 KCAL/MOL
REMARK 923 INTER-LIGAND FREE ENERGY PREDICTED BY IDOCK:   -6.74 KCAL/MOL
REMARK 924 INTRA-LIGAND FREE ENERGY PREDICTED BY IDOCK:   -0.48 KCAL/MOL
REMARK 927      BINDING AFFINITY PREDICTED BY RF-SCORE:    0.00 PKD
ROOT
HETATM    1  C   UNL     1      -9.582   9.784  65.001  1.00  0.00    -0.333 C  
HETATM    2  C   UNL     1     -10.398  10.861  64.293  1.00  0.00    -0.436 C  
ENDROOT
BRANCH   2   3
HETATM    3  C   UNL     1     -10.923  11.997  65.213  1.00  0.00    -0.308 C  
BRANCH   3   4
HETATM    4  N   UNL     1     -10.435  13.338  64.804  1.00  0.00    -0.370 NA 
HETATM    5  H   UNL     1      -9.446  13.521  64.639  1.00  0.00     0.000 HD 
BRANCH   4   6
HETATM    6  C   UNL     1     -11.450  14.389  64.647  1.00  0.00    -0.387 C  
HETATM    7  C   UNL     1     -10.885  15.684  65.240  1.00  0.00    -0.420 C  
HETATM    8  C   UNL     1     -12.780  14.053  65.321  1.00  0.00    -0.468 C  
ENDBRANCH   4   6
ENDBRANCH   3   4
BRANCH   3   9
HETATM    9  C   UNL     1     -10.567  11.710  66.718  1.00  0.00    -0.244 C  
HETATM   10  H   UNL     1     -11.510  11.126  68.363  1.00  0.00     0.000 HD 
HETATM   11  O   UNL     1     -11.724  11.300  67.454  1.00  0.00    -0.580 OA 
BRANCH   9  12
HETATM   12  C   UNL     1      -9.815  12.826  67.446  1.00  0.00    -0.210 A  
HETATM   13  C   UNL     1     -10.391  13.750  68.352  1.00  0.00    -0.247 A  
HETATM   14  C   UNL     1     -11.836  13.830  68.624  1.00  0.00    -0.409 C  
HETATM   15  C   UNL     1     -12.315  14.600  69.609  1.00  0.00    -0.270 C  
HETATM   16  C   UNL     1     -11.415  15.423  70.441  1.00  0.00    -0.330 C  
HETATM   17  N   UNL     1     -10.099  15.446  70.082  1.00  0.00    -0.465 N  
HETATM   18  O   UNL     1     -11.840  16.062  71.397  1.00  0.00    -0.425 OA 
HETATM   19  H   UNL     1      -9.477  16.082  70.580  1.00  0.00     0.000 HD 
HETATM   20  C   UNL     1      -9.551  14.643  69.065  1.00  0.00    -0.145 A  
HETATM   21  C   UNL     1      -8.177  14.677  68.809  1.00  0.00    -0.156 A  
HETATM   22  O   UNL     1      -7.324  15.540  69.439  1.00  0.00    -0.187 OA 
HETATM   23  C   UNL     1      -7.612  13.812  67.885  1.00  0.00    -0.157 A  
HETATM   24  H   UNL     1      -6.390  15.563  69.265  1.00  0.00     0.000 HD 
HETATM   25  C   UNL     1      -8.421  12.893  67.219  1.00  0.00    -0.197 A  
ENDBRANCH   9  12
ENDBRANCH   3   9
ENDBRANCH   2   3
TORSDOF 5
ENDMDL
MODEL       95
REMARK 921   NORMALIZED FREE ENERGY PREDICTED BY IDOCK:   -4.93 KCAL/MOL
REMARK 922        TOTAL FREE ENERGY PREDICTED BY IDOCK:   -7.22 KCAL/MOL
REMARK 923 INTER-LIGAND FREE ENERGY PREDICTED BY IDOCK:   -6.47 KCAL/MOL
REMARK 924 INTRA-LIGAND FREE ENERGY PREDICTED BY IDOCK:   -0.75 KCAL/MOL
REMARK 927      BINDING AFFINITY PREDICTED BY RF-SCORE:    0.00 PKD
ROOT
HETATM    1  C   UNL     1      -9.458   3.754  70.369  1.00  0.00    -0.254 C  
HETATM    2  C   UNL     1      -9.420   5.275  70.487  1.00  0.00    -0.222 C  
ENDROOT
BRANCH   2   3
HETATM    3  C   UNL     1     -10.424   5.879  71.508  1.00  0.00    -0.233 C  
BRANCH   3   4
HETATM    4  N   UNL     1     -10.845   4.903  72.545  1.00  0.00    -0.198 NA 
HETATM    5  H   UNL     1     -11.389   4.073  72.310  1.00  0.00     0.000 HD 
BRANCH   4   6
HETATM    6  C   UNL     1     -10.438   5.192  73.926  1.00  0.00    -0.274 C  
HETATM    7  C   UNL     1     -10.148   6.693  74.030  1.00  0.00    -0.373 C  
HETATM    8  C   UNL     1      -9.210   4.399  74.375  1.00  0.00    -0.116 C  
ENDBRANCH   4   6
ENDBRANCH   3   4
BRANCH   3   9
HETATM    9  C   UNL     1     -11.675   6.485  70.773  1.00  0.00    -0.366 C  
HETATM   10  H   UNL     1     -12.328   6.682  68.909  1.00  0.00     0.000 HD 
HETATM   11  O   UNL     1     -11.573   6.316  69.354  1.00  0.00    -0.403 OA 
BRANCH   9  12
HETATM   12  C   UNL     1     -12.019   7.931  71.134  1.00  0.00    -0.304 A  
HETATM   13  C   UNL     1     -11.404   9.084  70.585  1.00  0.00    -0.311 A  
HETATM   14  C   UNL     1     -10.253   9.035  69.668  1.00  0.00    -0.211 C  
HETATM   15  C   UNL     1      -9.816  10.136  69.044  1.00  0.00    -0.211 C  
HETATM   16  C   UNL     1     -10.450  11.448  69.277  1.00  0.00    -0.067 C  
HETATM   17  N   UNL     1     -11.419  11.499  70.236  1.00  0.00    -0.515 N  
HETATM   18  O   UNL     1     -10.108  12.441  68.644  1.00  0.00    -0.210 OA 
HETATM   19  H   UNL     1     -11.803  12.412  70.483  1.00  0.00     0.000 HD 
HETATM   20  C   UNL     1     -11.920  10.367  70.904  1.00  0.00    -0.377 A  
HETATM   21  C   UNL     1     -12.964  10.500  71.824  1.00  0.00    -0.476 A  
HETATM   22  O   UNL     1     -13.478  11.711  72.196  1.00  0.00    -0.537 OA 
HETATM   23  C   UNL     1     -13.537   9.379  72.405  1.00  0.00    -0.498 A  
HETATM   24  H   UNL     1     -14.188  11.801  72.821  1.00  0.00     0.000 HD 
HETATM   25  C   UNL     1     -13.074   8.111  72.057  1.00  0.00    -0.317 A  
ENDBRANCH   9  12
ENDBRANCH   3   9
ENDBRANCH   2   3
TORSDOF 5
ENDMDL
MODEL       96
REMARK 921   NORMALIZED FREE ENERGY PREDICTED BY IDOCK:   -4.92 KCAL/MOL
REMARK 922        TOTAL FREE ENERGY PREDICTED BY IDOCK:   -7.20 KCAL/MOL
REMARK 923 INTER-LIGAND FREE ENERGY PREDICTED BY IDOCK:   -6.59 KCAL/MOL
REMARK 924 INTRA-LIGAND FREE ENERGY PREDICTED BY IDOCK:   -0.62 KCAL/MOL
REMARK 927      BINDING AFFINITY PREDICTED BY RF-SCORE:    0.00 PKD
ROOT
HETATM    1  C   UNL     1     -11.664  15.806  69.598  1.00  0.00    -0.363 C  
HETATM    2  C   UNL     1     -11.616  15.978  68.083  1.00  0.00    -0.183 C  
ENDROOT
BRANCH   2   3
HETATM    3  C   UNL     1     -10.479  16.899  67.563  1.00  0.00    -0.328 C  
BRANCH   3   4
HETATM    4  N   UNL     1     -10.823  18.341  67.649  1.00  0.00    -0.339 NA 
HETATM    5  H   UNL     1     -11.709  18.701  67.295  1.00  0.00     0.000 HD 
BRANCH   4   6
HETATM    6  C   UNL     1      -9.825  19.221  68.271  1.00  0.00    -0.400 C  
HETATM    7  C   UNL     1      -9.539  20.372  67.300  1.00  0.00    -0.592 C  
HETATM    8  C   UNL     1      -8.520  18.506  68.619  1.00  0.00    -0.326 C  
ENDBRANCH   4   6
ENDBRANCH   3   4
BRANCH   3   9
HETATM    9  C   UNL     1     -10.069  16.511  66.095  1.00  0.00    -0.348 C  
HETATM   10  H   UNL     1     -10.563  17.035  64.246  1.00  0.00     0.000 HD 
HETATM   11  O   UNL     1     -10.811  17.270  65.133  1.00  0.00    -0.640 OA 
BRANCH   9  12
HETATM   12  C   UNL     1     -10.109  15.016  65.770  1.00  0.00    -0.367 A  
HETATM   13  C   UNL     1      -9.446  13.999  66.500  1.00  0.00    -0.295 A  
HETATM   14  C   UNL     1      -8.522  14.266  67.615  1.00  0.00    -0.185 C  
HETATM   15  C   UNL     1      -8.053  13.273  68.381  1.00  0.00    -0.134 C  
HETATM   16  C   UNL     1      -8.419  11.868  68.117  1.00  0.00    -0.163 C  
HETATM   17  N   UNL     1      -9.158  11.627  66.996  1.00  0.00    -0.174 N  
HETATM   18  O   UNL     1      -8.061  10.966  68.867  1.00  0.00    -0.136 OA 
HETATM   19  H   UNL     1      -9.341  10.656  66.741  1.00  0.00     0.000 HD 
HETATM   20  C   UNL     1      -9.684  12.638  66.173  1.00  0.00    -0.251 A  
HETATM   21  C   UNL     1     -10.491  12.306  65.081  1.00  0.00    -0.288 A  
HETATM   22  O   UNL     1     -10.728  11.015  64.698  1.00  0.00    -0.324 OA 
HETATM   23  C   UNL     1     -11.102  13.298  64.329  1.00  0.00    -0.414 A  
HETATM   24  H   UNL     1     -11.277  10.789  63.956  1.00  0.00     0.000 HD 
HETATM   25  C   UNL     1     -10.919  14.635  64.676  1.00  0.00    -0.340 A  
ENDBRANCH   9  12
ENDBRANCH   3   9
ENDBRANCH   2   3
TORSDOF 5
ENDMDL
MODEL       97
REMARK 921   NORMALIZED FREE ENERGY PREDICTED BY IDOCK:   -4.91 KCAL/MOL
REMARK 922        TOTAL FREE ENERGY PREDICTED BY IDOCK:   -7.20 KCAL/MOL
REMARK 923 INTER-LIGAND FREE ENERGY PREDICTED BY IDOCK:   -6.90 KCAL/MOL
REMARK 924 INTRA-LIGAND FREE ENERGY PREDICTED BY IDOCK:   -0.31 KCAL/MOL
REMARK 927      BINDING AFFINITY PREDICTED BY RF-SCORE:    0.00 PKD
ROOT
HETATM    1  C   UNL     1      -8.398   9.243  69.891  1.00  0.00    -0.161 C  
HETATM    2  C   UNL     1      -9.574  10.164  69.580  1.00  0.00    -0.237 C  
ENDROOT
BRANCH   2   3
HETATM    3  C   UNL     1     -10.848   9.911  70.432  1.00  0.00    -0.319 C  
BRANCH   3   4
HETATM    4  N   UNL     1     -11.520   8.630  70.095  1.00  0.00    -0.457 NA 
HETATM    5  H   UNL     1     -11.912   8.459  69.169  1.00  0.00     0.000 HD 
BRANCH   4   6
HETATM    6  C   UNL     1     -11.591   7.622  71.160  1.00  0.00    -0.280 C  
HETATM    7  C   UNL     1     -13.064   7.260  71.372  1.00  0.00    -0.412 C  
HETATM    8  C   UNL     1     -10.982   8.092  72.481  1.00  0.00    -0.439 C  
ENDBRANCH   4   6
ENDBRANCH   3   4
BRANCH   3   9
HETATM    9  C   UNL     1     -11.852  11.115  70.312  1.00  0.00    -0.366 C  
HETATM   10  H   UNL     1     -13.808  11.416  70.459  1.00  0.00     0.000 HD 
HETATM   11  O   UNL     1     -13.201  10.688  70.532  1.00  0.00    -0.242 OA 
BRANCH   9  12
HETATM   12  C   UNL     1     -11.737  11.948  69.033  1.00  0.00    -0.391 A  
HETATM   13  C   UNL     1     -11.638  13.360  68.979  1.00  0.00    -0.358 A  
HETATM   14  C   UNL     1     -11.753  14.231  70.160  1.00  0.00    -0.357 C  
HETATM   15  C   UNL     1     -11.485  15.540  70.086  1.00  0.00    -0.342 C  
HETATM   16  C   UNL     1     -11.094  16.168  68.808  1.00  0.00    -0.354 C  
HETATM   17  N   UNL     1     -11.132  15.375  67.699  1.00  0.00    -0.313 N  
HETATM   18  O   UNL     1     -10.765  17.348  68.754  1.00  0.00    -0.309 OA 
HETATM   19  H   UNL     1     -10.960  15.810  66.792  1.00  0.00     0.000 HD 
HETATM   20  C   UNL     1     -11.393  13.994  67.733  1.00  0.00    -0.303 A  
HETATM   21  C   UNL     1     -11.343  13.241  66.555  1.00  0.00    -0.322 A  
HETATM   22  O   UNL     1     -11.145  13.800  65.324  1.00  0.00    -0.299 OA 
HETATM   23  C   UNL     1     -11.492  11.864  66.594  1.00  0.00    -0.382 A  
HETATM   24  H   UNL     1     -11.112  13.289  64.524  1.00  0.00     0.000 HD 
HETATM   25  C   UNL     1     -11.678  11.226  67.820  1.00  0.00    -0.254 A  
ENDBRANCH   9  12
ENDBRANCH   3   9
ENDBRANCH   2   3
TORSDOF 5
ENDMDL
MODEL       98
REMARK 921   NORMALIZED FREE ENERGY PREDICTED BY IDOCK:   -4.87 KCAL/MOL
REMARK 922        TOTAL FREE ENERGY PREDICTED BY IDOCK:   -7.14 KCAL/MOL
REMARK 923 INTER-LIGAND FREE ENERGY PREDICTED BY IDOCK:   -6.29 KCAL/MOL
REMARK 924 INTRA-LIGAND FREE ENERGY PREDICTED BY IDOCK:   -0.85 KCAL/MOL
REMARK 927      BINDING AFFINITY PREDICTED BY RF-SCORE:    0.00 PKD
ROOT
HETATM    1  C   UNL     1     -10.122  17.849  68.548  1.00  0.00    -0.392 C  
HETATM    2  C   UNL     1     -10.831  16.618  67.991  1.00  0.00    -0.337 C  
ENDROOT
BRANCH   2   3
HETATM    3  C   UNL     1      -9.919  15.380  67.769  1.00  0.00    -0.225 C  
BRANCH   3   4
HETATM    4  N   UNL     1      -8.617  15.730  67.147  1.00  0.00    -0.186 NA 
HETATM    5  H   UNL     1      -8.563  16.316  66.314  1.00  0.00     0.000 HD 
BRANCH   4   6
HETATM    6  C   UNL     1      -7.412  15.192  67.792  1.00  0.00    -0.162 C  
HETATM    7  C   UNL     1      -7.712  15.015  69.284  1.00  0.00    -0.194 C  
HETATM    8  C   UNL     1      -6.182  16.083  67.617  1.00  0.00    -0.184 C  
ENDBRANCH   4   6
ENDBRANCH   3   4
BRANCH   3   9
HETATM    9  C   UNL     1     -10.662  14.280  66.927  1.00  0.00    -0.290 C  
HETATM   10  H   UNL     1     -12.206  14.178  65.685  1.00  0.00     0.000 HD 
HETATM   11  O   UNL     1     -11.757  14.842  66.194  1.00  0.00    -0.342 OA 
BRANCH   9  12
HETATM   12  C   UNL     1     -11.095  13.033  67.700  1.00  0.00    -0.296 A  
HETATM   13  C   UNL     1     -10.928  11.696  67.262  1.00  0.00    -0.318 A  
HETATM   14  C   UNL     1     -10.414  11.332  65.931  1.00  0.00    -0.314 C  
HETATM   15  C   UNL     1     -10.114  10.064  65.626  1.00  0.00    -0.321 C  
HETATM   16  C   UNL     1     -10.319   8.975  66.602  1.00  0.00    -0.219 C  
HETATM   17  N   UNL     1     -10.929   9.310  67.775  1.00  0.00    -0.493 N  
HETATM   18  O   UNL     1      -9.966   7.827  66.356  1.00  0.00    -0.197 OA 
HETATM   19  H   UNL     1     -11.169   8.559  68.423  1.00  0.00     0.000 HD 
HETATM   20  C   UNL     1     -11.246  10.630  68.143  1.00  0.00    -0.302 A  
HETATM   21  C   UNL     1     -11.808  10.893  69.396  1.00  0.00    -0.328 A  
HETATM   22  O   UNL     1     -12.166   9.906  70.272  1.00  0.00    -0.454 OA 
HETATM   23  C   UNL     1     -12.023  12.198  69.811  1.00  0.00    -0.372 A  
HETATM   24  H   UNL     1     -12.548  10.085  71.124  1.00  0.00     0.000 HD 
HETATM   25  C   UNL     1     -11.663  13.254  68.975  1.00  0.00    -0.368 A  
ENDBRANCH   9  12
ENDBRANCH   3   9
ENDBRANCH   2   3
TORSDOF 5
ENDMDL
MODEL       99
REMARK 921   NORMALIZED FREE ENERGY PREDICTED BY IDOCK:   -4.84 KCAL/MOL
REMARK 922        TOTAL FREE ENERGY PREDICTED BY IDOCK:   -7.11 KCAL/MOL
REMARK 923 INTER-LIGAND FREE ENERGY PREDICTED BY IDOCK:   -6.49 KCAL/MOL
REMARK 924 INTRA-LIGAND FREE ENERGY PREDICTED BY IDOCK:   -0.62 KCAL/MOL
REMARK 927      BINDING AFFINITY PREDICTED BY RF-SCORE:    0.00 PKD
ROOT
HETATM    1  C   UNL     1      -7.780  10.826  68.437  1.00  0.00    -0.113 C  
HETATM    2  C   UNL     1      -8.541   9.555  68.072  1.00  0.00    -0.120 C  
ENDROOT
BRANCH   2   3
HETATM    3  C   UNL     1      -9.597   9.100  69.116  1.00  0.00    -0.161 C  
BRANCH   3   4
HETATM    4  N   UNL     1      -9.631   7.627  69.295  1.00  0.00    -0.159 NA 
HETATM    5  H   UNL     1      -8.809   7.106  69.600  1.00  0.00     0.000 HD 
BRANCH   4   6
HETATM    6  C   UNL     1     -10.907   6.957  69.011  1.00  0.00    -0.212 C  
HETATM    7  C   UNL     1     -11.282   6.116  70.236  1.00  0.00    -0.439 C  
HETATM    8  C   UNL     1     -10.860   6.065  67.770  1.00  0.00    -0.380 C  
ENDBRANCH   4   6
ENDBRANCH   3   4
BRANCH   3   9
HETATM    9  C   UNL     1     -11.023   9.649  68.746  1.00  0.00    -0.117 C  
HETATM   10  H   UNL     1     -11.893  10.560  67.212  1.00  0.00     0.000 HD 
HETATM   11  O   UNL     1     -11.031  10.228  67.436  1.00  0.00    -0.293 OA 
BRANCH   9  12
HETATM   12  C   UNL     1     -11.656  10.593  69.771  1.00  0.00    -0.385 A  
HETATM   13  C   UNL     1     -11.551  12.006  69.761  1.00  0.00    -0.348 A  
HETATM   14  C   UNL     1     -10.707  12.754  68.815  1.00  0.00    -0.246 C  
HETATM   15  C   UNL     1     -10.770  14.088  68.733  1.00  0.00    -0.272 C  
HETATM   16  C   UNL     1     -11.667  14.865  69.612  1.00  0.00    -0.320 C  
HETATM   17  N   UNL     1     -12.333  14.169  70.577  1.00  0.00    -0.342 N  
HETATM   18  O   UNL     1     -11.790  16.078  69.482  1.00  0.00    -0.319 OA 
HETATM   19  H   UNL     1     -12.882  14.696  71.257  1.00  0.00     0.000 HD 
HETATM   20  C   UNL     1     -12.308  12.767  70.690  1.00  0.00    -0.297 A  
HETATM   21  C   UNL     1     -13.076  12.128  71.667  1.00  0.00    -0.310 A  
HETATM   22  O   UNL     1     -13.797  12.808  72.609  1.00  0.00    -0.699 OA 
HETATM   23  C   UNL     1     -13.143  10.744  71.716  1.00  0.00    -0.573 A  
HETATM   24  H   UNL     1     -14.320  12.373  73.273  1.00  0.00     0.000 HD 
HETATM   25  C   UNL     1     -12.448   9.988  70.773  1.00  0.00    -0.386 A  
ENDBRANCH   9  12
ENDBRANCH   3   9
ENDBRANCH   2   3
TORSDOF 5
ENDMDL
MODEL      100
REMARK 921   NORMALIZED FREE ENERGY PREDICTED BY IDOCK:   -4.84 KCAL/MOL
REMARK 922        TOTAL FREE ENERGY PREDICTED BY IDOCK:   -7.10 KCAL/MOL
REMARK 923 INTER-LIGAND FREE ENERGY PREDICTED BY IDOCK:   -6.11 KCAL/MOL
REMARK 924 INTRA-LIGAND FREE ENERGY PREDICTED BY IDOCK:   -1.00 KCAL/MOL
REMARK 927      BINDING AFFINITY PREDICTED BY RF-SCORE:    0.00 PKD
ROOT
HETATM    1  C   UNL     1     -10.181   8.874  67.169  1.00  0.00    -0.339 C  
HETATM    2  C   UNL     1     -10.030   9.800  65.965  1.00  0.00    -0.342 C  
ENDROOT
BRANCH   2   3
HETATM    3  C   UNL     1      -9.824  11.299  66.313  1.00  0.00    -0.214 C  
BRANCH   3   4
HETATM    4  N   UNL     1      -9.322  11.505  67.694  1.00  0.00    -0.168 NA 
HETATM    5  H   UNL     1      -9.930  11.396  68.506  1.00  0.00     0.000 HD 
BRANCH   4   6
HETATM    6  C   UNL     1      -7.907  11.871  67.835  1.00  0.00    -0.138 C  
HETATM    7  C   UNL     1      -7.515  11.691  69.305  1.00  0.00     0.073 C  
HETATM    8  C   UNL     1      -7.605  13.303  67.393  1.00  0.00    -0.137 C  
ENDBRANCH   4   6
ENDBRANCH   3   4
BRANCH   3   9
HETATM    9  C   UNL     1     -11.146  12.117  66.072  1.00  0.00    -0.313 C  
HETATM   10  H   UNL     1     -12.489  12.344  64.630  1.00  0.00     0.000 HD 
HETATM   11  O   UNL     1     -11.691  11.850  64.775  1.00  0.00    -0.298 OA 
BRANCH   9  12
HETATM   12  C   UNL     1     -11.050  13.622  66.333  1.00  0.00    -0.307 A  
HETATM   13  C   UNL     1     -11.414  14.272  67.538  1.00  0.00    -0.368 A  
HETATM   14  C   UNL     1     -12.054  13.585  68.673  1.00  0.00    -0.303 C  
HETATM   15  C   UNL     1     -12.224  14.200  69.850  1.00  0.00    -0.416 C  
HETATM   16  C   UNL     1     -11.806  15.603  70.045  1.00  0.00    -0.367 C  
HETATM   17  N   UNL     1     -11.349  16.266  68.944  1.00  0.00    -0.339 N  
HETATM   18  O   UNL     1     -11.882  16.142  71.144  1.00  0.00    -0.422 OA 
HETATM   19  H   UNL     1     -11.147  17.262  69.033  1.00  0.00     0.000 HD 
HETATM   20  C   UNL     1     -11.140  15.656  67.694  1.00  0.00    -0.305 A  
HETATM   21  C   UNL     1     -10.601  16.392  66.635  1.00  0.00    -0.239 A  
HETATM   22  O   UNL     1     -10.348  17.733  66.715  1.00  0.00    -0.338 OA 
HETATM   23  C   UNL     1     -10.291  15.774  65.434  1.00  0.00    -0.417 A  
HETATM   24  H   UNL     1      -9.983  18.234  65.996  1.00  0.00     0.000 HD 
HETATM   25  C   UNL     1     -10.505  14.404  65.290  1.00  0.00    -0.410 A  
ENDBRANCH   9  12
ENDBRANCH   3   9
ENDBRANCH   2   3
TORSDOF 5
ENDMDL
MODEL      101
REMARK 921   NORMALIZED FREE ENERGY PREDICTED BY IDOCK:   -4.84 KCAL/MOL
REMARK 922        TOTAL FREE ENERGY PREDICTED BY IDOCK:   -7.10 KCAL/MOL
REMARK 923 INTER-LIGAND FREE ENERGY PREDICTED BY IDOCK:   -7.08 KCAL/MOL
REMARK 924 INTRA-LIGAND FREE ENERGY PREDICTED BY IDOCK:   -0.02 KCAL/MOL
REMARK 927      BINDING AFFINITY PREDICTED BY RF-SCORE:    0.00 PKD
ROOT
HETATM    1  C   UNL     1      -7.013  14.715  68.280  1.00  0.00    -0.113 C  
HETATM    2  C   UNL     1      -7.951  15.747  68.902  1.00  0.00    -0.197 C  
ENDROOT
BRANCH   2   3
HETATM    3  C   UNL     1      -8.845  16.514  67.890  1.00  0.00    -0.193 C  
BRANCH   3   4
HETATM    4  N   UNL     1      -8.488  17.951  67.784  1.00  0.00    -0.238 NA 
HETATM    5  H   UNL     1      -7.944  18.423  68.506  1.00  0.00     0.000 HD 
BRANCH   4   6
HETATM    6  C   UNL     1      -8.958  18.661  66.586  1.00  0.00    -0.306 C  
HETATM    7  C   UNL     1      -7.765  19.410  65.983  1.00  0.00    -0.310 C  
HETATM    8  C   UNL     1     -10.093  19.645  66.871  1.00  0.00    -0.533 C  
ENDBRANCH   4   6
ENDBRANCH   3   4
BRANCH   3   9
HETATM    9  C   UNL     1     -10.367  16.342  68.244  1.00  0.00    -0.279 C  
HETATM   10  H   UNL     1     -11.658  17.072  69.563  1.00  0.00     0.000 HD 
HETATM   11  O   UNL     1     -10.738  17.176  69.349  1.00  0.00    -0.288 OA 
BRANCH   9  12
HETATM   12  C   UNL     1     -10.840  14.903  68.455  1.00  0.00    -0.252 A  
HETATM   13  C   UNL     1     -11.475  14.408  69.621  1.00  0.00    -0.331 A  
HETATM   14  C   UNL     1     -11.657  15.202  70.848  1.00  0.00    -0.380 C  
HETATM   15  C   UNL     1     -12.410  14.752  71.859  1.00  0.00    -0.417 C  
HETATM   16  C   UNL     1     -13.059  13.428  71.798  1.00  0.00    -0.388 C  
HETATM   17  N   UNL     1     -12.763  12.649  70.718  1.00  0.00    -0.193 N  
HETATM   18  O   UNL     1     -13.817  13.049  72.685  1.00  0.00    -0.653 OA 
HETATM   19  H   UNL     1     -13.122  11.694  70.701  1.00  0.00     0.000 HD 
HETATM   20  C   UNL     1     -11.991  13.086  69.626  1.00  0.00    -0.302 A  
HETATM   21  C   UNL     1     -11.793  12.246  68.526  1.00  0.00    -0.307 A  
HETATM   22  O   UNL     1     -12.236  10.954  68.488  1.00  0.00    -0.799 OA 
HETATM   23  C   UNL     1     -11.127  12.706  67.401  1.00  0.00    -0.315 A  
HETATM   24  H   UNL     1     -12.102  10.383  67.741  1.00  0.00     0.000 HD 
HETATM   25  C   UNL     1     -10.665  14.021  67.364  1.00  0.00    -0.285 A  
ENDBRANCH   9  12
ENDBRANCH   3   9
ENDBRANCH   2   3
TORSDOF 5
ENDMDL
MODEL      102
REMARK 921   NORMALIZED FREE ENERGY PREDICTED BY IDOCK:   -4.84 KCAL/MOL
REMARK 922        TOTAL FREE ENERGY PREDICTED BY IDOCK:   -7.10 KCAL/MOL
REMARK 923 INTER-LIGAND FREE ENERGY PREDICTED BY IDOCK:   -6.15 KCAL/MOL
REMARK 924 INTRA-LIGAND FREE ENERGY PREDICTED BY IDOCK:   -0.95 KCAL/MOL
REMARK 927      BINDING AFFINITY PREDICTED BY RF-SCORE:    0.00 PKD
ROOT
HETATM    1  C   UNL     1      -9.823   9.185  67.900  1.00  0.00    -0.204 C  
HETATM    2  C   UNL     1     -10.195  10.020  66.678  1.00  0.00    -0.288 C  
ENDROOT
BRANCH   2   3
HETATM    3  C   UNL     1     -11.234  11.145  66.944  1.00  0.00    -0.186 C  
BRANCH   3   4
HETATM    4  N   UNL     1     -11.127  12.265  65.976  1.00  0.00    -0.296 NA 
HETATM    5  H   UNL     1     -10.247  12.755  65.820  1.00  0.00     0.000 HD 
BRANCH   4   6
HETATM    6  C   UNL     1     -12.353  12.633  65.255  1.00  0.00    -0.466 C  
HETATM    7  C   UNL     1     -12.218  12.141  63.811  1.00  0.00    -0.630 C  
HETATM    8  C   UNL     1     -12.632  14.136  65.263  1.00  0.00    -0.460 C  
ENDBRANCH   4   6
ENDBRANCH   3   4
BRANCH   3   9
HETATM    9  C   UNL     1     -11.124  11.671  68.422  1.00  0.00    -0.234 C  
HETATM   10  H   UNL     1     -12.224  11.650  70.073  1.00  0.00     0.000 HD 
HETATM   11  O   UNL     1     -12.290  11.332  69.180  1.00  0.00    -0.403 OA 
BRANCH   9  12
HETATM   12  C   UNL     1     -10.778  13.154  68.572  1.00  0.00    -0.277 A  
HETATM   13  C   UNL     1      -9.502  13.727  68.350  1.00  0.00    -0.198 A  
HETATM   14  C   UNL     1      -8.294  12.938  68.055  1.00  0.00    -0.169 C  
HETATM   15  C   UNL     1      -7.152  13.529  67.686  1.00  0.00    -0.176 C  
HETATM   16  C   UNL     1      -7.048  14.999  67.593  1.00  0.00    -0.183 C  
HETATM   17  N   UNL     1      -8.131  15.717  68.007  1.00  0.00    -0.138 N  
HETATM   18  O   UNL     1      -6.030  15.539  67.174  1.00  0.00    -0.318 OA 
HETATM   19  H   UNL     1      -8.048  16.734  68.044  1.00  0.00     0.000 HD 
HETATM   20  C   UNL     1      -9.355  15.139  68.387  1.00  0.00    -0.197 A  
HETATM   21  C   UNL     1     -10.439  15.952  68.732  1.00  0.00    -0.237 A  
HETATM   22  O   UNL     1     -10.349  17.313  68.818  1.00  0.00    -0.326 OA 
HETATM   23  C   UNL     1     -11.679  15.395  69.002  1.00  0.00    -0.380 A  
HETATM   24  H   UNL     1     -11.085  17.866  69.053  1.00  0.00     0.000 HD 
HETATM   25  C   UNL     1     -11.847  14.014  68.914  1.00  0.00    -0.390 A  
ENDBRANCH   9  12
ENDBRANCH   3   9
ENDBRANCH   2   3
TORSDOF 5
ENDMDL
MODEL      103
REMARK 921   NORMALIZED FREE ENERGY PREDICTED BY IDOCK:   -4.83 KCAL/MOL
REMARK 922        TOTAL FREE ENERGY PREDICTED BY IDOCK:   -7.09 KCAL/MOL
REMARK 923 INTER-LIGAND FREE ENERGY PREDICTED BY IDOCK:   -6.29 KCAL/MOL
REMARK 924 INTRA-LIGAND FREE ENERGY PREDICTED BY IDOCK:   -0.81 KCAL/MOL
REMARK 927      BINDING AFFINITY PREDICTED BY RF-SCORE:    0.00 PKD
ROOT
HETATM    1  C   UNL     1     -11.125  16.379  69.306  1.00  0.00    -0.297 C  
HETATM    2  C   UNL     1      -9.770  16.116  68.655  1.00  0.00    -0.227 C  
ENDROOT
BRANCH   2   3
HETATM    3  C   UNL     1      -9.585  16.745  67.247  1.00  0.00    -0.234 C  
BRANCH   3   4
HETATM    4  N   UNL     1     -10.531  17.859  66.988  1.00  0.00    -0.358 NA 
HETATM    5  H   UNL     1     -11.521  17.690  66.810  1.00  0.00     0.000 HD 
BRANCH   4   6
HETATM    6  C   UNL     1      -9.971  19.217  67.000  1.00  0.00    -0.357 C  
HETATM    7  C   UNL     1      -8.444  19.100  66.946  1.00  0.00    -0.309 C  
HETATM    8  C   UNL     1     -10.381  20.030  68.228  1.00  0.00    -0.494 C  
ENDBRANCH   4   6
ENDBRANCH   3   4
BRANCH   3   9
HETATM    9  C   UNL     1      -9.692  15.649  66.125  1.00  0.00    -0.318 C  
HETATM   10  H   UNL     1     -10.521  15.462  64.331  1.00  0.00     0.000 HD 
HETATM   11  O   UNL     1     -10.455  16.124  65.010  1.00  0.00    -0.595 OA 
BRANCH   9  12
HETATM   12  C   UNL     1     -10.183  14.275  66.585  1.00  0.00    -0.272 A  
HETATM   13  C   UNL     1      -9.368  13.251  67.128  1.00  0.00    -0.240 A  
HETATM   14  C   UNL     1      -7.900  13.336  67.211  1.00  0.00    -0.118 C  
HETATM   15  C   UNL     1      -7.189  12.423  67.884  1.00  0.00    -0.110 C  
HETATM   16  C   UNL     1      -7.847  11.276  68.541  1.00  0.00    -0.138 C  
HETATM   17  N   UNL     1      -9.187  11.137  68.333  1.00  0.00    -0.169 N  
HETATM   18  O   UNL     1      -7.209  10.486  69.228  1.00  0.00    -0.079 OA 
HETATM   19  H   UNL     1      -9.645  10.300  68.696  1.00  0.00     0.000 HD 
HETATM   20  C   UNL     1      -9.975  12.079  67.647  1.00  0.00    -0.191 A  
HETATM   21  C   UNL     1     -11.357  11.892  67.539  1.00  0.00    -0.314 A  
HETATM   22  O   UNL     1     -11.993  10.768  67.989  1.00  0.00    -0.780 OA 
HETATM   23  C   UNL     1     -12.155  12.867  66.962  1.00  0.00    -0.296 A  
HETATM   24  H   UNL     1     -12.931  10.641  67.916  1.00  0.00     0.000 HD 
HETATM   25  C   UNL     1     -11.575  14.046  66.499  1.00  0.00    -0.389 A  
ENDBRANCH   9  12
ENDBRANCH   3   9
ENDBRANCH   2   3
TORSDOF 5
ENDMDL
MODEL      104
REMARK 921   NORMALIZED FREE ENERGY PREDICTED BY IDOCK:   -4.83 KCAL/MOL
REMARK 922        TOTAL FREE ENERGY PREDICTED BY IDOCK:   -7.09 KCAL/MOL
REMARK 923 INTER-LIGAND FREE ENERGY PREDICTED BY IDOCK:   -6.76 KCAL/MOL
REMARK 924 INTRA-LIGAND FREE ENERGY PREDICTED BY IDOCK:   -0.33 KCAL/MOL
REMARK 927      BINDING AFFINITY PREDICTED BY RF-SCORE:    0.00 PKD
ROOT
HETATM    1  C   UNL     1     -11.352   6.450  69.559  1.00  0.00    -0.460 C  
HETATM    2  C   UNL     1     -11.677   7.034  70.931  1.00  0.00    -0.387 C  
ENDROOT
BRANCH   2   3
HETATM    3  C   UNL     1     -11.267   8.519  71.126  1.00  0.00    -0.267 C  
BRANCH   3   4
HETATM    4  N   UNL     1     -10.114   8.680  72.047  1.00  0.00    -0.315 NA 
HETATM    5  H   UNL     1      -9.812   9.599  72.371  1.00  0.00     0.000 HD 
BRANCH   4   6
HETATM    6  C   UNL     1      -9.431   7.451  72.470  1.00  0.00    -0.152 C  
HETATM    7  C   UNL     1      -9.575   7.328  73.991  1.00  0.00    -0.288 C  
HETATM    8  C   UNL     1      -7.950   7.419  72.090  1.00  0.00    -0.101 C  
ENDBRANCH   4   6
ENDBRANCH   3   4
BRANCH   3   9
HETATM    9  C   UNL     1     -12.491   9.380  71.608  1.00  0.00    -0.378 C  
HETATM   10  H   UNL     1     -14.472   9.277  71.548  1.00  0.00     0.000 HD 
HETATM   11  O   UNL     1     -13.732   8.757  71.257  1.00  0.00    -0.283 OA 
BRANCH   9  12
HETATM   12  C   UNL     1     -12.473  10.851  71.188  1.00  0.00    -0.511 A  
HETATM   13  C   UNL     1     -12.021  11.343  69.938  1.00  0.00    -0.434 A  
HETATM   14  C   UNL     1     -11.391  10.499  68.909  1.00  0.00    -0.313 C  
HETATM   15  C   UNL     1     -11.137  10.972  67.683  1.00  0.00    -0.363 C  
HETATM   16  C   UNL     1     -11.449  12.370  67.324  1.00  0.00    -0.354 C  
HETATM   17  N   UNL     1     -11.899  13.175  68.329  1.00  0.00    -0.350 N  
HETATM   18  O   UNL     1     -11.297  12.781  66.179  1.00  0.00    -0.299 OA 
HETATM   19  H   UNL     1     -12.028  14.167  68.129  1.00  0.00     0.000 HD 
HETATM   20  C   UNL     1     -12.194  12.717  69.626  1.00  0.00    -0.126 A  
HETATM   21  C   UNL     1     -12.718  13.597  70.578  1.00  0.00    -0.190 A  
HETATM   22  O   UNL     1     -12.875  14.935  70.348  1.00  0.00    -0.493 OA 
HETATM   23  C   UNL     1     -13.113  13.132  71.823  1.00  0.00    -0.478 A  
HETATM   24  H   UNL     1     -13.230  15.533  70.995  1.00  0.00     0.000 HD 
HETATM   25  C   UNL     1     -12.999  11.775  72.119  1.00  0.00    -0.223 A  
ENDBRANCH   9  12
ENDBRANCH   3   9
ENDBRANCH   2   3
TORSDOF 5
ENDMDL
MODEL      105
REMARK 921   NORMALIZED FREE ENERGY PREDICTED BY IDOCK:   -4.82 KCAL/MOL
REMARK 922        TOTAL FREE ENERGY PREDICTED BY IDOCK:   -7.07 KCAL/MOL
REMARK 923 INTER-LIGAND FREE ENERGY PREDICTED BY IDOCK:   -5.95 KCAL/MOL
REMARK 924 INTRA-LIGAND FREE ENERGY PREDICTED BY IDOCK:   -1.13 KCAL/MOL
REMARK 927      BINDING AFFINITY PREDICTED BY RF-SCORE:    0.00 PKD
ROOT
HETATM    1  C   UNL     1     -10.329   5.222  70.493  1.00  0.00    -0.336 C  
HETATM    2  C   UNL     1     -10.039   5.780  69.103  1.00  0.00    -0.257 C  
ENDROOT
BRANCH   2   3
HETATM    3  C   UNL     1     -10.436   7.267  68.896  1.00  0.00    -0.206 C  
BRANCH   3   4
HETATM    4  N   UNL     1     -11.485   7.718  69.845  1.00  0.00    -0.462 NA 
HETATM    5  H   UNL     1     -12.389   7.251  69.906  1.00  0.00     0.000 HD 
BRANCH   4   6
HETATM    6  C   UNL     1     -11.154   8.871  70.694  1.00  0.00    -0.262 C  
HETATM    7  C   UNL     1      -9.677   9.211  70.475  1.00  0.00    -0.287 C  
HETATM    8  C   UNL     1     -11.410   8.621  72.181  1.00  0.00    -0.434 C  
ENDBRANCH   4   6
ENDBRANCH   3   4
BRANCH   3   9
HETATM    9  C   UNL     1     -10.881   7.528  67.410  1.00  0.00    -0.202 C  
HETATM   10  H   UNL     1     -11.361   6.453  65.813  1.00  0.00     0.000 HD 
HETATM   11  O   UNL     1     -11.093   6.296  66.711  1.00  0.00    -0.343 OA 
BRANCH   9  12
HETATM   12  C   UNL     1      -9.985   8.473  66.607  1.00  0.00    -0.363 A  
HETATM   13  C   UNL     1     -10.085   9.886  66.594  1.00  0.00    -0.297 A  
HETATM   14  C   UNL     1     -11.158  10.633  67.272  1.00  0.00    -0.313 C  
HETATM   15  C   UNL     1     -11.116  11.967  67.375  1.00  0.00    -0.337 C  
HETATM   16  C   UNL     1     -10.008  12.744  66.784  1.00  0.00    -0.237 C  
HETATM   17  N   UNL     1      -9.102  12.050  66.038  1.00  0.00    -0.391 N  
HETATM   18  O   UNL     1      -9.923  13.956  66.949  1.00  0.00    -0.252 OA 
HETATM   19  H   UNL     1      -8.384  12.577  65.540  1.00  0.00     0.000 HD 
HETATM   20  C   UNL     1      -9.098  10.648  65.916  1.00  0.00    -0.180 A  
HETATM   21  C   UNL     1      -8.090  10.010  65.188  1.00  0.00    -0.144 A  
HETATM   22  O   UNL     1      -7.133  10.691  64.488  1.00  0.00    -0.351 OA 
HETATM   23  C   UNL     1      -8.016   8.626  65.153  1.00  0.00    -0.127 A  
HETATM   24  H   UNL     1      -6.448  10.257  63.993  1.00  0.00     0.000 HD 
HETATM   25  C   UNL     1      -8.947   7.869  65.861  1.00  0.00    -0.166 A  
ENDBRANCH   9  12
ENDBRANCH   3   9
ENDBRANCH   2   3
TORSDOF 5
ENDMDL
MODEL      106
REMARK 921   NORMALIZED FREE ENERGY PREDICTED BY IDOCK:   -4.79 KCAL/MOL
REMARK 922        TOTAL FREE ENERGY PREDICTED BY IDOCK:   -7.04 KCAL/MOL
REMARK 923 INTER-LIGAND FREE ENERGY PREDICTED BY IDOCK:   -6.50 KCAL/MOL
REMARK 924 INTRA-LIGAND FREE ENERGY PREDICTED BY IDOCK:   -0.54 KCAL/MOL
REMARK 927      BINDING AFFINITY PREDICTED BY RF-SCORE:    0.00 PKD
ROOT
HETATM    1  C   UNL     1     -12.153  14.697  64.408  1.00  0.00    -0.481 C  
HETATM    2  C   UNL     1     -12.748  14.119  65.689  1.00  0.00    -0.469 C  
ENDROOT
BRANCH   2   3
HETATM    3  C   UNL     1     -11.717  13.798  66.805  1.00  0.00    -0.391 C  
BRANCH   3   4
HETATM    4  N   UNL     1     -10.549  14.714  66.787  1.00  0.00    -0.284 NA 
HETATM    5  H   UNL     1      -9.721  14.515  66.224  1.00  0.00     0.000 HD 
BRANCH   4   6
HETATM    6  C   UNL     1     -10.643  15.920  67.619  1.00  0.00    -0.307 C  
HETATM    7  C   UNL     1      -9.266  16.176  68.241  1.00  0.00    -0.197 C  
HETATM    8  C   UNL     1     -11.694  15.813  68.725  1.00  0.00    -0.387 C  
ENDBRANCH   4   6
ENDBRANCH   3   4
BRANCH   3   9
HETATM    9  C   UNL     1     -11.251  12.298  66.724  1.00  0.00    -0.318 C  
HETATM   10  H   UNL     1     -11.561  10.727  65.553  1.00  0.00     0.000 HD 
HETATM   11  O   UNL     1     -11.842  11.633  65.602  1.00  0.00    -0.278 OA 
BRANCH   9  12
HETATM   12  C   UNL     1     -11.423  11.481  68.006  1.00  0.00    -0.381 A  
HETATM   13  C   UNL     1     -10.983  10.147  68.195  1.00  0.00    -0.313 A  
HETATM   14  C   UNL     1     -10.399   9.322  67.124  1.00  0.00    -0.330 C  
HETATM   15  C   UNL     1      -9.844   8.133  67.388  1.00  0.00    -0.242 C  
HETATM   16  C   UNL     1      -9.825   7.588  68.760  1.00  0.00    -0.166 C  
HETATM   17  N   UNL     1     -10.496   8.298  69.711  1.00  0.00    -0.218 N  
HETATM   18  O   UNL     1      -9.243   6.540  69.020  1.00  0.00    -0.131 OA 
HETATM   19  H   UNL     1     -10.580   7.893  70.644  1.00  0.00     0.000 HD 
HETATM   20  C   UNL     1     -11.080   9.557  69.482  1.00  0.00    -0.142 A  
HETATM   21  C   UNL     1     -11.689  10.251  70.532  1.00  0.00    -0.331 A  
HETATM   22  O   UNL     1     -11.842   9.721  71.783  1.00  0.00    -0.383 OA 
HETATM   23  C   UNL     1     -12.169  11.537  70.341  1.00  0.00    -0.442 A  
HETATM   24  H   UNL     1     -12.256  10.191  72.497  1.00  0.00     0.000 HD 
HETATM   25  C   UNL     1     -12.029  12.146  69.095  1.00  0.00    -0.311 A  
ENDBRANCH   9  12
ENDBRANCH   3   9
ENDBRANCH   2   3
TORSDOF 5
ENDMDL
MODEL      107
REMARK 921   NORMALIZED FREE ENERGY PREDICTED BY IDOCK:   -4.79 KCAL/MOL
REMARK 922        TOTAL FREE ENERGY PREDICTED BY IDOCK:   -7.04 KCAL/MOL
REMARK 923 INTER-LIGAND FREE ENERGY PREDICTED BY IDOCK:   -6.06 KCAL/MOL
REMARK 924 INTRA-LIGAND FREE ENERGY PREDICTED BY IDOCK:   -0.98 KCAL/MOL
REMARK 927      BINDING AFFINITY PREDICTED BY RF-SCORE:    0.00 PKD
ROOT
HETATM    1  C   UNL     1      -9.675   3.775  71.428  1.00  0.00    -0.242 C  
HETATM    2  C   UNL     1      -9.448   5.062  70.641  1.00  0.00    -0.231 C  
ENDROOT
BRANCH   2   3
HETATM    3  C   UNL     1      -9.902   6.361  71.363  1.00  0.00    -0.176 C  
BRANCH   3   4
HETATM    4  N   UNL     1     -10.153   6.155  72.811  1.00  0.00    -0.177 NA 
HETATM    5  H   UNL     1     -10.910   5.557  73.143  1.00  0.00     0.000 HD 
BRANCH   4   6
HETATM    6  C   UNL     1      -9.258   6.854  73.742  1.00  0.00    -0.180 C  
HETATM    7  C   UNL     1      -8.729   8.108  73.038  1.00  0.00    -0.309 C  
HETATM    8  C   UNL     1      -8.084   5.996  74.214  1.00  0.00    -0.102 C  
ENDBRANCH   4   6
ENDBRANCH   3   4
BRANCH   3   9
HETATM    9  C   UNL     1     -11.164   6.981  70.660  1.00  0.00    -0.288 C  
HETATM   10  H   UNL     1     -12.397   6.511  69.178  1.00  0.00     0.000 HD 
HETATM   11  O   UNL     1     -11.634   6.137  69.603  1.00  0.00    -0.407 OA 
BRANCH   9  12
HETATM   12  C   UNL     1     -11.016   8.429  70.188  1.00  0.00    -0.216 A  
HETATM   13  C   UNL     1     -11.786   9.525  70.649  1.00  0.00    -0.330 A  
HETATM   14  C   UNL     1     -12.926   9.391  71.571  1.00  0.00    -0.449 C  
HETATM   15  C   UNL     1     -13.514  10.466  72.110  1.00  0.00    -0.301 C  
HETATM   16  C   UNL     1     -13.061  11.831  71.775  1.00  0.00    -0.375 C  
HETATM   17  N   UNL     1     -12.101  11.940  70.813  1.00  0.00    -0.437 N  
HETATM   18  O   UNL     1     -13.540  12.814  72.331  1.00  0.00    -0.565 OA 
HETATM   19  H   UNL     1     -11.843  12.875  70.496  1.00  0.00     0.000 HD 
HETATM   20  C   UNL     1     -11.447  10.839  70.232  1.00  0.00    -0.319 A  
HETATM   21  C   UNL     1     -10.423  11.042  69.301  1.00  0.00    -0.180 A  
HETATM   22  O   UNL     1     -10.076  12.279  68.836  1.00  0.00    -0.406 OA 
HETATM   23  C   UNL     1      -9.700   9.968  68.806  1.00  0.00    -0.174 A  
HETATM   24  H   UNL     1      -9.380  12.417  68.204  1.00  0.00     0.000 HD 
HETATM   25  C   UNL     1      -9.988   8.679  69.251  1.00  0.00    -0.195 A  
ENDBRANCH   9  12
ENDBRANCH   3   9
ENDBRANCH   2   3
TORSDOF 5
ENDMDL
MODEL      108
REMARK 921   NORMALIZED FREE ENERGY PREDICTED BY IDOCK:   -4.78 KCAL/MOL
REMARK 922        TOTAL FREE ENERGY PREDICTED BY IDOCK:   -7.02 KCAL/MOL
REMARK 923 INTER-LIGAND FREE ENERGY PREDICTED BY IDOCK:   -6.85 KCAL/MOL
REMARK 924 INTRA-LIGAND FREE ENERGY PREDICTED BY IDOCK:   -0.18 KCAL/MOL
REMARK 927      BINDING AFFINITY PREDICTED BY RF-SCORE:    0.00 PKD
ROOT
HETATM    1  C   UNL     1      -7.316  15.870  67.840  1.00  0.00    -0.148 C  
HETATM    2  C   UNL     1      -8.072  15.510  66.564  1.00  0.00    -0.099 C  
ENDROOT
BRANCH   2   3
HETATM    3  C   UNL     1      -9.463  16.185  66.414  1.00  0.00    -0.295 C  
BRANCH   3   4
HETATM    4  N   UNL     1      -9.582  17.438  67.202  1.00  0.00    -0.258 NA 
HETATM    5  H   UNL     1      -9.583  17.430  68.222  1.00  0.00     0.000 HD 
BRANCH   4   6
HETATM    6  C   UNL     1      -9.696  18.688  66.440  1.00  0.00    -0.345 C  
HETATM    7  C   UNL     1      -8.285  19.250  66.236  1.00  0.00    -0.327 C  
HETATM    8  C   UNL     1     -10.573  19.737  67.126  1.00  0.00    -0.577 C  
ENDBRANCH   4   6
ENDBRANCH   3   4
BRANCH   3   9
HETATM    9  C   UNL     1     -10.616  15.183  66.784  1.00  0.00    -0.298 C  
HETATM   10  H   UNL     1     -11.097  13.993  68.297  1.00  0.00     0.000 HD 
HETATM   11  O   UNL     1     -10.400  14.599  68.073  1.00  0.00    -0.231 OA 
BRANCH   9  12
HETATM   12  C   UNL     1     -10.924  14.111  65.736  1.00  0.00    -0.301 A  
HETATM   13  C   UNL     1     -10.305  12.840  65.655  1.00  0.00    -0.296 A  
HETATM   14  C   UNL     1      -9.182  12.424  66.512  1.00  0.00    -0.215 C  
HETATM   15  C   UNL     1      -8.743  11.160  66.515  1.00  0.00    -0.174 C  
HETATM   16  C   UNL     1      -9.346  10.139  65.636  1.00  0.00    -0.199 C  
HETATM   17  N   UNL     1     -10.286  10.574  64.748  1.00  0.00    -0.305 N  
HETATM   18  O   UNL     1      -9.004   8.963  65.698  1.00  0.00    -0.182 OA 
HETATM   19  H   UNL     1     -10.646   9.907  64.065  1.00  0.00     0.000 HD 
HETATM   20  C   UNL     1     -10.788  11.887  64.720  1.00  0.00    -0.307 A  
HETATM   21  C   UNL     1     -11.803  12.232  63.822  1.00  0.00    -0.498 A  
HETATM   22  O   UNL     1     -12.284  11.369  62.877  1.00  0.00    -0.940 OA 
HETATM   23  C   UNL     1     -12.378  13.492  63.860  1.00  0.00    -0.397 A  
HETATM   24  H   UNL     1     -12.973  11.602  62.267  1.00  0.00     0.000 HD 
HETATM   25  C   UNL     1     -11.949  14.416  64.812  1.00  0.00    -0.455 A  
ENDBRANCH   9  12
ENDBRANCH   3   9
ENDBRANCH   2   3
TORSDOF 5
ENDMDL
MODEL      109
REMARK 921   NORMALIZED FREE ENERGY PREDICTED BY IDOCK:   -4.77 KCAL/MOL
REMARK 922        TOTAL FREE ENERGY PREDICTED BY IDOCK:   -7.02 KCAL/MOL
REMARK 923 INTER-LIGAND FREE ENERGY PREDICTED BY IDOCK:   -6.20 KCAL/MOL
REMARK 924 INTRA-LIGAND FREE ENERGY PREDICTED BY IDOCK:   -0.82 KCAL/MOL
REMARK 927      BINDING AFFINITY PREDICTED BY RF-SCORE:    0.00 PKD
ROOT
HETATM    1  C   UNL     1      -6.664  17.826  66.270  1.00  0.00    -0.303 C  
HETATM    2  C   UNL     1      -7.820  17.849  67.265  1.00  0.00    -0.225 C  
ENDROOT
BRANCH   2   3
HETATM    3  C   UNL     1      -8.327  16.451  67.714  1.00  0.00    -0.165 C  
BRANCH   3   4
HETATM    4  N   UNL     1      -7.459  15.345  67.237  1.00  0.00    -0.202 NA 
HETATM    5  H   UNL     1      -7.376  15.120  66.246  1.00  0.00     0.000 HD 
BRANCH   4   6
HETATM    6  C   UNL     1      -6.726  14.592  68.263  1.00  0.00    -0.116 C  
HETATM    7  C   UNL     1      -6.719  13.116  67.852  1.00  0.00    -0.138 C  
HETATM    8  C   UNL     1      -7.326  14.733  69.662  1.00  0.00    -0.114 C  
ENDBRANCH   4   6
ENDBRANCH   3   4
BRANCH   3   9
HETATM    9  C   UNL     1      -9.817  16.224  67.265  1.00  0.00    -0.243 C  
HETATM   10  H   UNL     1     -11.545  17.193  67.370  1.00  0.00     0.000 HD 
HETATM   11  O   UNL     1     -10.645  17.330  67.641  1.00  0.00    -0.358 OA 
BRANCH   9  12
HETATM   12  C   UNL     1     -10.443  14.894  67.692  1.00  0.00    -0.249 A  
HETATM   13  C   UNL     1     -10.990  14.616  68.969  1.00  0.00    -0.269 A  
HETATM   14  C   UNL     1     -10.920  15.549  70.106  1.00  0.00    -0.336 C  
HETATM   15  C   UNL     1     -11.596  15.316  71.237  1.00  0.00    -0.430 C  
HETATM   16  C   UNL     1     -12.414  14.098  71.401  1.00  0.00    -0.359 C  
HETATM   17  N   UNL     1     -12.352  13.179  70.395  1.00  0.00    -0.312 N  
HETATM   18  O   UNL     1     -13.101  13.923  72.401  1.00  0.00    -0.414 OA 
HETATM   19  H   UNL     1     -12.830  12.287  70.529  1.00  0.00     0.000 HD 
HETATM   20  C   UNL     1     -11.668  13.388  69.184  1.00  0.00    -0.326 A  
HETATM   21  C   UNL     1     -11.714  12.421  68.176  1.00  0.00    -0.353 A  
HETATM   22  O   UNL     1     -12.321  11.207  68.337  1.00  0.00    -0.697 OA 
HETATM   23  C   UNL     1     -11.134  12.665  66.940  1.00  0.00    -0.315 A  
HETATM   24  H   UNL     1     -12.352  10.549  67.652  1.00  0.00     0.000 HD 
HETATM   25  C   UNL     1     -10.515  13.890  66.700  1.00  0.00    -0.272 A  
ENDBRANCH   9  12
ENDBRANCH   3   9
ENDBRANCH   2   3
TORSDOF 5
ENDMDL
MODEL      110
REMARK 921   NORMALIZED FREE ENERGY PREDICTED BY IDOCK:   -4.75 KCAL/MOL
REMARK 922        TOTAL FREE ENERGY PREDICTED BY IDOCK:   -6.99 KCAL/MOL
REMARK 923 INTER-LIGAND FREE ENERGY PREDICTED BY IDOCK:   -6.71 KCAL/MOL
REMARK 924 INTRA-LIGAND FREE ENERGY PREDICTED BY IDOCK:   -0.28 KCAL/MOL
REMARK 927      BINDING AFFINITY PREDICTED BY RF-SCORE:    0.00 PKD
ROOT
HETATM    1  C   UNL     1      -8.055  10.226  68.683  1.00  0.00    -0.114 C  
HETATM    2  C   UNL     1      -9.306  11.099  68.628  1.00  0.00    -0.186 C  
ENDROOT
BRANCH   2   3
HETATM    3  C   UNL     1     -10.459  10.650  69.567  1.00  0.00    -0.204 C  
BRANCH   3   4
HETATM    4  N   UNL     1     -10.913   9.263  69.296  1.00  0.00    -0.402 NA 
HETATM    5  H   UNL     1     -11.046   8.919  68.345  1.00  0.00     0.000 HD 
BRANCH   4   6
HETATM    6  C   UNL     1     -11.161   8.410  70.466  1.00  0.00    -0.252 C  
HETATM    7  C   UNL     1     -10.177   8.820  71.567  1.00  0.00    -0.371 C  
HETATM    8  C   UNL     1     -11.009   6.917  70.170  1.00  0.00    -0.322 C  
ENDBRANCH   4   6
ENDBRANCH   3   4
BRANCH   3   9
HETATM    9  C   UNL     1     -11.666  11.656  69.492  1.00  0.00    -0.344 C  
HETATM   10  H   UNL     1     -13.564  11.630  68.916  1.00  0.00     0.000 HD 
HETATM   11  O   UNL     1     -12.835  11.023  68.961  1.00  0.00    -0.086 OA 
BRANCH   9  12
HETATM   12  C   UNL     1     -11.382  12.980  68.780  1.00  0.00    -0.332 A  
HETATM   13  C   UNL     1     -11.546  13.218  67.393  1.00  0.00    -0.396 A  
HETATM   14  C   UNL     1     -11.904  12.170  66.423  1.00  0.00    -0.321 C  
HETATM   15  C   UNL     1     -12.213  12.473  65.156  1.00  0.00    -0.509 C  
HETATM   16  C   UNL     1     -12.175  13.868  64.674  1.00  0.00    -0.419 C  
HETATM   17  N   UNL     1     -11.703  14.805  65.545  1.00  0.00    -0.316 N  
HETATM   18  O   UNL     1     -12.539  14.158  63.540  1.00  0.00    -0.834 OA 
HETATM   19  H   UNL     1     -11.576  15.758  65.204  1.00  0.00     0.000 HD 
HETATM   20  C   UNL     1     -11.383  14.534  66.888  1.00  0.00    -0.348 A  
HETATM   21  C   UNL     1     -10.972  15.569  67.734  1.00  0.00    -0.317 A  
HETATM   22  O   UNL     1     -10.765  16.848  67.297  1.00  0.00    -0.297 OA 
HETATM   23  C   UNL     1     -10.759  15.333  69.083  1.00  0.00    -0.251 A  
HETATM   24  H   UNL     1     -10.486  17.551  67.872  1.00  0.00     0.000 HD 
HETATM   25  C   UNL     1     -10.970  14.056  69.599  1.00  0.00    -0.087 A  
ENDBRANCH   9  12
ENDBRANCH   3   9
ENDBRANCH   2   3
TORSDOF 5
ENDMDL
MODEL      111
REMARK 921   NORMALIZED FREE ENERGY PREDICTED BY IDOCK:   -4.74 KCAL/MOL
REMARK 922        TOTAL FREE ENERGY PREDICTED BY IDOCK:   -6.98 KCAL/MOL
REMARK 923 INTER-LIGAND FREE ENERGY PREDICTED BY IDOCK:   -6.62 KCAL/MOL
REMARK 924 INTRA-LIGAND FREE ENERGY PREDICTED BY IDOCK:   -0.36 KCAL/MOL
REMARK 927      BINDING AFFINITY PREDICTED BY RF-SCORE:    0.00 PKD
ROOT
HETATM    1  C   UNL     1      -7.700  14.142  67.687  1.00  0.00    -0.186 C  
HETATM    2  C   UNL     1      -9.037  14.643  68.226  1.00  0.00    -0.189 C  
ENDROOT
BRANCH   2   3
HETATM    3  C   UNL     1     -10.287  14.126  67.462  1.00  0.00    -0.248 C  
BRANCH   3   4
HETATM    4  N   UNL     1     -10.386  14.674  66.086  1.00  0.00    -0.289 NA 
HETATM    5  H   UNL     1      -9.841  15.484  65.792  1.00  0.00     0.000 HD 
BRANCH   4   6
HETATM    6  C   UNL     1     -11.309  13.992  65.170  1.00  0.00    -0.328 C  
HETATM    7  C   UNL     1     -10.484  13.068  64.268  1.00  0.00    -0.424 C  
HETATM    8  C   UNL     1     -12.129  14.953  64.309  1.00  0.00    -0.373 C  
ENDBRANCH   4   6
ENDBRANCH   3   4
BRANCH   3   9
HETATM    9  C   UNL     1     -11.601  14.419  68.275  1.00  0.00    -0.328 C  
HETATM   10  H   UNL     1     -12.338  15.881  69.396  1.00  0.00     0.000 HD 
HETATM   11  O   UNL     1     -11.544  15.704  68.904  1.00  0.00    -0.343 OA 
BRANCH   9  12
HETATM   12  C   UNL     1     -12.020  13.334  69.270  1.00  0.00    -0.354 A  
HETATM   13  C   UNL     1     -11.768  11.947  69.128  1.00  0.00    -0.380 A  
HETATM   14  C   UNL     1     -11.164  11.348  67.926  1.00  0.00    -0.352 C  
HETATM   15  C   UNL     1     -10.790  10.063  67.905  1.00  0.00    -0.323 C  
HETATM   16  C   UNL     1     -10.999   9.187  69.075  1.00  0.00    -0.008 C  
HETATM   17  N   UNL     1     -11.689   9.721  70.124  1.00  0.00    -0.417 N  
HETATM   18  O   UNL     1     -10.582   8.034  69.090  1.00  0.00    -0.219 OA 
HETATM   19  H   UNL     1     -11.930   9.107  70.902  1.00  0.00     0.000 HD 
HETATM   20  C   UNL     1     -12.086  11.068  70.195  1.00  0.00    -0.356 A  
HETATM   21  C   UNL     1     -12.729  11.551  71.340  1.00  0.00    -0.364 A  
HETATM   22  O   UNL     1     -13.091  10.746  72.384  1.00  0.00    -0.508 OA 
HETATM   23  C   UNL     1     -13.026  12.899  71.464  1.00  0.00    -0.388 A  
HETATM   24  H   UNL     1     -13.527  11.074  73.162  1.00  0.00     0.000 HD 
HETATM   25  C   UNL     1     -12.667  13.779  70.445  1.00  0.00    -0.245 A  
ENDBRANCH   9  12
ENDBRANCH   3   9
ENDBRANCH   2   3
TORSDOF 5
ENDMDL
MODEL      112
REMARK 921   NORMALIZED FREE ENERGY PREDICTED BY IDOCK:   -4.74 KCAL/MOL
REMARK 922        TOTAL FREE ENERGY PREDICTED BY IDOCK:   -6.97 KCAL/MOL
REMARK 923 INTER-LIGAND FREE ENERGY PREDICTED BY IDOCK:   -6.36 KCAL/MOL
REMARK 924 INTRA-LIGAND FREE ENERGY PREDICTED BY IDOCK:   -0.61 KCAL/MOL
REMARK 927      BINDING AFFINITY PREDICTED BY RF-SCORE:    0.00 PKD
ROOT
HETATM    1  C   UNL     1      -8.288   8.215  69.066  1.00  0.00    -0.128 C  
HETATM    2  C   UNL     1      -9.289   9.260  68.582  1.00  0.00    -0.139 C  
ENDROOT
BRANCH   2   3
HETATM    3  C   UNL     1     -10.136   9.924  69.701  1.00  0.00    -0.230 C  
BRANCH   3   4
HETATM    4  N   UNL     1     -10.431   8.999  70.824  1.00  0.00    -0.223 NA 
HETATM    5  H   UNL     1      -9.731   8.776  71.531  1.00  0.00     0.000 HD 
BRANCH   4   6
HETATM    6  C   UNL     1     -11.781   8.423  70.867  1.00  0.00    -0.246 C  
HETATM    7  C   UNL     1     -12.317   8.576  72.294  1.00  0.00    -0.450 C  
HETATM    8  C   UNL     1     -11.824   6.950  70.457  1.00  0.00    -0.385 C  
ENDBRANCH   4   6
ENDBRANCH   3   4
BRANCH   3   9
HETATM    9  C   UNL     1     -11.464  10.531  69.115  1.00  0.00    -0.247 C  
HETATM   10  H   UNL     1     -12.401  10.595  67.367  1.00  0.00     0.000 HD 
HETATM   11  O   UNL     1     -11.599  10.229  67.722  1.00  0.00    -0.331 OA 
BRANCH   9  12
HETATM   12  C   UNL     1     -11.686  12.021  69.382  1.00  0.00    -0.402 A  
HETATM   13  C   UNL     1     -11.241  13.079  68.553  1.00  0.00    -0.309 A  
HETATM   14  C   UNL     1     -10.389  12.883  67.367  1.00  0.00    -0.233 C  
HETATM   15  C   UNL     1     -10.135  13.889  66.521  1.00  0.00    -0.286 C  
HETATM   16  C   UNL     1     -10.673  15.243  66.761  1.00  0.00    -0.313 C  
HETATM   17  N   UNL     1     -11.338  15.439  67.936  1.00  0.00    -0.334 N  
HETATM   18  O   UNL     1     -10.513  16.144  65.945  1.00  0.00    -0.330 OA 
HETATM   19  H   UNL     1     -11.633  16.387  68.168  1.00  0.00     0.000 HD 
HETATM   20  C   UNL     1     -11.640  14.409  68.845  1.00  0.00    -0.306 A  
HETATM   21  C   UNL     1     -12.388  14.685  69.994  1.00  0.00    -0.315 A  
HETATM   22  O   UNL     1     -12.772  15.949  70.345  1.00  0.00    -0.505 OA 
HETATM   23  C   UNL     1     -12.784  13.660  70.839  1.00  0.00    -0.382 A  
HETATM   24  H   UNL     1     -13.280  16.137  71.126  1.00  0.00     0.000 HD 
HETATM   25  C   UNL     1     -12.443  12.344  70.531  1.00  0.00    -0.270 A  
ENDBRANCH   9  12
ENDBRANCH   3   9
ENDBRANCH   2   3
TORSDOF 5
ENDMDL
MODEL      113
REMARK 921   NORMALIZED FREE ENERGY PREDICTED BY IDOCK:   -4.73 KCAL/MOL
REMARK 922        TOTAL FREE ENERGY PREDICTED BY IDOCK:   -6.97 KCAL/MOL
REMARK 923 INTER-LIGAND FREE ENERGY PREDICTED BY IDOCK:   -6.08 KCAL/MOL
REMARK 924 INTRA-LIGAND FREE ENERGY PREDICTED BY IDOCK:   -0.88 KCAL/MOL
REMARK 927      BINDING AFFINITY PREDICTED BY RF-SCORE:    0.00 PKD
ROOT
HETATM    1  C   UNL     1     -11.134   5.937  72.828  1.00  0.00    -0.321 C  
HETATM    2  C   UNL     1     -10.842   7.400  73.146  1.00  0.00    -0.435 C  
ENDROOT
BRANCH   2   3
HETATM    3  C   UNL     1     -10.058   8.166  72.046  1.00  0.00    -0.237 C  
BRANCH   3   4
HETATM    4  N   UNL     1      -8.781   8.738  72.543  1.00  0.00    -0.396 NA 
HETATM    5  H   UNL     1      -8.752   9.361  73.350  1.00  0.00     0.000 HD 
BRANCH   4   6
HETATM    6  C   UNL     1      -7.562   8.361  71.816  1.00  0.00    -0.112 C  
HETATM    7  C   UNL     1      -6.414   8.280  72.827  1.00  0.00    -0.094 C  
HETATM    8  C   UNL     1      -7.196   9.339  70.699  1.00  0.00    -0.120 C  
ENDBRANCH   4   6
ENDBRANCH   3   4
BRANCH   3   9
HETATM    9  C   UNL     1     -10.953   9.283  71.395  1.00  0.00    -0.359 C  
HETATM   10  H   UNL     1     -12.849   9.866  71.457  1.00  0.00     0.000 HD 
HETATM   11  O   UNL     1     -12.308   9.191  71.850  1.00  0.00    -0.342 OA 
BRANCH   9  12
HETATM   12  C   UNL     1     -10.887   9.380  69.869  1.00  0.00    -0.259 A  
HETATM   13  C   UNL     1     -11.236  10.518  69.102  1.00  0.00    -0.314 A  
HETATM   14  C   UNL     1     -11.829  11.738  69.677  1.00  0.00    -0.407 C  
HETATM   15  C   UNL     1     -11.983  12.847  68.943  1.00  0.00    -0.291 C  
HETATM   16  C   UNL     1     -11.595  12.880  67.519  1.00  0.00    -0.356 C  
HETATM   17  N   UNL     1     -11.183  11.702  66.969  1.00  0.00    -0.305 N  
HETATM   18  O   UNL     1     -11.656  13.917  66.868  1.00  0.00    -0.339 OA 
HETATM   19  H   UNL     1     -11.003  11.679  65.965  1.00  0.00     0.000 HD 
HETATM   20  C   UNL     1     -10.992  10.519  67.704  1.00  0.00    -0.314 A  
HETATM   21  C   UNL     1     -10.499   9.372  67.073  1.00  0.00    -0.231 A  
HETATM   22  O   UNL     1     -10.277   9.303  65.726  1.00  0.00    -0.344 OA 
HETATM   23  C   UNL     1     -10.204   8.236  67.810  1.00  0.00    -0.282 A  
HETATM   24  H   UNL     1      -9.942   8.524  65.298  1.00  0.00     0.000 HD 
HETATM   25  C   UNL     1     -10.389   8.244  69.191  1.00  0.00    -0.225 A  
ENDBRANCH   9  12
ENDBRANCH   3   9
ENDBRANCH   2   3
TORSDOF 5
ENDMDL
MODEL      114
REMARK 921   NORMALIZED FREE ENERGY PREDICTED BY IDOCK:   -4.69 KCAL/MOL
REMARK 922        TOTAL FREE ENERGY PREDICTED BY IDOCK:   -6.92 KCAL/MOL
REMARK 923 INTER-LIGAND FREE ENERGY PREDICTED BY IDOCK:   -6.30 KCAL/MOL
REMARK 924 INTRA-LIGAND FREE ENERGY PREDICTED BY IDOCK:   -0.62 KCAL/MOL
REMARK 927      BINDING AFFINITY PREDICTED BY RF-SCORE:    0.00 PKD
ROOT
HETATM    1  C   UNL     1     -12.149  15.055  69.801  1.00  0.00    -0.354 C  
HETATM    2  C   UNL     1     -11.692  14.535  68.441  1.00  0.00    -0.367 C  
ENDROOT
BRANCH   2   3
HETATM    3  C   UNL     1     -10.530  13.506  68.489  1.00  0.00    -0.244 C  
BRANCH   3   4
HETATM    4  N   UNL     1      -9.242  14.071  68.014  1.00  0.00    -0.194 NA 
HETATM    5  H   UNL     1      -8.435  13.477  67.824  1.00  0.00     0.000 HD 
BRANCH   4   6
HETATM    6  C   UNL     1      -9.188  15.527  67.830  1.00  0.00    -0.187 C  
HETATM    7  C   UNL     1      -8.440  15.812  66.524  1.00  0.00    -0.335 C  
HETATM    8  C   UNL     1      -8.503  16.259  68.985  1.00  0.00    -0.244 C  
ENDBRANCH   4   6
ENDBRANCH   3   4
BRANCH   3   9
HETATM    9  C   UNL     1     -10.899  12.206  67.685  1.00  0.00    -0.233 C  
HETATM   10  H   UNL     1     -12.445  11.505  66.658  1.00  0.00     0.000 HD 
HETATM   11  O   UNL     1     -12.222  12.291  67.144  1.00  0.00    -0.506 OA 
BRANCH   9  12
HETATM   12  C   UNL     1     -10.688  10.885  68.428  1.00  0.00    -0.240 A  
HETATM   13  C   UNL     1     -11.350  10.498  69.620  1.00  0.00    -0.345 A  
HETATM   14  C   UNL     1     -12.254  11.383  70.374  1.00  0.00    -0.450 C  
HETATM   15  C   UNL     1     -12.985  10.921  71.395  1.00  0.00    -0.527 C  
HETATM   16  C   UNL     1     -12.890   9.512  71.826  1.00  0.00    -0.406 C  
HETATM   17  N   UNL     1     -11.945   8.745  71.210  1.00  0.00    -0.294 N  
HETATM   18  O   UNL     1     -13.620   9.065  72.704  1.00  0.00    -0.465 OA 
HETATM   19  H   UNL     1     -11.794   7.798  71.557  1.00  0.00     0.000 HD 
HETATM   20  C   UNL     1     -11.166   9.185  70.124  1.00  0.00    -0.187 A  
HETATM   21  C   UNL     1     -10.268   8.310  69.505  1.00  0.00    -0.210 A  
HETATM   22  O   UNL     1     -10.024   7.046  69.966  1.00  0.00    -0.180 OA 
HETATM   23  C   UNL     1      -9.577   8.700  68.369  1.00  0.00    -0.157 A  
HETATM   24  H   UNL     1      -9.413   6.452  69.546  1.00  0.00     0.000 HD 
HETATM   25  C   UNL     1      -9.792   9.968  67.833  1.00  0.00    -0.171 A  
ENDBRANCH   9  12
ENDBRANCH   3   9
ENDBRANCH   2   3
TORSDOF 5
ENDMDL
MODEL      115
REMARK 921   NORMALIZED FREE ENERGY PREDICTED BY IDOCK:   -4.68 KCAL/MOL
REMARK 922        TOTAL FREE ENERGY PREDICTED BY IDOCK:   -6.90 KCAL/MOL
REMARK 923 INTER-LIGAND FREE ENERGY PREDICTED BY IDOCK:   -5.95 KCAL/MOL
REMARK 924 INTRA-LIGAND FREE ENERGY PREDICTED BY IDOCK:   -0.96 KCAL/MOL
REMARK 927      BINDING AFFINITY PREDICTED BY RF-SCORE:    0.00 PKD
ROOT
HETATM    1  C   UNL     1     -13.195  12.329  72.022  1.00  0.00    -0.508 C  
HETATM    2  C   UNL     1     -12.865  11.418  70.843  1.00  0.00    -0.323 C  
ENDROOT
BRANCH   2   3
HETATM    3  C   UNL     1     -11.802  10.325  71.136  1.00  0.00    -0.362 C  
BRANCH   3   4
HETATM    4  N   UNL     1     -10.636  10.398  70.221  1.00  0.00    -0.447 NA 
HETATM    5  H   UNL     1      -9.699  10.135  70.525  1.00  0.00     0.000 HD 
BRANCH   4   6
HETATM    6  C   UNL     1     -10.899  10.866  68.854  1.00  0.00    -0.219 C  
HETATM    7  C   UNL     1     -10.623   9.704  67.894  1.00  0.00    -0.308 C  
HETATM    8  C   UNL     1     -10.053  12.075  68.454  1.00  0.00    -0.211 C  
ENDBRANCH   4   6
ENDBRANCH   3   4
BRANCH   3   9
HETATM    9  C   UNL     1     -12.448   8.892  71.104  1.00  0.00    -0.214 C  
HETATM   10  H   UNL     1     -14.139   8.031  71.685  1.00  0.00     0.000 HD 
HETATM   11  O   UNL     1     -13.748   8.897  71.704  1.00  0.00    -0.381 OA 
BRANCH   9  12
HETATM   12  C   UNL     1     -11.583   7.762  71.667  1.00  0.00    -0.304 A  
HETATM   13  C   UNL     1     -11.049   6.684  70.918  1.00  0.00    -0.335 A  
HETATM   14  C   UNL     1     -11.361   6.445  69.499  1.00  0.00    -0.460 C  
HETATM   15  C   UNL     1     -10.704   5.519  68.790  1.00  0.00    -0.195 C  
HETATM   16  C   UNL     1      -9.662   4.678  69.413  1.00  0.00    -0.202 C  
HETATM   17  N   UNL     1      -9.488   4.815  70.759  1.00  0.00    -0.151 N  
HETATM   18  O   UNL     1      -9.000   3.889  68.748  1.00  0.00    -0.101 OA 
HETATM   19  H   UNL     1      -8.844   4.177  71.228  1.00  0.00     0.000 HD 
HETATM   20  C   UNL     1     -10.145   5.784  71.539  1.00  0.00    -0.196 A  
HETATM   21  C   UNL     1      -9.856   5.902  72.902  1.00  0.00    -0.167 A  
HETATM   22  O   UNL     1      -9.020   5.044  73.562  1.00  0.00    -0.115 OA 
HETATM   23  C   UNL     1     -10.416   6.923  73.654  1.00  0.00    -0.400 A  
HETATM   24  H   UNL     1      -8.824   5.124  74.487  1.00  0.00     0.000 HD 
HETATM   25  C   UNL     1     -11.262   7.845  73.041  1.00  0.00    -0.346 A  
ENDBRANCH   9  12
ENDBRANCH   3   9
ENDBRANCH   2   3
TORSDOF 5
ENDMDL
MODEL      116
REMARK 921   NORMALIZED FREE ENERGY PREDICTED BY IDOCK:   -4.68 KCAL/MOL
REMARK 922        TOTAL FREE ENERGY PREDICTED BY IDOCK:   -6.90 KCAL/MOL
REMARK 923 INTER-LIGAND FREE ENERGY PREDICTED BY IDOCK:   -5.67 KCAL/MOL
REMARK 924 INTRA-LIGAND FREE ENERGY PREDICTED BY IDOCK:   -1.23 KCAL/MOL
REMARK 927      BINDING AFFINITY PREDICTED BY RF-SCORE:    0.00 PKD
ROOT
HETATM    1  C   UNL     1     -10.698   5.717  73.557  1.00  0.00    -0.311 C  
HETATM    2  C   UNL     1     -10.568   7.231  73.424  1.00  0.00    -0.435 C  
ENDROOT
BRANCH   2   3
HETATM    3  C   UNL     1      -9.843   7.717  72.139  1.00  0.00    -0.187 C  
BRANCH   3   4
HETATM    4  N   UNL     1      -8.704   8.623  72.431  1.00  0.00    -0.390 NA 
HETATM    5  H   UNL     1      -8.753   9.323  73.172  1.00  0.00     0.000 HD 
BRANCH   4   6
HETATM    6  C   UNL     1      -7.503   8.462  71.600  1.00  0.00    -0.101 C  
HETATM    7  C   UNL     1      -7.561   9.503  70.478  1.00  0.00    -0.165 C  
HETATM    8  C   UNL     1      -7.367   7.064  70.998  1.00  0.00    -0.077 C  
ENDBRANCH   4   6
ENDBRANCH   3   4
BRANCH   3   9
HETATM    9  C   UNL     1     -10.856   8.397  71.146  1.00  0.00    -0.237 C  
HETATM   10  H   UNL     1     -12.796   8.808  71.083  1.00  0.00     0.000 HD 
HETATM   11  O   UNL     1     -12.184   8.398  71.683  1.00  0.00    -0.289 OA 
BRANCH   9  12
HETATM   12  C   UNL     1     -10.838   7.862  69.713  1.00  0.00    -0.202 A  
HETATM   13  C   UNL     1     -10.707   8.650  68.543  1.00  0.00    -0.091 A  
HETATM   14  C   UNL     1     -10.688  10.123  68.551  1.00  0.00    -0.264 C  
HETATM   15  C   UNL     1     -10.392  10.819  67.447  1.00  0.00    -0.251 C  
HETATM   16  C   UNL     1     -10.105  10.137  66.169  1.00  0.00    -0.246 C  
HETATM   17  N   UNL     1     -10.268   8.783  66.146  1.00  0.00    -0.381 N  
HETATM   18  O   UNL     1      -9.751  10.767  65.178  1.00  0.00    -0.225 OA 
HETATM   19  H   UNL     1     -10.170   8.302  65.252  1.00  0.00     0.000 HD 
HETATM   20  C   UNL     1     -10.562   8.011  67.284  1.00  0.00    -0.290 A  
HETATM   21  C   UNL     1     -10.643   6.619  67.186  1.00  0.00    -0.331 A  
HETATM   22  O   UNL     1     -10.546   5.950  65.998  1.00  0.00    -0.453 OA 
HETATM   23  C   UNL     1     -10.824   5.843  68.320  1.00  0.00    -0.325 A  
HETATM   24  H   UNL     1     -10.601   5.004  65.931  1.00  0.00     0.000 HD 
HETATM   25  C   UNL     1     -10.912   6.458  69.568  1.00  0.00    -0.421 A  
ENDBRANCH   9  12
ENDBRANCH   3   9
ENDBRANCH   2   3
TORSDOF 5
ENDMDL
MODEL      117
REMARK 921   NORMALIZED FREE ENERGY PREDICTED BY IDOCK:   -4.68 KCAL/MOL
REMARK 922        TOTAL FREE ENERGY PREDICTED BY IDOCK:   -6.90 KCAL/MOL
REMARK 923 INTER-LIGAND FREE ENERGY PREDICTED BY IDOCK:   -5.88 KCAL/MOL
REMARK 924 INTRA-LIGAND FREE ENERGY PREDICTED BY IDOCK:   -1.02 KCAL/MOL
REMARK 927      BINDING AFFINITY PREDICTED BY RF-SCORE:    0.00 PKD
ROOT
HETATM    1  C   UNL     1     -10.904   6.061  69.321  1.00  0.00    -0.428 C  
HETATM    2  C   UNL     1     -11.875   6.612  70.362  1.00  0.00    -0.407 C  
ENDROOT
BRANCH   2   3
HETATM    3  C   UNL     1     -11.252   6.887  71.758  1.00  0.00    -0.252 C  
BRANCH   3   4
HETATM    4  N   UNL     1     -11.794   5.996  72.814  1.00  0.00    -0.527 NA 
HETATM    5  H   UNL     1     -12.787   5.988  73.050  1.00  0.00     0.000 HD 
BRANCH   4   6
HETATM    6  C   UNL     1     -10.831   5.127  73.503  1.00  0.00    -0.303 C  
HETATM    7  C   UNL     1      -9.436   5.435  72.948  1.00  0.00    -0.155 C  
HETATM    8  C   UNL     1     -11.133   3.638  73.338  1.00  0.00    -0.297 C  
ENDBRANCH   4   6
ENDBRANCH   3   4
BRANCH   3   9
HETATM    9  C   UNL     1     -11.424   8.398  72.160  1.00  0.00    -0.372 C  
HETATM   10  H   UNL     1     -12.832   9.556  72.944  1.00  0.00     0.000 HD 
HETATM   11  O   UNL     1     -12.728   8.644  72.701  1.00  0.00    -0.365 OA 
BRANCH   9  12
HETATM   12  C   UNL     1     -11.075   9.417  71.074  1.00  0.00    -0.414 A  
HETATM   13  C   UNL     1      -9.800   9.579  70.479  1.00  0.00    -0.331 A  
HETATM   14  C   UNL     1      -8.596   8.855  70.921  1.00  0.00    -0.242 C  
HETATM   15  C   UNL     1      -7.456   8.913  70.223  1.00  0.00    -0.074 C  
HETATM   16  C   UNL     1      -7.351   9.732  68.999  1.00  0.00    -0.078 C  
HETATM   17  N   UNL     1      -8.429  10.506  68.685  1.00  0.00    -0.130 N  
HETATM   18  O   UNL     1      -6.336   9.720  68.311  1.00  0.00    -0.054 OA 
HETATM   19  H   UNL     1      -8.344  11.153  67.901  1.00  0.00     0.000 HD 
HETATM   20  C   UNL     1      -9.651  10.466  69.381  1.00  0.00    -0.192 A  
HETATM   21  C   UNL     1     -10.730  11.243  68.949  1.00  0.00    -0.207 A  
HETATM   22  O   UNL     1     -10.637  12.139  67.921  1.00  0.00    -0.197 OA 
HETATM   23  C   UNL     1     -11.968  11.128  69.561  1.00  0.00    -0.425 A  
HETATM   24  H   UNL     1     -11.370  12.667  67.628  1.00  0.00     0.000 HD 
HETATM   25  C   UNL     1     -12.139  10.220  70.604  1.00  0.00    -0.433 A  
ENDBRANCH   9  12
ENDBRANCH   3   9
ENDBRANCH   2   3
TORSDOF 5
ENDMDL
MODEL      118
REMARK 921   NORMALIZED FREE ENERGY PREDICTED BY IDOCK:   -4.65 KCAL/MOL
REMARK 922        TOTAL FREE ENERGY PREDICTED BY IDOCK:   -6.86 KCAL/MOL
REMARK 923 INTER-LIGAND FREE ENERGY PREDICTED BY IDOCK:   -6.43 KCAL/MOL
REMARK 924 INTRA-LIGAND FREE ENERGY PREDICTED BY IDOCK:   -0.42 KCAL/MOL
REMARK 927      BINDING AFFINITY PREDICTED BY RF-SCORE:    0.00 PKD
ROOT
HETATM    1  C   UNL     1     -10.598   6.859  68.412  1.00  0.00    -0.249 C  
HETATM    2  C   UNL     1     -10.592   8.166  67.624  1.00  0.00    -0.258 C  
ENDROOT
BRANCH   2   3
HETATM    3  C   UNL     1     -10.294   9.437  68.466  1.00  0.00    -0.209 C  
BRANCH   3   4
HETATM    4  N   UNL     1     -11.508   9.994  69.114  1.00  0.00    -0.462 NA 
HETATM    5  H   UNL     1     -12.380  10.118  68.600  1.00  0.00     0.000 HD 
BRANCH   4   6
HETATM    6  C   UNL     1     -11.390  10.358  70.532  1.00  0.00    -0.341 C  
HETATM    7  C   UNL     1     -11.347   9.063  71.351  1.00  0.00    -0.394 C  
HETATM    8  C   UNL     1     -12.535  11.241  71.028  1.00  0.00    -0.503 C  
ENDBRANCH   4   6
ENDBRANCH   3   4
BRANCH   3   9
HETATM    9  C   UNL     1      -9.576  10.531  67.594  1.00  0.00    -0.157 C  
HETATM   10  H   UNL     1      -8.096  11.836  67.803  1.00  0.00     0.000 HD 
HETATM   11  O   UNL     1      -8.530  11.175  68.330  1.00  0.00    -0.131 OA 
BRANCH   9  12
HETATM   12  C   UNL     1     -10.496  11.557  66.928  1.00  0.00    -0.270 A  
HETATM   13  C   UNL     1     -10.812  12.836  67.449  1.00  0.00    -0.265 A  
HETATM   14  C   UNL     1     -10.383  13.305  68.777  1.00  0.00    -0.154 C  
HETATM   15  C   UNL     1     -10.559  14.576  69.155  1.00  0.00    -0.242 C  
HETATM   16  C   UNL     1     -11.222  15.552  68.267  1.00  0.00    -0.343 C  
HETATM   17  N   UNL     1     -11.740  15.067  67.102  1.00  0.00    -0.281 N  
HETATM   18  O   UNL     1     -11.309  16.735  68.575  1.00  0.00    -0.268 OA 
HETATM   19  H   UNL     1     -12.287  15.701  66.519  1.00  0.00     0.000 HD 
HETATM   20  C   UNL     1     -11.565  13.744  66.659  1.00  0.00    -0.369 A  
HETATM   21  C   UNL     1     -12.071  13.347  65.417  1.00  0.00    -0.421 A  
HETATM   22  O   UNL     1     -12.831  14.165  64.628  1.00  0.00    -0.663 OA 
HETATM   23  C   UNL     1     -11.809  12.078  64.924  1.00  0.00    -0.304 A  
HETATM   24  H   UNL     1     -13.174  13.895  63.784  1.00  0.00     0.000 HD 
HETATM   25  C   UNL     1     -11.024  11.199  65.667  1.00  0.00    -0.149 A  
ENDBRANCH   9  12
ENDBRANCH   3   9
ENDBRANCH   2   3
TORSDOF 5
ENDMDL
MODEL      119
REMARK 921   NORMALIZED FREE ENERGY PREDICTED BY IDOCK:   -4.64 KCAL/MOL
REMARK 922        TOTAL FREE ENERGY PREDICTED BY IDOCK:   -6.84 KCAL/MOL
REMARK 923 INTER-LIGAND FREE ENERGY PREDICTED BY IDOCK:   -5.95 KCAL/MOL
REMARK 924 INTRA-LIGAND FREE ENERGY PREDICTED BY IDOCK:   -0.90 KCAL/MOL
REMARK 927      BINDING AFFINITY PREDICTED BY RF-SCORE:    0.00 PKD
ROOT
HETATM    1  C   UNL     1      -8.936  17.386  68.425  1.00  0.00    -0.277 C  
HETATM    2  C   UNL     1     -10.105  16.418  68.272  1.00  0.00    -0.248 C  
ENDROOT
BRANCH   2   3
HETATM    3  C   UNL     1      -9.750  14.921  68.484  1.00  0.00    -0.215 C  
BRANCH   3   4
HETATM    4  N   UNL     1      -8.454  14.546  67.865  1.00  0.00    -0.152 NA 
HETATM    5  H   UNL     1      -8.059  15.075  67.087  1.00  0.00     0.000 HD 
BRANCH   4   6
HETATM    6  C   UNL     1      -7.768  13.375  68.428  1.00  0.00    -0.138 C  
HETATM    7  C   UNL     1      -6.542  13.872  69.201  1.00  0.00    -0.111 C  
HETATM    8  C   UNL     1      -7.334  12.360  67.370  1.00  0.00    -0.149 C  
ENDBRANCH   4   6
ENDBRANCH   3   4
BRANCH   3   9
HETATM    9  C   UNL     1     -10.906  13.991  67.963  1.00  0.00    -0.246 C  
HETATM   10  H   UNL     1     -12.595  14.183  66.940  1.00  0.00     0.000 HD 
HETATM   11  O   UNL     1     -11.896  14.745  67.254  1.00  0.00    -0.378 OA 
BRANCH   9  12
HETATM   12  C   UNL     1     -11.549  13.083  69.013  1.00  0.00    -0.367 A  
HETATM   13  C   UNL     1     -11.456  11.669  69.045  1.00  0.00    -0.356 A  
HETATM   14  C   UNL     1     -10.815  10.871  67.986  1.00  0.00    -0.293 C  
HETATM   15  C   UNL     1     -10.601   9.559  68.140  1.00  0.00    -0.265 C  
HETATM   16  C   UNL     1     -11.029   8.854  69.365  1.00  0.00    -0.048 C  
HETATM   17  N   UNL     1     -11.747   9.579  70.270  1.00  0.00    -0.436 N  
HETATM   18  O   UNL     1     -10.759   7.672  69.545  1.00  0.00    -0.238 OA 
HETATM   19  H   UNL     1     -12.136   9.090  71.077  1.00  0.00     0.000 HD 
HETATM   20  C   UNL     1     -11.981  10.961  70.157  1.00  0.00    -0.352 A  
HETATM   21  C   UNL     1     -12.668  11.641  71.167  1.00  0.00    -0.325 A  
HETATM   22  O   UNL     1     -13.226  11.009  72.243  1.00  0.00    -0.612 OA 
HETATM   23  C   UNL     1     -12.809  13.019  71.116  1.00  0.00    -0.331 A  
HETATM   24  H   UNL     1     -13.693  11.471  72.929  1.00  0.00     0.000 HD 
HETATM   25  C   UNL     1     -12.249  13.730  70.057  1.00  0.00    -0.407 A  
ENDBRANCH   9  12
ENDBRANCH   3   9
ENDBRANCH   2   3
TORSDOF 5
ENDMDL
MODEL      120
REMARK 921   NORMALIZED FREE ENERGY PREDICTED BY IDOCK:   -4.63 KCAL/MOL
REMARK 922        TOTAL FREE ENERGY PREDICTED BY IDOCK:   -6.84 KCAL/MOL
REMARK 923 INTER-LIGAND FREE ENERGY PREDICTED BY IDOCK:   -6.27 KCAL/MOL
REMARK 924 INTRA-LIGAND FREE ENERGY PREDICTED BY IDOCK:   -0.57 KCAL/MOL
REMARK 927      BINDING AFFINITY PREDICTED BY RF-SCORE:    0.00 PKD
ROOT
HETATM    1  C   UNL     1     -12.096  14.455  70.627  1.00  0.00    -0.404 C  
HETATM    2  C   UNL     1     -11.705  14.935  69.232  1.00  0.00    -0.344 C  
ENDROOT
BRANCH   2   3
HETATM    3  C   UNL     1     -11.080  13.847  68.316  1.00  0.00    -0.258 C  
BRANCH   3   4
HETATM    4  N   UNL     1     -10.337  12.812  69.078  1.00  0.00    -0.437 NA 
HETATM    5  H   UNL     1      -9.558  13.054  69.690  1.00  0.00     0.000 HD 
BRANCH   4   6
HETATM    6  C   UNL     1     -10.779  11.422  68.906  1.00  0.00    -0.210 C  
HETATM    7  C   UNL     1     -11.597  11.342  67.613  1.00  0.00    -0.315 C  
HETATM    8  C   UNL     1     -11.615  10.903  70.077  1.00  0.00    -0.424 C  
ENDBRANCH   4   6
ENDBRANCH   3   4
BRANCH   3   9
HETATM    9  C   UNL     1     -10.161  14.499  67.219  1.00  0.00    -0.247 C  
HETATM   10  H   UNL     1      -8.913  13.892  65.801  1.00  0.00     0.000 HD 
HETATM   11  O   UNL     1      -9.468  13.499  66.463  1.00  0.00    -0.268 OA 
BRANCH   9  12
HETATM   12  C   UNL     1      -9.199  15.580  67.717  1.00  0.00    -0.179 A  
HETATM   13  C   UNL     1      -9.301  16.964  67.433  1.00  0.00    -0.235 A  
HETATM   14  C   UNL     1     -10.295  17.535  66.508  1.00  0.00    -0.325 C  
HETATM   15  C   UNL     1     -10.464  18.859  66.402  1.00  0.00    -0.505 C  
HETATM   16  C   UNL     1      -9.637  19.799  67.184  1.00  0.00    -0.361 C  
HETATM   17  N   UNL     1      -8.627  19.258  67.924  1.00  0.00    -0.304 N  
HETATM   18  O   UNL     1      -9.846  21.007  67.152  1.00  0.00    -0.342 OA 
HETATM   19  H   UNL     1      -7.983  19.894  68.395  1.00  0.00     0.000 HD 
HETATM   20  C   UNL     1      -8.424  17.875  68.077  1.00  0.00    -0.256 A  
HETATM   21  C   UNL     1      -7.406  17.403  68.912  1.00  0.00    -0.244 A  
HETATM   22  O   UNL     1      -6.510  18.229  69.531  1.00  0.00    -0.255 OA 
HETATM   23  C   UNL     1      -7.267  16.046  69.154  1.00  0.00    -0.208 A  
HETATM   24  H   UNL     1      -5.819  17.909  70.099  1.00  0.00     0.000 HD 
HETATM   25  C   UNL     1      -8.159  15.148  68.570  1.00  0.00    -0.145 A  
ENDBRANCH   9  12
ENDBRANCH   3   9
ENDBRANCH   2   3
TORSDOF 5
ENDMDL
MODEL      121
REMARK 921   NORMALIZED FREE ENERGY PREDICTED BY IDOCK:   -4.63 KCAL/MOL
REMARK 922        TOTAL FREE ENERGY PREDICTED BY IDOCK:   -6.83 KCAL/MOL
REMARK 923 INTER-LIGAND FREE ENERGY PREDICTED BY IDOCK:   -5.95 KCAL/MOL
REMARK 924 INTRA-LIGAND FREE ENERGY PREDICTED BY IDOCK:   -0.87 KCAL/MOL
REMARK 927      BINDING AFFINITY PREDICTED BY RF-SCORE:    0.00 PKD
ROOT
HETATM    1  C   UNL     1      -8.304   8.121  72.741  1.00  0.00    -0.240 C  
HETATM    2  C   UNL     1      -9.034   8.064  71.402  1.00  0.00    -0.173 C  
ENDROOT
BRANCH   2   3
HETATM    3  C   UNL     1     -10.141   9.138  71.213  1.00  0.00    -0.318 C  
BRANCH   3   4
HETATM    4  N   UNL     1     -11.290   8.945  72.133  1.00  0.00    -0.346 NA 
HETATM    5  H   UNL     1     -11.213   9.135  73.132  1.00  0.00     0.000 HD 
BRANCH   4   6
HETATM    6  C   UNL     1     -12.543   8.469  71.533  1.00  0.00    -0.316 C  
HETATM    7  C   UNL     1     -13.704   9.179  72.237  1.00  0.00    -0.548 C  
HETATM    8  C   UNL     1     -12.728   6.955  71.636  1.00  0.00    -0.396 C  
ENDBRANCH   4   6
ENDBRANCH   3   4
BRANCH   3   9
HETATM    9  C   UNL     1     -10.625   9.186  69.718  1.00  0.00    -0.229 C  
HETATM   10  H   UNL     1     -10.552   8.020  68.114  1.00  0.00     0.000 HD 
HETATM   11  O   UNL     1     -10.260   7.992  69.017  1.00  0.00    -0.201 OA 
BRANCH   9  12
HETATM   12  C   UNL     1     -10.223  10.434  68.931  1.00  0.00    -0.220 A  
HETATM   13  C   UNL     1     -10.813  11.716  69.064  1.00  0.00    -0.247 A  
HETATM   14  C   UNL     1     -11.989  11.987  69.908  1.00  0.00    -0.391 C  
HETATM   15  C   UNL     1     -12.406  13.239  70.135  1.00  0.00    -0.306 C  
HETATM   16  C   UNL     1     -11.721  14.394  69.522  1.00  0.00    -0.313 C  
HETATM   17  N   UNL     1     -10.726  14.116  68.632  1.00  0.00    -0.248 N  
HETATM   18  O   UNL     1     -12.047  15.544  69.796  1.00  0.00    -0.351 OA 
HETATM   19  H   UNL     1     -10.305  14.894  68.124  1.00  0.00     0.000 HD 
HETATM   20  C   UNL     1     -10.246  12.819  68.375  1.00  0.00    -0.236 A  
HETATM   21  C   UNL     1      -9.174  12.629  67.499  1.00  0.00    -0.190 A  
HETATM   22  O   UNL     1      -8.610  13.647  66.782  1.00  0.00    -0.407 OA 
HETATM   23  C   UNL     1      -8.624  11.369  67.322  1.00  0.00    -0.146 A  
HETATM   24  H   UNL     1      -7.881  13.518  66.186  1.00  0.00     0.000 HD 
HETATM   25  C   UNL     1      -9.138  10.288  68.037  1.00  0.00    -0.132 A  
ENDBRANCH   9  12
ENDBRANCH   3   9
ENDBRANCH   2   3
TORSDOF 5
ENDMDL
MODEL      122
REMARK 921   NORMALIZED FREE ENERGY PREDICTED BY IDOCK:   -4.60 KCAL/MOL
REMARK 922        TOTAL FREE ENERGY PREDICTED BY IDOCK:   -6.80 KCAL/MOL
REMARK 923 INTER-LIGAND FREE ENERGY PREDICTED BY IDOCK:   -6.31 KCAL/MOL
REMARK 924 INTRA-LIGAND FREE ENERGY PREDICTED BY IDOCK:   -0.49 KCAL/MOL
REMARK 927      BINDING AFFINITY PREDICTED BY RF-SCORE:    0.00 PKD
ROOT
HETATM    1  C   UNL     1      -9.891  19.156  69.066  1.00  0.00    -0.437 C  
HETATM    2  C   UNL     1      -9.010  19.144  67.820  1.00  0.00    -0.338 C  
ENDROOT
BRANCH   2   3
HETATM    3  C   UNL     1      -7.730  18.271  67.931  1.00  0.00    -0.243 C  
BRANCH   3   4
HETATM    4  N   UNL     1      -6.507  19.075  68.180  1.00  0.00    -0.221 NA 
HETATM    5  H   UNL     1      -6.169  19.758  67.503  1.00  0.00     0.000 HD 
BRANCH   4   6
HETATM    6  C   UNL     1      -5.809  18.837  69.450  1.00  0.00    -0.238 C  
HETATM    7  C   UNL     1      -6.110  17.402  69.894  1.00  0.00    -0.187 C  
HETATM    8  C   UNL     1      -6.213  19.814  70.555  1.00  0.00    -0.245 C  
ENDBRANCH   4   6
ENDBRANCH   3   4
BRANCH   3   9
HETATM    9  C   UNL     1      -7.555  17.369  66.655  1.00  0.00    -0.256 C  
HETATM   10  H   UNL     1      -7.894  17.505  64.705  1.00  0.00     0.000 HD 
HETATM   11  O   UNL     1      -7.999  18.050  65.476  1.00  0.00    -0.381 OA 
BRANCH   9  12
HETATM   12  C   UNL     1      -8.160  15.967  66.746  1.00  0.00    -0.302 A  
HETATM   13  C   UNL     1      -9.383  15.560  66.157  1.00  0.00    -0.380 A  
HETATM   14  C   UNL     1     -10.302  16.482  65.469  1.00  0.00    -0.307 C  
HETATM   15  C   UNL     1     -11.357  16.026  64.783  1.00  0.00    -0.285 C  
HETATM   16  C   UNL     1     -11.659  14.582  64.717  1.00  0.00    -0.413 C  
HETATM   17  N   UNL     1     -10.882  13.759  65.478  1.00  0.00    -0.292 N  
HETATM   18  O   UNL     1     -12.574  14.155  64.022  1.00  0.00    -0.691 OA 
HETATM   19  H   UNL     1     -11.132  12.771  65.525  1.00  0.00     0.000 HD 
HETATM   20  C   UNL     1      -9.755  14.192  66.200  1.00  0.00    -0.290 A  
HETATM   21  C   UNL     1      -8.971  13.268  66.898  1.00  0.00    -0.207 A  
HETATM   22  O   UNL     1      -9.298  11.945  67.003  1.00  0.00    -0.179 OA 
HETATM   23  C   UNL     1      -7.800  13.668  67.522  1.00  0.00    -0.185 A  
HETATM   24  H   UNL     1      -8.766  11.317  67.477  1.00  0.00     0.000 HD 
HETATM   25  C   UNL     1      -7.397  15.000  67.438  1.00  0.00    -0.231 A  
ENDBRANCH   9  12
ENDBRANCH   3   9
ENDBRANCH   2   3
TORSDOF 5
ENDMDL
MODEL      123
REMARK 921   NORMALIZED FREE ENERGY PREDICTED BY IDOCK:   -4.57 KCAL/MOL
REMARK 922        TOTAL FREE ENERGY PREDICTED BY IDOCK:   -6.76 KCAL/MOL
REMARK 923 INTER-LIGAND FREE ENERGY PREDICTED BY IDOCK:   -6.52 KCAL/MOL
REMARK 924 INTRA-LIGAND FREE ENERGY PREDICTED BY IDOCK:   -0.24 KCAL/MOL
REMARK 927      BINDING AFFINITY PREDICTED BY RF-SCORE:    0.00 PKD
ROOT
HETATM    1  C   UNL     1      -6.941  10.562  67.727  1.00  0.00    -0.078 C  
HETATM    2  C   UNL     1      -8.111  10.905  68.645  1.00  0.00    -0.143 C  
ENDROOT
BRANCH   2   3
HETATM    3  C   UNL     1      -9.101  11.960  68.080  1.00  0.00    -0.189 C  
BRANCH   3   4
HETATM    4  N   UNL     1      -9.108  13.220  68.864  1.00  0.00    -0.373 NA 
HETATM    5  H   UNL     1      -9.355  13.233  69.854  1.00  0.00     0.000 HD 
BRANCH   4   6
HETATM    6  C   UNL     1      -8.740  14.447  68.146  1.00  0.00    -0.175 C  
HETATM    7  C   UNL     1      -7.491  15.031  68.815  1.00  0.00    -0.133 C  
HETATM    8  C   UNL     1      -9.852  15.495  68.129  1.00  0.00    -0.216 C  
ENDBRANCH   4   6
ENDBRANCH   3   4
BRANCH   3   9
HETATM    9  C   UNL     1     -10.552  11.364  67.969  1.00  0.00    -0.191 C  
HETATM   10  H   UNL     1     -12.327  11.939  67.293  1.00  0.00     0.000 HD 
HETATM   11  O   UNL     1     -11.450  12.299  67.360  1.00  0.00    -0.308 OA 
BRANCH   9  12
HETATM   12  C   UNL     1     -11.137  10.799  69.265  1.00  0.00    -0.312 A  
HETATM   13  C   UNL     1     -11.832  11.547  70.247  1.00  0.00    -0.431 A  
HETATM   14  C   UNL     1     -11.980  13.011  70.203  1.00  0.00    -0.374 C  
HETATM   15  C   UNL     1     -12.785  13.654  71.057  1.00  0.00    -0.408 C  
HETATM   16  C   UNL     1     -13.532  12.922  72.099  1.00  0.00    -0.522 C  
HETATM   17  N   UNL     1     -13.272  11.588  72.217  1.00  0.00    -0.506 N  
HETATM   18  O   UNL     1     -14.335  13.495  72.828  1.00  0.00    -0.640 OA 
HETATM   19  H   UNL     1     -13.702  11.081  72.991  1.00  0.00     0.000 HD 
HETATM   20  C   UNL     1     -12.447  10.870  71.333  1.00  0.00    -0.355 A  
HETATM   21  C   UNL     1     -12.289   9.489  71.484  1.00  0.00    -0.380 A  
HETATM   22  O   UNL     1     -12.828   8.789  72.527  1.00  0.00    -0.456 OA 
HETATM   23  C   UNL     1     -11.566   8.758  70.555  1.00  0.00    -0.170 A  
HETATM   24  H   UNL     1     -12.721   7.851  72.630  1.00  0.00     0.000 HD 
HETATM   25  C   UNL     1     -11.005   9.405  69.455  1.00  0.00    -0.165 A  
ENDBRANCH   9  12
ENDBRANCH   3   9
ENDBRANCH   2   3
TORSDOF 5
ENDMDL
MODEL      124
REMARK 921   NORMALIZED FREE ENERGY PREDICTED BY IDOCK:   -4.57 KCAL/MOL
REMARK 922        TOTAL FREE ENERGY PREDICTED BY IDOCK:   -6.76 KCAL/MOL
REMARK 923 INTER-LIGAND FREE ENERGY PREDICTED BY IDOCK:   -5.78 KCAL/MOL
REMARK 924 INTRA-LIGAND FREE ENERGY PREDICTED BY IDOCK:   -0.97 KCAL/MOL
REMARK 927      BINDING AFFINITY PREDICTED BY RF-SCORE:    0.00 PKD
ROOT
HETATM    1  C   UNL     1     -12.523  12.876  70.984  1.00  0.00    -0.374 C  
HETATM    2  C   UNL     1     -12.524  14.107  70.083  1.00  0.00    -0.391 C  
ENDROOT
BRANCH   2   3
HETATM    3  C   UNL     1     -11.198  14.359  69.315  1.00  0.00    -0.275 C  
BRANCH   3   4
HETATM    4  N   UNL     1     -10.443  13.109  69.047  1.00  0.00    -0.432 NA 
HETATM    5  H   UNL     1     -10.073  12.535  69.804  1.00  0.00     0.000 HD 
BRANCH   4   6
HETATM    6  C   UNL     1     -10.256  12.741  67.637  1.00  0.00    -0.219 C  
HETATM    7  C   UNL     1      -8.751  12.627  67.374  1.00  0.00    -0.191 C  
HETATM    8  C   UNL     1     -10.875  13.743  66.662  1.00  0.00    -0.288 C  
ENDBRANCH   4   6
ENDBRANCH   3   4
BRANCH   3   9
HETATM    9  C   UNL     1     -10.299  15.401  70.075  1.00  0.00    -0.272 C  
HETATM   10  H   UNL     1     -10.553  17.047  71.154  1.00  0.00     0.000 HD 
HETATM   11  O   UNL     1     -11.095  16.417  70.695  1.00  0.00    -0.323 OA 
BRANCH   9  12
HETATM   12  C   UNL     1      -9.159  16.013  69.259  1.00  0.00    -0.235 A  
HETATM   13  C   UNL     1      -9.304  17.017  68.269  1.00  0.00    -0.255 A  
HETATM   14  C   UNL     1     -10.607  17.524  67.808  1.00  0.00    -0.375 C  
HETATM   15  C   UNL     1     -10.691  18.587  66.999  1.00  0.00    -0.363 C  
HETATM   16  C   UNL     1      -9.478  19.273  66.510  1.00  0.00    -0.357 C  
HETATM   17  N   UNL     1      -8.281  18.703  66.831  1.00  0.00    -0.254 N  
HETATM   18  O   UNL     1      -9.553  20.296  65.839  1.00  0.00    -0.323 OA 
HETATM   19  H   UNL     1      -7.435  19.102  66.425  1.00  0.00     0.000 HD 
HETATM   20  C   UNL     1      -8.145  17.597  67.690  1.00  0.00    -0.216 A  
HETATM   21  C   UNL     1      -6.874  17.119  68.022  1.00  0.00    -0.169 A  
HETATM   22  O   UNL     1      -5.726  17.614  67.471  1.00  0.00    -0.134 OA 
HETATM   23  C   UNL     1      -6.727  16.101  68.952  1.00  0.00    -0.147 A  
HETATM   24  H   UNL     1      -4.862  17.289  67.697  1.00  0.00     0.000 HD 
HETATM   25  C   UNL     1      -7.855  15.562  69.567  1.00  0.00    -0.194 A  
ENDBRANCH   9  12
ENDBRANCH   3   9
ENDBRANCH   2   3
TORSDOF 5
ENDMDL
MODEL      125
REMARK 921   NORMALIZED FREE ENERGY PREDICTED BY IDOCK:   -4.56 KCAL/MOL
REMARK 922        TOTAL FREE ENERGY PREDICTED BY IDOCK:   -6.74 KCAL/MOL
REMARK 923 INTER-LIGAND FREE ENERGY PREDICTED BY IDOCK:   -5.93 KCAL/MOL
REMARK 924 INTRA-LIGAND FREE ENERGY PREDICTED BY IDOCK:   -0.81 KCAL/MOL
REMARK 927      BINDING AFFINITY PREDICTED BY RF-SCORE:    0.00 PKD
ROOT
HETATM    1  C   UNL     1     -10.888   9.814  68.516  1.00  0.00    -0.227 C  
HETATM    2  C   UNL     1     -10.562  10.323  67.115  1.00  0.00    -0.320 C  
ENDROOT
BRANCH   2   3
HETATM    3  C   UNL     1     -10.867  11.828  66.876  1.00  0.00    -0.271 C  
BRANCH   3   4
HETATM    4  N   UNL     1     -12.132  12.046  66.132  1.00  0.00    -0.520 NA 
HETATM    5  H   UNL     1     -13.012  11.631  66.438  1.00  0.00     0.000 HD 
BRANCH   4   6
HETATM    6  C   UNL     1     -12.055  12.890  64.932  1.00  0.00    -0.432 C  
HETATM    7  C   UNL     1     -13.004  14.077  65.126  1.00  0.00    -0.260 C  
HETATM    8  C   UNL     1     -12.416  12.147  63.645  1.00  0.00    -0.658 C  
ENDBRANCH   4   6
ENDBRANCH   3   4
BRANCH   3   9
HETATM    9  C   UNL     1      -9.664  12.536  66.152  1.00  0.00    -0.254 C  
HETATM   10  H   UNL     1      -7.993  12.005  65.224  1.00  0.00     0.000 HD 
HETATM   11  O   UNL     1      -8.720  11.578  65.661  1.00  0.00    -0.097 OA 
BRANCH   9  12
HETATM   12  C   UNL     1      -8.968  13.641  66.949  1.00  0.00    -0.229 A  
HETATM   13  C   UNL     1      -9.196  15.031  66.797  1.00  0.00    -0.280 A  
HETATM   14  C   UNL     1     -10.060  15.606  65.753  1.00  0.00    -0.394 C  
HETATM   15  C   UNL     1     -10.379  16.906  65.754  1.00  0.00    -0.298 C  
HETATM   16  C   UNL     1      -9.850  17.821  66.784  1.00  0.00    -0.320 C  
HETATM   17  N   UNL     1      -8.939  17.301  67.656  1.00  0.00    -0.223 N  
HETATM   18  O   UNL     1     -10.206  18.993  66.838  1.00  0.00    -0.338 OA 
HETATM   19  H   UNL     1      -8.486  17.936  68.314  1.00  0.00     0.000 HD 
HETATM   20  C   UNL     1      -8.587  15.940  67.701  1.00  0.00    -0.163 A  
HETATM   21  C   UNL     1      -7.696  15.477  68.674  1.00  0.00    -0.144 A  
HETATM   22  O   UNL     1      -7.053  16.308  69.549  1.00  0.00    -0.219 OA 
HETATM   23  C   UNL     1      -7.427  14.122  68.795  1.00  0.00    -0.129 A  
HETATM   24  H   UNL     1      -6.447  15.994  70.210  1.00  0.00     0.000 HD 
HETATM   25  C   UNL     1      -8.063  13.217  67.948  1.00  0.00    -0.159 A  
ENDBRANCH   9  12
ENDBRANCH   3   9
ENDBRANCH   2   3
TORSDOF 5
ENDMDL
MODEL      126
REMARK 921   NORMALIZED FREE ENERGY PREDICTED BY IDOCK:   -4.54 KCAL/MOL
REMARK 922        TOTAL FREE ENERGY PREDICTED BY IDOCK:   -6.71 KCAL/MOL
REMARK 923 INTER-LIGAND FREE ENERGY PREDICTED BY IDOCK:   -6.19 KCAL/MOL
REMARK 924 INTRA-LIGAND FREE ENERGY PREDICTED BY IDOCK:   -0.52 KCAL/MOL
REMARK 927      BINDING AFFINITY PREDICTED BY RF-SCORE:    0.00 PKD
ROOT
HETATM    1  C   UNL     1      -9.154   7.853  69.812  1.00  0.00    -0.146 C  
HETATM    2  C   UNL     1      -8.149   8.792  69.151  1.00  0.00    -0.118 C  
ENDROOT
BRANCH   2   3
HETATM    3  C   UNL     1      -8.538   9.270  67.725  1.00  0.00    -0.117 C  
BRANCH   3   4
HETATM    4  N   UNL     1      -7.856  10.529  67.336  1.00  0.00    -0.106 NA 
HETATM    5  H   UNL     1      -7.869  11.353  67.937  1.00  0.00     0.000 HD 
BRANCH   4   6
HETATM    6  C   UNL     1      -7.161  10.531  66.042  1.00  0.00    -0.137 C  
HETATM    7  C   UNL     1      -7.246   9.117  65.457  1.00  0.00    -0.082 C  
HETATM    8  C   UNL     1      -5.696  10.959  66.141  1.00  0.00    -0.142 C  
ENDBRANCH   4   6
ENDBRANCH   3   4
BRANCH   3   9
HETATM    9  C   UNL     1     -10.097   9.415  67.588  1.00  0.00    -0.211 C  
HETATM   10  H   UNL     1     -11.531   8.767  66.377  1.00  0.00     0.000 HD 
HETATM   11  O   UNL     1     -10.588   8.680  66.461  1.00  0.00    -0.199 OA 
BRANCH   9  12
HETATM   12  C   UNL     1     -10.633  10.848  67.589  1.00  0.00    -0.263 A  
HETATM   13  C   UNL     1     -10.951  11.607  66.436  1.00  0.00    -0.345 A  
HETATM   14  C   UNL     1     -10.692  11.148  65.061  1.00  0.00    -0.301 C  
HETATM   15  C   UNL     1     -11.162  11.822  64.004  1.00  0.00    -0.461 C  
HETATM   16  C   UNL     1     -11.932  13.070  64.176  1.00  0.00    -0.427 C  
HETATM   17  N   UNL     1     -12.039  13.555  65.446  1.00  0.00    -0.389 N  
HETATM   18  O   UNL     1     -12.436  13.642  63.216  1.00  0.00    -0.801 OA 
HETATM   19  H   UNL     1     -12.481  14.464  65.577  1.00  0.00     0.000 HD 
HETATM   20  C   UNL     1     -11.574  12.874  66.585  1.00  0.00    -0.372 A  
HETATM   21  C   UNL     1     -11.787  13.410  67.859  1.00  0.00    -0.357 A  
HETATM   22  O   UNL     1     -12.350  14.639  68.064  1.00  0.00    -0.604 OA 
HETATM   23  C   UNL     1     -11.430  12.695  68.992  1.00  0.00    -0.354 A  
HETATM   24  H   UNL     1     -12.494  15.003  68.929  1.00  0.00     0.000 HD 
HETATM   25  C   UNL     1     -10.868  11.427  68.857  1.00  0.00    -0.259 A  
ENDBRANCH   9  12
ENDBRANCH   3   9
ENDBRANCH   2   3
TORSDOF 5
ENDMDL
MODEL      127
REMARK 921   NORMALIZED FREE ENERGY PREDICTED BY IDOCK:   -4.53 KCAL/MOL
REMARK 922        TOTAL FREE ENERGY PREDICTED BY IDOCK:   -6.70 KCAL/MOL
REMARK 923 INTER-LIGAND FREE ENERGY PREDICTED BY IDOCK:   -6.23 KCAL/MOL
REMARK 924 INTRA-LIGAND FREE ENERGY PREDICTED BY IDOCK:   -0.47 KCAL/MOL
REMARK 927      BINDING AFFINITY PREDICTED BY RF-SCORE:    0.00 PKD
ROOT
HETATM    1  C   UNL     1     -10.021  17.613  68.556  1.00  0.00    -0.368 C  
HETATM    2  C   UNL     1     -10.859  16.557  67.842  1.00  0.00    -0.326 C  
ENDROOT
BRANCH   2   3
HETATM    3  C   UNL     1     -10.317  15.106  67.950  1.00  0.00    -0.241 C  
BRANCH   3   4
HETATM    4  N   UNL     1      -9.120  14.875  67.103  1.00  0.00    -0.210 NA 
HETATM    5  H   UNL     1      -9.186  14.820  66.087  1.00  0.00     0.000 HD 
BRANCH   4   6
HETATM    6  C   UNL     1      -7.835  14.732  67.800  1.00  0.00    -0.151 C  
HETATM    7  C   UNL     1      -7.208  13.402  67.368  1.00  0.00    -0.116 C  
HETATM    8  C   UNL     1      -7.966  14.768  69.323  1.00  0.00    -0.103 C  
ENDBRANCH   4   6
ENDBRANCH   3   4
BRANCH   3   9
HETATM    9  C   UNL     1     -11.444  14.060  67.620  1.00  0.00    -0.334 C  
HETATM   10  H   UNL     1     -12.404  12.594  68.551  1.00  0.00     0.000 HD 
HETATM   11  O   UNL     1     -11.723  13.227  68.750  1.00  0.00    -0.287 OA 
BRANCH   9  12
HETATM   12  C   UNL     1     -11.223  13.224  66.358  1.00  0.00    -0.325 A  
HETATM   13  C   UNL     1     -10.620  11.942  66.316  1.00  0.00    -0.289 A  
HETATM   14  C   UNL     1     -10.012  11.290  67.487  1.00  0.00    -0.203 C  
HETATM   15  C   UNL     1      -9.609  10.014  67.440  1.00  0.00    -0.182 C  
HETATM   16  C   UNL     1      -9.729   9.222  66.200  1.00  0.00    -0.279 C  
HETATM   17  N   UNL     1     -10.160   9.884  65.088  1.00  0.00    -0.345 N  
HETATM   18  O   UNL     1      -9.440   8.030  66.176  1.00  0.00    -0.190 OA 
HETATM   19  H   UNL     1     -10.158   9.383  64.199  1.00  0.00     0.000 HD 
HETATM   20  C   UNL     1     -10.608  11.217  65.096  1.00  0.00    -0.280 A  
HETATM   21  C   UNL     1     -11.100  11.799  63.924  1.00  0.00    -0.408 A  
HETATM   22  O   UNL     1     -11.083  11.163  62.714  1.00  0.00    -0.729 OA 
HETATM   23  C   UNL     1     -11.644  13.074  63.946  1.00  0.00    -0.508 A  
HETATM   24  H   UNL     1     -11.417  11.558  61.918  1.00  0.00     0.000 HD 
HETATM   25  C   UNL     1     -11.711  13.773  65.150  1.00  0.00    -0.354 A  
ENDBRANCH   9  12
ENDBRANCH   3   9
ENDBRANCH   2   3
TORSDOF 5
ENDMDL
MODEL      128
REMARK 921   NORMALIZED FREE ENERGY PREDICTED BY IDOCK:   -4.52 KCAL/MOL
REMARK 922        TOTAL FREE ENERGY PREDICTED BY IDOCK:   -6.69 KCAL/MOL
REMARK 923 INTER-LIGAND FREE ENERGY PREDICTED BY IDOCK:   -6.32 KCAL/MOL
REMARK 924 INTRA-LIGAND FREE ENERGY PREDICTED BY IDOCK:   -0.37 KCAL/MOL
REMARK 927      BINDING AFFINITY PREDICTED BY RF-SCORE:    0.00 PKD
ROOT
HETATM    1  C   UNL     1      -9.252  14.562  66.973  1.00  0.00    -0.253 C  
HETATM    2  C   UNL     1     -10.768  14.424  67.079  1.00  0.00    -0.285 C  
ENDROOT
BRANCH   2   3
HETATM    3  C   UNL     1     -11.276  12.989  67.392  1.00  0.00    -0.288 C  
BRANCH   3   4
HETATM    4  N   UNL     1     -12.134  12.436  66.315  1.00  0.00    -0.630 NA 
HETATM    5  H   UNL     1     -13.081  12.107  66.501  1.00  0.00     0.000 HD 
BRANCH   4   6
HETATM    6  C   UNL     1     -11.551  12.385  64.968  1.00  0.00    -0.345 C  
HETATM    7  C   UNL     1     -12.685  12.127  63.971  1.00  0.00    -0.452 C  
HETATM    8  C   UNL     1     -10.476  11.309  64.813  1.00  0.00    -0.384 C  
ENDBRANCH   4   6
ENDBRANCH   3   4
BRANCH   3   9
HETATM    9  C   UNL     1     -12.022  12.948  68.776  1.00  0.00    -0.253 C  
HETATM   10  H   UNL     1     -12.247  14.126  70.357  1.00  0.00     0.000 HD 
HETATM   11  O   UNL     1     -11.796  14.150  69.521  1.00  0.00    -0.280 OA 
BRANCH   9  12
HETATM   12  C   UNL     1     -11.760  11.709  69.633  1.00  0.00    -0.418 A  
HETATM   13  C   UNL     1     -10.580  10.925  69.607  1.00  0.00    -0.178 A  
HETATM   14  C   UNL     1      -9.482  11.138  68.648  1.00  0.00    -0.196 C  
HETATM   15  C   UNL     1      -8.319  10.487  68.770  1.00  0.00    -0.136 C  
HETATM   16  C   UNL     1      -8.103   9.506  69.851  1.00  0.00    -0.157 C  
HETATM   17  N   UNL     1      -9.177   9.217  70.640  1.00  0.00    -0.238 N  
HETATM   18  O   UNL     1      -7.011   8.971  70.016  1.00  0.00    -0.044 OA 
HETATM   19  H   UNL     1      -9.079   8.471  71.330  1.00  0.00     0.000 HD 
HETATM   20  C   UNL     1     -10.411   9.886  70.558  1.00  0.00    -0.264 A  
HETATM   21  C   UNL     1     -11.439   9.575  71.453  1.00  0.00    -0.392 A  
HETATM   22  O   UNL     1     -11.348   8.563  72.368  1.00  0.00    -0.366 OA 
HETATM   23  C   UNL     1     -12.618  10.303  71.451  1.00  0.00    -0.539 A  
HETATM   24  H   UNL     1     -12.046   8.352  72.976  1.00  0.00     0.000 HD 
HETATM   25  C   UNL     1     -12.772  11.362  70.557  1.00  0.00    -0.221 A  
ENDBRANCH   9  12
ENDBRANCH   3   9
ENDBRANCH   2   3
TORSDOF 5
ENDMDL
MODEL      129
REMARK 921   NORMALIZED FREE ENERGY PREDICTED BY IDOCK:   -4.50 KCAL/MOL
REMARK 922        TOTAL FREE ENERGY PREDICTED BY IDOCK:   -6.67 KCAL/MOL
REMARK 923 INTER-LIGAND FREE ENERGY PREDICTED BY IDOCK:   -6.23 KCAL/MOL
REMARK 924 INTRA-LIGAND FREE ENERGY PREDICTED BY IDOCK:   -0.44 KCAL/MOL
REMARK 927      BINDING AFFINITY PREDICTED BY RF-SCORE:    0.00 PKD
ROOT
HETATM    1  C   UNL     1     -12.779  12.032  63.914  1.00  0.00    -0.467 C  
HETATM    2  C   UNL     1     -11.829  12.241  65.089  1.00  0.00    -0.404 C  
ENDROOT
BRANCH   2   3
HETATM    3  C   UNL     1     -10.658  13.225  64.819  1.00  0.00    -0.386 C  
BRANCH   3   4
HETATM    4  N   UNL     1      -9.343  12.685  65.247  1.00  0.00    -0.370 NA 
HETATM    5  H   UNL     1      -8.481  13.215  65.124  1.00  0.00     0.000 HD 
BRANCH   4   6
HETATM    6  C   UNL     1      -9.346  11.349  65.858  1.00  0.00    -0.228 C  
HETATM    7  C   UNL     1      -8.853  11.487  67.302  1.00  0.00    -0.160 C  
HETATM    8  C   UNL     1      -8.473  10.340  65.111  1.00  0.00    -0.173 C  
ENDBRANCH   4   6
ENDBRANCH   3   4
BRANCH   3   9
HETATM    9  C   UNL     1     -10.932  14.621  65.489  1.00  0.00    -0.340 C  
HETATM   10  H   UNL     1     -10.330  16.499  65.268  1.00  0.00     0.000 HD 
HETATM   11  O   UNL     1     -10.164  15.655  64.863  1.00  0.00    -0.418 OA 
BRANCH   9  12
HETATM   12  C   UNL     1     -10.782  14.666  67.011  1.00  0.00    -0.290 A  
HETATM   13  C   UNL     1      -9.589  14.973  67.711  1.00  0.00    -0.203 A  
HETATM   14  C   UNL     1      -8.288  15.177  67.052  1.00  0.00    -0.263 C  
HETATM   15  C   UNL     1      -7.229  15.631  67.733  1.00  0.00    -0.175 C  
HETATM   16  C   UNL     1      -7.315  15.914  69.179  1.00  0.00    -0.198 C  
HETATM   17  N   UNL     1      -8.485  15.584  69.800  1.00  0.00    -0.214 N  
HETATM   18  O   UNL     1      -6.373  16.410  69.788  1.00  0.00    -0.213 OA 
HETATM   19  H   UNL     1      -8.534  15.680  70.814  1.00  0.00     0.000 HD 
HETATM   20  C   UNL     1      -9.626  15.120  69.122  1.00  0.00    -0.232 A  
HETATM   21  C   UNL     1     -10.808  14.871  69.826  1.00  0.00    -0.235 A  
HETATM   22  O   UNL     1     -10.895  14.962  71.188  1.00  0.00    -0.550 OA 
HETATM   23  C   UNL     1     -11.967  14.519  69.153  1.00  0.00    -0.344 A  
HETATM   24  H   UNL     1     -11.698  14.793  71.667  1.00  0.00     0.000 HD 
HETATM   25  C   UNL     1     -11.955  14.426  67.763  1.00  0.00    -0.368 A  
ENDBRANCH   9  12
ENDBRANCH   3   9
ENDBRANCH   2   3
TORSDOF 5
ENDMDL
MODEL      130
REMARK 921   NORMALIZED FREE ENERGY PREDICTED BY IDOCK:   -4.50 KCAL/MOL
REMARK 922        TOTAL FREE ENERGY PREDICTED BY IDOCK:   -6.67 KCAL/MOL
REMARK 923 INTER-LIGAND FREE ENERGY PREDICTED BY IDOCK:   -6.54 KCAL/MOL
REMARK 924 INTRA-LIGAND FREE ENERGY PREDICTED BY IDOCK:   -0.13 KCAL/MOL
REMARK 927      BINDING AFFINITY PREDICTED BY RF-SCORE:    0.00 PKD
ROOT
HETATM    1  C   UNL     1     -12.585  14.234  64.846  1.00  0.00    -0.339 C  
HETATM    2  C   UNL     1     -12.513  12.722  65.041  1.00  0.00    -0.572 C  
ENDROOT
BRANCH   2   3
HETATM    3  C   UNL     1     -11.109  12.176  65.420  1.00  0.00    -0.317 C  
BRANCH   3   4
HETATM    4  N   UNL     1     -10.842  10.833  64.847  1.00  0.00    -0.106 NA 
HETATM    5  H   UNL     1     -11.590  10.255  64.466  1.00  0.00     0.000 HD 
BRANCH   4   6
HETATM    6  C   UNL     1      -9.445  10.378  64.856  1.00  0.00    -0.265 C  
HETATM    7  C   UNL     1      -9.040  10.067  63.411  1.00  0.00    -0.301 C  
HETATM    8  C   UNL     1      -9.215   9.146  65.732  1.00  0.00    -0.294 C  
ENDBRANCH   4   6
ENDBRANCH   3   4
BRANCH   3   9
HETATM    9  C   UNL     1     -10.913  12.166  66.980  1.00  0.00    -0.271 C  
HETATM   10  H   UNL     1     -12.025  11.864  68.596  1.00  0.00     0.000 HD 
HETATM   11  O   UNL     1     -12.142  11.870  67.653  1.00  0.00    -0.568 OA 
BRANCH   9  12
HETATM   12  C   UNL     1     -10.243  13.407  67.572  1.00  0.00    -0.226 A  
HETATM   13  C   UNL     1     -10.768  14.203  68.621  1.00  0.00    -0.263 A  
HETATM   14  C   UNL     1     -12.104  14.002  69.206  1.00  0.00    -0.380 C  
HETATM   15  C   UNL     1     -12.488  14.665  70.303  1.00  0.00    -0.401 C  
HETATM   16  C   UNL     1     -11.598  15.648  70.952  1.00  0.00    -0.389 C  
HETATM   17  N   UNL     1     -10.424  15.925  70.315  1.00  0.00    -0.251 N  
HETATM   18  O   UNL     1     -11.912  16.193  72.004  1.00  0.00    -0.479 OA 
HETATM   19  H   UNL     1      -9.838  16.671  70.692  1.00  0.00     0.000 HD 
HETATM   20  C   UNL     1      -9.974  15.243  69.170  1.00  0.00    -0.238 A  
HETATM   21  C   UNL     1      -8.724  15.542  68.621  1.00  0.00    -0.188 A  
HETATM   22  O   UNL     1      -7.931  16.554  69.086  1.00  0.00    -0.240 OA 
HETATM   23  C   UNL     1      -8.226  14.802  67.560  1.00  0.00    -0.201 A  
HETATM   24  H   UNL     1      -7.081  16.758  68.712  1.00  0.00     0.000 HD 
HETATM   25  C   UNL     1      -8.974  13.743  67.049  1.00  0.00    -0.247 A  
ENDBRANCH   9  12
ENDBRANCH   3   9
ENDBRANCH   2   3
TORSDOF 5
ENDMDL
MODEL      131
REMARK 921   NORMALIZED FREE ENERGY PREDICTED BY IDOCK:   -4.50 KCAL/MOL
REMARK 922        TOTAL FREE ENERGY PREDICTED BY IDOCK:   -6.66 KCAL/MOL
REMARK 923 INTER-LIGAND FREE ENERGY PREDICTED BY IDOCK:   -5.99 KCAL/MOL
REMARK 924 INTRA-LIGAND FREE ENERGY PREDICTED BY IDOCK:   -0.67 KCAL/MOL
REMARK 927      BINDING AFFINITY PREDICTED BY RF-SCORE:    0.00 PKD
ROOT
HETATM    1  C   UNL     1      -7.576  10.911  67.330  1.00  0.00    -0.100 C  
HETATM    2  C   UNL     1      -8.502  11.278  68.485  1.00  0.00    -0.156 C  
ENDROOT
BRANCH   2   3
HETATM    3  C   UNL     1      -9.805  12.016  68.072  1.00  0.00    -0.199 C  
BRANCH   3   4
HETATM    4  N   UNL     1     -10.171  13.105  69.012  1.00  0.00    -0.432 NA 
HETATM    5  H   UNL     1     -10.358  12.921  69.998  1.00  0.00     0.000 HD 
BRANCH   4   6
HETATM    6  C   UNL     1     -10.248  14.461  68.453  1.00  0.00    -0.243 C  
HETATM    7  C   UNL     1      -9.426  15.391  69.352  1.00  0.00    -0.267 C  
HETATM    8  C   UNL     1     -11.679  14.989  68.339  1.00  0.00    -0.341 C  
ENDBRANCH   4   6
ENDBRANCH   3   4
BRANCH   3   9
HETATM    9  C   UNL     1     -10.995  11.003  67.903  1.00  0.00    -0.264 C  
HETATM   10  H   UNL     1     -12.840  11.014  67.173  1.00  0.00     0.000 HD 
HETATM   11  O   UNL     1     -12.121  11.626  67.275  1.00  0.00    -0.595 OA 
BRANCH   9  12
HETATM   12  C   UNL     1     -11.413  10.254  69.171  1.00  0.00    -0.210 A  
HETATM   13  C   UNL     1     -11.010   8.942  69.521  1.00  0.00    -0.097 A  
HETATM   14  C   UNL     1     -10.217   8.070  68.637  1.00  0.00    -0.225 C  
HETATM   15  C   UNL     1      -9.717   6.908  69.076  1.00  0.00    -0.150 C  
HETATM   16  C   UNL     1      -9.969   6.440  70.453  1.00  0.00    -0.183 C  
HETATM   17  N   UNL     1     -10.822   7.190  71.209  1.00  0.00    -0.231 N  
HETATM   18  O   UNL     1      -9.443   5.420  70.884  1.00  0.00    -0.158 OA 
HETATM   19  H   UNL     1     -11.087   6.835  72.128  1.00  0.00     0.000 HD 
HETATM   20  C   UNL     1     -11.357   8.423  70.795  1.00  0.00    -0.265 A  
HETATM   21  C   UNL     1     -12.169   9.162  71.661  1.00  0.00    -0.361 A  
HETATM   22  O   UNL     1     -12.564   8.699  72.885  1.00  0.00    -0.574 OA 
HETATM   23  C   UNL     1     -12.611  10.426  71.304  1.00  0.00    -0.525 A  
HETATM   24  H   UNL     1     -13.116   9.201  73.474  1.00  0.00     0.000 HD 
HETATM   25  C   UNL     1     -12.230  10.967  70.077  1.00  0.00    -0.418 A  
ENDBRANCH   9  12
ENDBRANCH   3   9
ENDBRANCH   2   3
TORSDOF 5
ENDMDL
MODEL      132
REMARK 921   NORMALIZED FREE ENERGY PREDICTED BY IDOCK:   -4.49 KCAL/MOL
REMARK 922        TOTAL FREE ENERGY PREDICTED BY IDOCK:   -6.65 KCAL/MOL
REMARK 923 INTER-LIGAND FREE ENERGY PREDICTED BY IDOCK:   -6.11 KCAL/MOL
REMARK 924 INTRA-LIGAND FREE ENERGY PREDICTED BY IDOCK:   -0.54 KCAL/MOL
REMARK 927      BINDING AFFINITY PREDICTED BY RF-SCORE:    0.00 PKD
ROOT
HETATM    1  C   UNL     1     -12.873  14.039  65.303  1.00  0.00    -0.418 C  
HETATM    2  C   UNL     1     -11.981  13.664  66.483  1.00  0.00    -0.465 C  
ENDROOT
BRANCH   2   3
HETATM    3  C   UNL     1     -10.482  14.040  66.318  1.00  0.00    -0.286 C  
BRANCH   3   4
HETATM    4  N   UNL     1      -9.692  12.971  65.656  1.00  0.00    -0.457 NA 
HETATM    5  H   UNL     1      -8.776  13.158  65.248  1.00  0.00     0.000 HD 
BRANCH   4   6
HETATM    6  C   UNL     1     -10.294  11.632  65.620  1.00  0.00    -0.262 C  
HETATM    7  C   UNL     1      -9.360  10.673  66.365  1.00  0.00    -0.195 C  
HETATM    8  C   UNL     1     -10.536  11.116  64.201  1.00  0.00    -0.442 C  
ENDBRANCH   4   6
ENDBRANCH   3   4
BRANCH   3   9
HETATM    9  C   UNL     1      -9.846  14.428  67.702  1.00  0.00    -0.224 C  
HETATM   10  H   UNL     1     -10.474  14.920  69.519  1.00  0.00     0.000 HD 
HETATM   11  O   UNL     1     -10.858  14.685  68.683  1.00  0.00    -0.240 OA 
BRANCH   9  12
HETATM   12  C   UNL     1      -8.814  15.556  67.664  1.00  0.00    -0.185 A  
HETATM   13  C   UNL     1      -9.102  16.927  67.456  1.00  0.00    -0.222 A  
HETATM   14  C   UNL     1     -10.444  17.437  67.127  1.00  0.00    -0.305 C  
HETATM   15  C   UNL     1     -10.702  18.750  67.107  1.00  0.00    -0.469 C  
HETATM   16  C   UNL     1      -9.643  19.741  67.383  1.00  0.00    -0.355 C  
HETATM   17  N   UNL     1      -8.378  19.256  67.544  1.00  0.00    -0.285 N  
HETATM   18  O   UNL     1      -9.895  20.939  67.450  1.00  0.00    -0.444 OA 
HETATM   19  H   UNL     1      -7.615  19.927  67.639  1.00  0.00     0.000 HD 
HETATM   20  C   UNL     1      -8.064  17.886  67.588  1.00  0.00    -0.224 A  
HETATM   21  C   UNL     1      -6.749  17.475  67.827  1.00  0.00    -0.173 A  
HETATM   22  O   UNL     1      -5.704  18.349  67.929  1.00  0.00    -0.162 OA 
HETATM   23  C   UNL     1      -6.450  16.130  67.980  1.00  0.00    -0.143 A  
HETATM   24  H   UNL     1      -4.810  18.070  68.091  1.00  0.00     0.000 HD 
HETATM   25  C   UNL     1      -7.472  15.185  67.908  1.00  0.00    -0.149 A  
ENDBRANCH   9  12
ENDBRANCH   3   9
ENDBRANCH   2   3
TORSDOF 5
ENDMDL
MODEL      133
REMARK 921   NORMALIZED FREE ENERGY PREDICTED BY IDOCK:   -4.47 KCAL/MOL
REMARK 922        TOTAL FREE ENERGY PREDICTED BY IDOCK:   -6.63 KCAL/MOL
REMARK 923 INTER-LIGAND FREE ENERGY PREDICTED BY IDOCK:   -5.59 KCAL/MOL
REMARK 924 INTRA-LIGAND FREE ENERGY PREDICTED BY IDOCK:   -1.04 KCAL/MOL
REMARK 927      BINDING AFFINITY PREDICTED BY RF-SCORE:    0.00 PKD
ROOT
HETATM    1  C   UNL     1     -12.135  16.057  71.686  1.00  0.00    -0.537 C  
HETATM    2  C   UNL     1     -12.581  14.950  70.735  1.00  0.00    -0.414 C  
ENDROOT
BRANCH   2   3
HETATM    3  C   UNL     1     -11.549  14.572  69.638  1.00  0.00    -0.299 C  
BRANCH   3   4
HETATM    4  N   UNL     1     -11.662  15.421  68.426  1.00  0.00    -0.436 NA 
HETATM    5  H   UNL     1     -12.508  15.428  67.855  1.00  0.00     0.000 HD 
BRANCH   4   6
HETATM    6  C   UNL     1     -10.498  16.250  68.089  1.00  0.00    -0.289 C  
HETATM    7  C   UNL     1      -9.371  15.901  69.067  1.00  0.00    -0.243 C  
HETATM    8  C   UNL     1     -10.784  17.750  68.149  1.00  0.00    -0.293 C  
ENDBRANCH   4   6
ENDBRANCH   3   4
BRANCH   3   9
HETATM    9  C   UNL     1     -11.661  13.048  69.265  1.00  0.00    -0.310 C  
HETATM   10  H   UNL     1     -11.957  11.326  70.203  1.00  0.00     0.000 HD 
HETATM   11  O   UNL     1     -11.890  12.246  70.429  1.00  0.00    -0.303 OA 
BRANCH   9  12
HETATM   12  C   UNL     1     -10.513  12.486  68.423  1.00  0.00    -0.250 A  
HETATM   13  C   UNL     1     -10.585  12.169  67.044  1.00  0.00    -0.256 A  
HETATM   14  C   UNL     1     -11.828  12.230  66.257  1.00  0.00    -0.387 C  
HETATM   15  C   UNL     1     -11.815  12.087  64.926  1.00  0.00    -0.304 C  
HETATM   16  C   UNL     1     -10.556  11.830  64.199  1.00  0.00    -0.353 C  
HETATM   17  N   UNL     1      -9.439  11.635  64.956  1.00  0.00    -0.391 N  
HETATM   18  O   UNL     1     -10.528  11.783  62.974  1.00  0.00    -0.322 OA 
HETATM   19  H   UNL     1      -8.579  11.360  64.482  1.00  0.00     0.000 HD 
HETATM   20  C   UNL     1      -9.404  11.791  66.354  1.00  0.00    -0.220 A  
HETATM   21  C   UNL     1      -8.199  11.640  67.046  1.00  0.00    -0.170 A  
HETATM   22  O   UNL     1      -7.038  11.244  66.442  1.00  0.00    -0.252 OA 
HETATM   23  C   UNL     1      -8.133  11.898  68.407  1.00  0.00    -0.155 A  
HETATM   24  H   UNL     1      -6.220  11.141  66.913  1.00  0.00     0.000 HD 
HETATM   25  C   UNL     1      -9.274  12.324  69.083  1.00  0.00     0.593 A  
ENDBRANCH   9  12
ENDBRANCH   3   9
ENDBRANCH   2   3
TORSDOF 5
ENDMDL
MODEL      134
REMARK 921   NORMALIZED FREE ENERGY PREDICTED BY IDOCK:   -4.47 KCAL/MOL
REMARK 922        TOTAL FREE ENERGY PREDICTED BY IDOCK:   -6.63 KCAL/MOL
REMARK 923 INTER-LIGAND FREE ENERGY PREDICTED BY IDOCK:   -5.80 KCAL/MOL
REMARK 924 INTRA-LIGAND FREE ENERGY PREDICTED BY IDOCK:   -0.83 KCAL/MOL
REMARK 927      BINDING AFFINITY PREDICTED BY RF-SCORE:    0.00 PKD
ROOT
HETATM    1  C   UNL     1      -9.681  19.278  69.068  1.00  0.00    -0.453 C  
HETATM    2  C   UNL     1      -8.967  19.098  67.732  1.00  0.00    -0.338 C  
ENDROOT
BRANCH   2   3
HETATM    3  C   UNL     1      -7.636  18.301  67.801  1.00  0.00    -0.227 C  
BRANCH   3   4
HETATM    4  N   UNL     1      -6.451  19.178  67.984  1.00  0.00    -0.225 NA 
HETATM    5  H   UNL     1      -6.148  19.827  67.259  1.00  0.00     0.000 HD 
BRANCH   4   6
HETATM    6  C   UNL     1      -5.738  19.064  69.263  1.00  0.00    -0.215 C  
HETATM    7  C   UNL     1      -5.950  17.643  69.798  1.00  0.00    -0.245 C  
HETATM    8  C   UNL     1      -6.200  20.081  70.307  1.00  0.00    -0.386 C  
ENDBRANCH   4   6
ENDBRANCH   3   4
BRANCH   3   9
HETATM    9  C   UNL     1      -7.462  17.387  66.533  1.00  0.00    -0.280 C  
HETATM   10  H   UNL     1      -7.256  17.621  64.574  1.00  0.00     0.000 HD 
HETATM   11  O   UNL     1      -7.361  18.173  65.340  1.00  0.00    -0.520 OA 
BRANCH   9  12
HETATM   12  C   UNL     1      -8.496  16.271  66.375  1.00  0.00    -0.365 A  
HETATM   13  C   UNL     1      -8.366  14.953  66.878  1.00  0.00    -0.212 A  
HETATM   14  C   UNL     1      -7.145  14.446  67.527  1.00  0.00    -0.197 C  
HETATM   15  C   UNL     1      -7.127  13.254  68.136  1.00  0.00    -0.111 C  
HETATM   16  C   UNL     1      -8.322  12.386  68.151  1.00  0.00    -0.178 C  
HETATM   17  N   UNL     1      -9.396  12.809  67.424  1.00  0.00    -0.187 N  
HETATM   18  O   UNL     1      -8.335  11.333  68.780  1.00  0.00    -0.154 OA 
HETATM   19  H   UNL     1     -10.196  12.182  67.340  1.00  0.00     0.000 HD 
HETATM   20  C   UNL     1      -9.464  14.059  66.783  1.00  0.00    -0.282 A  
HETATM   21  C   UNL     1     -10.631  14.443  66.115  1.00  0.00    -0.298 A  
HETATM   22  O   UNL     1     -11.707  13.613  65.962  1.00  0.00    -0.330 OA 
HETATM   23  C   UNL     1     -10.746  15.714  65.574  1.00  0.00    -0.403 A  
HETATM   24  H   UNL     1     -12.500  13.874  65.509  1.00  0.00     0.000 HD 
HETATM   25  C   UNL     1      -9.695  16.618  65.711  1.00  0.00    -0.194 A  
ENDBRANCH   9  12
ENDBRANCH   3   9
ENDBRANCH   2   3
TORSDOF 5
ENDMDL
MODEL      135
REMARK 921   NORMALIZED FREE ENERGY PREDICTED BY IDOCK:   -4.46 KCAL/MOL
REMARK 922        TOTAL FREE ENERGY PREDICTED BY IDOCK:   -6.61 KCAL/MOL
REMARK 923 INTER-LIGAND FREE ENERGY PREDICTED BY IDOCK:   -5.73 KCAL/MOL
REMARK 924 INTRA-LIGAND FREE ENERGY PREDICTED BY IDOCK:   -0.88 KCAL/MOL
REMARK 927      BINDING AFFINITY PREDICTED BY RF-SCORE:    0.00 PKD
ROOT
HETATM    1  C   UNL     1     -12.360  12.290  70.426  1.00  0.00    -0.309 C  
HETATM    2  C   UNL     1     -11.819  11.870  69.063  1.00  0.00    -0.368 C  
ENDROOT
BRANCH   2   3
HETATM    3  C   UNL     1     -10.443  12.485  68.685  1.00  0.00    -0.200 C  
BRANCH   3   4
HETATM    4  N   UNL     1     -10.451  13.131  67.348  1.00  0.00    -0.241 NA 
HETATM    5  H   UNL     1     -10.471  12.582  66.489  1.00  0.00     0.000 HD 
BRANCH   4   6
HETATM    6  C   UNL     1     -10.428  14.599  67.325  1.00  0.00    -0.266 C  
HETATM    7  C   UNL     1      -9.413  15.040  66.265  1.00  0.00    -0.342 C  
HETATM    8  C   UNL     1     -10.067  15.221  68.674  1.00  0.00    -0.222 C  
ENDBRANCH   4   6
ENDBRANCH   3   4
BRANCH   3   9
HETATM    9  C   UNL     1      -9.302  11.407  68.777  1.00  0.00    -0.106 C  
HETATM   10  H   UNL     1      -7.475  11.139  68.052  1.00  0.00     0.000 HD 
HETATM   11  O   UNL     1      -8.165  11.790  67.997  1.00  0.00    -0.135 OA 
BRANCH   9  12
HETATM   12  C   UNL     1      -9.724   9.968  68.472  1.00  0.00    -0.164 A  
HETATM   13  C   UNL     1     -10.163   9.020  69.428  1.00  0.00    -0.206 A  
HETATM   14  C   UNL     1     -10.158   9.265  70.880  1.00  0.00    -0.373 C  
HETATM   15  C   UNL     1     -10.738   8.410  71.731  1.00  0.00    -0.355 C  
HETATM   16  C   UNL     1     -11.378   7.170  71.248  1.00  0.00    -0.268 C  
HETATM   17  N   UNL     1     -11.247   6.890  69.919  1.00  0.00    -0.386 N  
HETATM   18  O   UNL     1     -11.984   6.427  72.013  1.00  0.00    -0.329 OA 
HETATM   19  H   UNL     1     -11.596   5.992  69.581  1.00  0.00     0.000 HD 
HETATM   20  C   UNL     1     -10.660   7.766  68.989  1.00  0.00    -0.166 A  
HETATM   21  C   UNL     1     -10.630   7.430  67.632  1.00  0.00    -0.239 A  
HETATM   22  O   UNL     1     -11.062   6.225  67.154  1.00  0.00    -0.487 OA 
HETATM   23  C   UNL     1     -10.152   8.333  66.695  1.00  0.00    -0.351 A  
HETATM   24  H   UNL     1     -11.041   5.997  66.232  1.00  0.00     0.000 HD 
HETATM   25  C   UNL     1      -9.714   9.589  67.110  1.00  0.00    -0.221 A  
ENDBRANCH   9  12
ENDBRANCH   3   9
ENDBRANCH   2   3
TORSDOF 5
ENDMDL
MODEL      136
REMARK 921   NORMALIZED FREE ENERGY PREDICTED BY IDOCK:   -4.46 KCAL/MOL
REMARK 922        TOTAL FREE ENERGY PREDICTED BY IDOCK:   -6.61 KCAL/MOL
REMARK 923 INTER-LIGAND FREE ENERGY PREDICTED BY IDOCK:   -5.76 KCAL/MOL
REMARK 924 INTRA-LIGAND FREE ENERGY PREDICTED BY IDOCK:   -0.85 KCAL/MOL
REMARK 927      BINDING AFFINITY PREDICTED BY RF-SCORE:    0.00 PKD
ROOT
HETATM    1  C   UNL     1      -6.887   9.185  68.123  1.00  0.00    -0.068 C  
HETATM    2  C   UNL     1      -8.276   8.586  67.921  1.00  0.00    -0.119 C  
ENDROOT
BRANCH   2   3
HETATM    3  C   UNL     1      -8.955   8.054  69.213  1.00  0.00    -0.148 C  
BRANCH   3   4
HETATM    4  N   UNL     1      -8.352   6.787  69.698  1.00  0.00    -0.131 NA 
HETATM    5  H   UNL     1      -8.368   5.936  69.135  1.00  0.00     0.000 HD 
BRANCH   4   6
HETATM    6  C   UNL     1      -7.729   6.818  71.028  1.00  0.00    -0.097 C  
HETATM    7  C   UNL     1      -7.942   8.217  71.616  1.00  0.00    -0.157 C  
HETATM    8  C   UNL     1      -6.236   6.491  71.005  1.00  0.00    -0.040 C  
ENDBRANCH   4   6
ENDBRANCH   3   4
BRANCH   3   9
HETATM    9  C   UNL     1     -10.505   7.890  69.006  1.00  0.00    -0.198 C  
HETATM   10  H   UNL     1     -11.873   8.438  67.677  1.00  0.00     0.000 HD 
HETATM   11  O   UNL     1     -10.936   8.536  67.803  1.00  0.00    -0.067 OA 
BRANCH   9  12
HETATM   12  C   UNL     1     -11.379   8.293  70.195  1.00  0.00    -0.060 A  
HETATM   13  C   UNL     1     -11.727   9.621  70.546  1.00  0.00    -0.312 A  
HETATM   14  C   UNL     1     -11.185  10.811  69.869  1.00  0.00    -0.371 C  
HETATM   15  C   UNL     1     -11.670  12.033  70.120  1.00  0.00    -0.316 C  
HETATM   16  C   UNL     1     -12.744  12.239  71.111  1.00  0.00    -0.243 C  
HETATM   17  N   UNL     1     -13.132  11.147  71.830  1.00  0.00    -0.478 N  
HETATM   18  O   UNL     1     -13.248  13.344  71.282  1.00  0.00    -0.274 OA 
HETATM   19  H   UNL     1     -13.803  11.284  72.587  1.00  0.00     0.000 HD 
HETATM   20  C   UNL     1     -12.662   9.844  71.589  1.00  0.00    -0.429 A  
HETATM   21  C   UNL     1     -13.166   8.768  72.328  1.00  0.00    -0.412 A  
HETATM   22  O   UNL     1     -14.042   8.924  73.366  1.00  0.00    -1.256 OA 
HETATM   23  C   UNL     1     -12.789   7.469  72.024  1.00  0.00    -0.223 A  
HETATM   24  H   UNL     1     -14.383   8.194  73.867  1.00  0.00     0.000 HD 
HETATM   25  C   UNL     1     -11.914   7.236  70.965  1.00  0.00    -0.362 A  
ENDBRANCH   9  12
ENDBRANCH   3   9
ENDBRANCH   2   3
TORSDOF 5
ENDMDL
MODEL      137
REMARK 921   NORMALIZED FREE ENERGY PREDICTED BY IDOCK:   -4.44 KCAL/MOL
REMARK 922        TOTAL FREE ENERGY PREDICTED BY IDOCK:   -6.59 KCAL/MOL
REMARK 923 INTER-LIGAND FREE ENERGY PREDICTED BY IDOCK:   -6.93 KCAL/MOL
REMARK 924 INTRA-LIGAND FREE ENERGY PREDICTED BY IDOCK:    0.34 KCAL/MOL
REMARK 927      BINDING AFFINITY PREDICTED BY RF-SCORE:    0.00 PKD
ROOT
HETATM    1  C   UNL     1      -9.848  13.708  66.411  1.00  0.00    -0.302 C  
HETATM    2  C   UNL     1     -10.437  13.244  67.740  1.00  0.00    -0.242 C  
ENDROOT
BRANCH   2   3
HETATM    3  C   UNL     1      -9.792  11.960  68.331  1.00  0.00    -0.201 C  
BRANCH   3   4
HETATM    4  N   UNL     1      -8.548  11.565  67.625  1.00  0.00    -0.132 NA 
HETATM    5  H   UNL     1      -8.278  11.991  66.738  1.00  0.00     0.000 HD 
BRANCH   4   6
HETATM    6  C   UNL     1      -7.726  10.530  68.265  1.00  0.00    -0.101 C  
HETATM    7  C   UNL     1      -6.254  10.888  68.037  1.00  0.00    -0.053 C  
HETATM    8  C   UNL     1      -8.002   9.123  67.734  1.00  0.00    -0.101 C  
ENDBRANCH   4   6
ENDBRANCH   3   4
BRANCH   3   9
HETATM    9  C   UNL     1     -10.823  10.773  68.352  1.00  0.00    -0.232 C  
HETATM   10  H   UNL     1     -12.397  10.178  67.300  1.00  0.00     0.000 HD 
HETATM   11  O   UNL     1     -11.774  10.895  67.287  1.00  0.00    -0.458 OA 
BRANCH   9  12
HETATM   12  C   UNL     1     -11.521  10.525  69.691  1.00  0.00    -0.349 A  
HETATM   13  C   UNL     1     -12.119  11.520  70.503  1.00  0.00    -0.472 A  
HETATM   14  C   UNL     1     -12.040  12.962  70.215  1.00  0.00    -0.377 C  
HETATM   15  C   UNL     1     -12.760  13.849  70.913  1.00  0.00    -0.410 C  
HETATM   16  C   UNL     1     -13.637  13.419  72.020  1.00  0.00    -0.487 C  
HETATM   17  N   UNL     1     -13.587  12.100  72.364  1.00  0.00    -0.518 N  
HETATM   18  O   UNL     1     -14.361  14.217  72.604  1.00  0.00    -0.555 OA 
HETATM   19  H   UNL     1     -14.109  11.798  73.187  1.00  0.00     0.000 HD 
HETATM   20  C   UNL     1     -12.858  11.132  71.651  1.00  0.00    -0.419 A  
HETATM   21  C   UNL     1     -12.917   9.787  72.030  1.00  0.00    -0.423 A  
HETATM   22  O   UNL     1     -13.584   9.358  73.144  1.00  0.00    -0.748 OA 
HETATM   23  C   UNL     1     -12.291   8.813  71.269  1.00  0.00    -0.313 A  
HETATM   24  H   UNL     1     -13.624   8.445  73.403  1.00  0.00     0.000 HD 
HETATM   25  C   UNL     1     -11.609   9.178  70.110  1.00  0.00    -0.041 A  
ENDBRANCH   9  12
ENDBRANCH   3   9
ENDBRANCH   2   3
TORSDOF 5
ENDMDL
MODEL      138
REMARK 921   NORMALIZED FREE ENERGY PREDICTED BY IDOCK:   -4.44 KCAL/MOL
REMARK 922        TOTAL FREE ENERGY PREDICTED BY IDOCK:   -6.59 KCAL/MOL
REMARK 923 INTER-LIGAND FREE ENERGY PREDICTED BY IDOCK:   -6.22 KCAL/MOL
REMARK 924 INTRA-LIGAND FREE ENERGY PREDICTED BY IDOCK:   -0.37 KCAL/MOL
REMARK 927      BINDING AFFINITY PREDICTED BY RF-SCORE:    0.00 PKD
ROOT
HETATM    1  C   UNL     1     -10.766  19.831  67.448  1.00  0.00    -0.515 C  
HETATM    2  C   UNL     1     -10.264  18.670  66.595  1.00  0.00    -0.441 C  
ENDROOT
BRANCH   2   3
HETATM    3  C   UNL     1      -9.718  17.455  67.395  1.00  0.00    -0.269 C  
BRANCH   3   4
HETATM    4  N   UNL     1      -8.335  17.669  67.890  1.00  0.00    -0.230 NA 
HETATM    5  H   UNL     1      -8.070  17.448  68.850  1.00  0.00     0.000 HD 
BRANCH   4   6
HETATM    6  C   UNL     1      -7.367  18.214  66.929  1.00  0.00    -0.204 C  
HETATM    7  C   UNL     1      -6.215  17.212  66.798  1.00  0.00    -0.244 C  
HETATM    8  C   UNL     1      -6.816  19.582  67.335  1.00  0.00    -0.223 C  
ENDBRANCH   4   6
ENDBRANCH   3   4
BRANCH   3   9
HETATM    9  C   UNL     1      -9.808  16.137  66.544  1.00  0.00    -0.267 C  
HETATM   10  H   UNL     1     -10.863  15.449  65.010  1.00  0.00     0.000 HD 
HETATM   11  O   UNL     1     -10.808  16.246  65.525  1.00  0.00    -0.320 OA 
BRANCH   9  12
HETATM   12  C   UNL     1      -9.971  14.842  67.342  1.00  0.00    -0.223 A  
HETATM   13  C   UNL     1     -10.781  14.683  68.494  1.00  0.00    -0.248 A  
HETATM   14  C   UNL     1     -11.491  15.794  69.150  1.00  0.00    -0.383 C  
HETATM   15  C   UNL     1     -12.377  15.571  70.128  1.00  0.00    -0.384 C  
HETATM   16  C   UNL     1     -12.652  14.203  70.610  1.00  0.00    -0.351 C  
HETATM   17  N   UNL     1     -11.883  13.203  70.091  1.00  0.00    -0.496 N  
HETATM   18  O   UNL     1     -13.523  13.986  71.446  1.00  0.00    -0.335 OA 
HETATM   19  H   UNL     1     -11.988  12.265  70.479  1.00  0.00     0.000 HD 
HETATM   20  C   UNL     1     -10.953  13.390  69.053  1.00  0.00    -0.224 A  
HETATM   21  C   UNL     1     -10.255  12.297  68.530  1.00  0.00    -0.206 A  
HETATM   22  O   UNL     1     -10.353  11.036  69.048  1.00  0.00    -0.208 OA 
HETATM   23  C   UNL     1      -9.419  12.454  67.436  1.00  0.00    -0.186 A  
HETATM   24  H   UNL     1      -9.879  10.293  68.694  1.00  0.00     0.000 HD 
HETATM   25  C   UNL     1      -9.287  13.710  66.845  1.00  0.00    -0.261 A  
ENDBRANCH   9  12
ENDBRANCH   3   9
ENDBRANCH   2   3
TORSDOF 5
ENDMDL
MODEL      139
REMARK 921   NORMALIZED FREE ENERGY PREDICTED BY IDOCK:   -4.44 KCAL/MOL
REMARK 922        TOTAL FREE ENERGY PREDICTED BY IDOCK:   -6.59 KCAL/MOL
REMARK 923 INTER-LIGAND FREE ENERGY PREDICTED BY IDOCK:   -6.14 KCAL/MOL
REMARK 924 INTRA-LIGAND FREE ENERGY PREDICTED BY IDOCK:   -0.45 KCAL/MOL
REMARK 927      BINDING AFFINITY PREDICTED BY RF-SCORE:    0.00 PKD
ROOT
HETATM    1  C   UNL     1     -13.686  15.533  72.029  1.00  0.00    -0.599 C  
HETATM    2  C   UNL     1     -13.123  15.313  70.628  1.00  0.00    -0.407 C  
ENDROOT
BRANCH   2   3
HETATM    3  C   UNL     1     -11.658  14.798  70.584  1.00  0.00    -0.272 C  
BRANCH   3   4
HETATM    4  N   UNL     1     -10.678  15.880  70.316  1.00  0.00    -0.321 NA 
HETATM    5  H   UNL     1     -10.459  16.590  71.016  1.00  0.00     0.000 HD 
BRANCH   4   6
HETATM    6  C   UNL     1     -10.038  15.879  68.994  1.00  0.00    -0.228 C  
HETATM    7  C   UNL     1      -8.542  16.141  69.192  1.00  0.00    -0.235 C  
HETATM    8  C   UNL     1     -10.621  16.920  68.038  1.00  0.00    -0.367 C  
ENDBRANCH   4   6
ENDBRANCH   3   4
BRANCH   3   9
HETATM    9  C   UNL     1     -11.504  13.635  69.538  1.00  0.00    -0.263 C  
HETATM   10  H   UNL     1     -12.255  13.144  67.768  1.00  0.00     0.000 HD 
HETATM   11  O   UNL     1     -12.348  13.847  68.400  1.00  0.00    -0.261 OA 
BRANCH   9  12
HETATM   12  C   UNL     1     -11.669  12.218  70.092  1.00  0.00    -0.280 A  
HETATM   13  C   UNL     1     -10.822  11.120  69.806  1.00  0.00    -0.152 A  
HETATM   14  C   UNL     1      -9.723  11.172  68.827  1.00  0.00    -0.194 C  
HETATM   15  C   UNL     1      -8.846  10.167  68.714  1.00  0.00    -0.146 C  
HETATM   16  C   UNL     1      -8.966   8.952  69.544  1.00  0.00    -0.145 C  
HETATM   17  N   UNL     1     -10.070   8.861  70.340  1.00  0.00    -0.187 N  
HETATM   18  O   UNL     1      -8.117   8.068  69.504  1.00  0.00    -0.115 OA 
HETATM   19  H   UNL     1     -10.224   7.990  70.849  1.00  0.00     0.000 HD 
HETATM   20  C   UNL     1     -11.007   9.897  70.501  1.00  0.00    -0.326 A  
HETATM   21  C   UNL     1     -12.073   9.746  71.393  1.00  0.00    -0.400 A  
HETATM   22  O   UNL     1     -12.322   8.582  72.065  1.00  0.00    -0.320 OA 
HETATM   23  C   UNL     1     -12.939  10.801  71.639  1.00  0.00    -0.581 A  
HETATM   24  H   UNL     1     -13.047   8.479  72.670  1.00  0.00     0.000 HD 
HETATM   25  C   UNL     1     -12.732  12.023  71.003  1.00  0.00    -0.337 A  
ENDBRANCH   9  12
ENDBRANCH   3   9
ENDBRANCH   2   3
TORSDOF 5
ENDMDL
MODEL      140
REMARK 921   NORMALIZED FREE ENERGY PREDICTED BY IDOCK:   -4.44 KCAL/MOL
REMARK 922        TOTAL FREE ENERGY PREDICTED BY IDOCK:   -6.58 KCAL/MOL
REMARK 923 INTER-LIGAND FREE ENERGY PREDICTED BY IDOCK:   -6.06 KCAL/MOL
REMARK 924 INTRA-LIGAND FREE ENERGY PREDICTED BY IDOCK:   -0.53 KCAL/MOL
REMARK 927      BINDING AFFINITY PREDICTED BY RF-SCORE:    0.00 PKD
ROOT
HETATM    1  C   UNL     1      -8.541   9.498  70.263  1.00  0.00    -0.258 C  
HETATM    2  C   UNL     1      -7.830  10.415  69.272  1.00  0.00    -0.147 C  
ENDROOT
BRANCH   2   3
HETATM    3  C   UNL     1      -8.665  10.800  68.020  1.00  0.00    -0.132 C  
BRANCH   3   4
HETATM    4  N   UNL     1      -7.820  11.227  66.877  1.00  0.00    -0.150 NA 
HETATM    5  H   UNL     1      -7.205  12.038  66.939  1.00  0.00     0.000 HD 
BRANCH   4   6
HETATM    6  C   UNL     1      -7.914  10.423  65.651  1.00  0.00    -0.153 C  
HETATM    7  C   UNL     1      -8.788   9.201  65.952  1.00  0.00    -0.209 C  
HETATM    8  C   UNL     1      -6.555   9.966  65.120  1.00  0.00    -0.105 C  
ENDBRANCH   4   6
ENDBRANCH   3   4
BRANCH   3   9
HETATM    9  C   UNL     1      -9.726  11.905  68.372  1.00  0.00    -0.201 C  
HETATM   10  H   UNL     1     -11.679  12.010  68.710  1.00  0.00     0.000 HD 
HETATM   11  O   UNL     1     -11.037  11.342  68.497  1.00  0.00    -0.199 OA 
BRANCH   9  12
HETATM   12  C   UNL     1      -9.736  13.131  67.456  1.00  0.00    -0.213 A  
HETATM   13  C   UNL     1     -10.376  13.209  66.195  1.00  0.00    -0.287 A  
HETATM   14  C   UNL     1     -11.026  12.062  65.539  1.00  0.00    -0.345 C  
HETATM   15  C   UNL     1     -11.761  12.221  64.432  1.00  0.00    -0.437 C  
HETATM   16  C   UNL     1     -11.923  13.549  63.807  1.00  0.00    -0.422 C  
HETATM   17  N   UNL     1     -11.199  14.572  64.345  1.00  0.00    -0.613 N  
HETATM   18  O   UNL     1     -12.664  13.712  62.844  1.00  0.00    -0.577 OA 
HETATM   19  H   UNL     1     -11.219  15.475  63.872  1.00  0.00     0.000 HD 
HETATM   20  C   UNL     1     -10.426  14.453  65.515  1.00  0.00    -0.350 A  
HETATM   21  C   UNL     1      -9.770  15.571  66.039  1.00  0.00    -0.345 A  
HETATM   22  O   UNL     1      -9.755  16.786  65.411  1.00  0.00    -0.510 OA 
HETATM   23  C   UNL     1      -9.097  15.490  67.247  1.00  0.00    -0.215 A  
HETATM   24  H   UNL     1      -9.309  17.545  65.767  1.00  0.00     0.000 HD 
HETATM   25  C   UNL     1      -9.089  14.286  67.950  1.00  0.00    -0.190 A  
ENDBRANCH   9  12
ENDBRANCH   3   9
ENDBRANCH   2   3
TORSDOF 5
ENDMDL
MODEL      141
REMARK 921   NORMALIZED FREE ENERGY PREDICTED BY IDOCK:   -4.44 KCAL/MOL
REMARK 922        TOTAL FREE ENERGY PREDICTED BY IDOCK:   -6.58 KCAL/MOL
REMARK 923 INTER-LIGAND FREE ENERGY PREDICTED BY IDOCK:   -6.34 KCAL/MOL
REMARK 924 INTRA-LIGAND FREE ENERGY PREDICTED BY IDOCK:   -0.24 KCAL/MOL
REMARK 927      BINDING AFFINITY PREDICTED BY RF-SCORE:    0.00 PKD
ROOT
HETATM    1  C   UNL     1      -7.679   8.311  69.275  1.00  0.00    -0.103 C  
HETATM    2  C   UNL     1      -9.172   8.235  69.580  1.00  0.00    -0.158 C  
ENDROOT
BRANCH   2   3
HETATM    3  C   UNL     1      -9.918   9.597  69.547  1.00  0.00    -0.209 C  
BRANCH   3   4
HETATM    4  N   UNL     1     -10.576   9.922  70.837  1.00  0.00    -0.350 NA 
HETATM    5  H   UNL     1     -10.423  10.815  71.305  1.00  0.00     0.000 HD 
BRANCH   4   6
HETATM    6  C   UNL     1     -11.459   8.895  71.405  1.00  0.00    -0.311 C  
HETATM    7  C   UNL     1     -12.782   9.566  71.786  1.00  0.00    -0.492 C  
HETATM    8  C   UNL     1     -10.866   8.196  72.629  1.00  0.00    -0.429 C  
ENDBRANCH   4   6
ENDBRANCH   3   4
BRANCH   3   9
HETATM    9  C   UNL     1     -10.955   9.639  68.365  1.00  0.00    -0.113 C  
HETATM   10  H   UNL     1     -11.507   8.477  66.855  1.00  0.00     0.000 HD 
HETATM   11  O   UNL     1     -10.881   8.451  67.569  1.00  0.00    -0.191 OA 
BRANCH   9  12
HETATM   12  C   UNL     1     -10.913  10.895  67.492  1.00  0.00    -0.352 A  
HETATM   13  C   UNL     1     -10.269  10.999  66.234  1.00  0.00    -0.295 A  
HETATM   14  C   UNL     1      -9.442   9.929  65.651  1.00  0.00    -0.295 C  
HETATM   15  C   UNL     1      -8.996  10.006  64.391  1.00  0.00    -0.265 C  
HETATM   16  C   UNL     1      -9.287  11.182  63.548  1.00  0.00    -0.236 C  
HETATM   17  N   UNL     1      -9.930  12.224  64.151  1.00  0.00    -0.520 N  
HETATM   18  O   UNL     1      -8.953  11.219  62.369  1.00  0.00    -0.321 OA 
HETATM   19  H   UNL     1     -10.056  13.084  63.617  1.00  0.00     0.000 HD 
HETATM   20  C   UNL     1     -10.430  12.180  65.464  1.00  0.00    -0.265 A  
HETATM   21  C   UNL     1     -11.140  13.268  65.982  1.00  0.00    -0.283 A  
HETATM   22  O   UNL     1     -11.299  14.444  65.301  1.00  0.00    -0.322 OA 
HETATM   23  C   UNL     1     -11.729  13.193  67.234  1.00  0.00    -0.425 A  
HETATM   24  H   UNL     1     -11.781  15.183  65.652  1.00  0.00     0.000 HD 
HETATM   25  C   UNL     1     -11.624  12.017  67.974  1.00  0.00    -0.407 A  
ENDBRANCH   9  12
ENDBRANCH   3   9
ENDBRANCH   2   3
TORSDOF 5
ENDMDL
MODEL      142
REMARK 921   NORMALIZED FREE ENERGY PREDICTED BY IDOCK:   -4.43 KCAL/MOL
REMARK 922        TOTAL FREE ENERGY PREDICTED BY IDOCK:   -6.58 KCAL/MOL
REMARK 923 INTER-LIGAND FREE ENERGY PREDICTED BY IDOCK:   -5.52 KCAL/MOL
REMARK 924 INTRA-LIGAND FREE ENERGY PREDICTED BY IDOCK:   -1.07 KCAL/MOL
REMARK 927      BINDING AFFINITY PREDICTED BY RF-SCORE:    0.00 PKD
ROOT
HETATM    1  C   UNL     1     -12.180  15.191  72.594  1.00  0.00    -0.482 C  
HETATM    2  C   UNL     1     -12.121  15.620  71.131  1.00  0.00    -0.454 C  
ENDROOT
BRANCH   2   3
HETATM    3  C   UNL     1     -11.751  14.491  70.131  1.00  0.00    -0.297 C  
BRANCH   3   4
HETATM    4  N   UNL     1     -11.414  13.213  70.807  1.00  0.00    -0.002 NA 
HETATM    5  H   UNL     1     -10.642  13.145  71.470  1.00  0.00     0.000 HD 
BRANCH   4   6
HETATM    6  C   UNL     1     -12.249  12.051  70.474  1.00  0.00    -0.325 C  
HETATM    7  C   UNL     1     -12.653  11.367  71.784  1.00  0.00    -0.241 C  
HETATM    8  C   UNL     1     -11.547  11.042  69.563  1.00  0.00    -0.384 C  
ENDBRANCH   4   6
ENDBRANCH   3   4
BRANCH   3   9
HETATM    9  C   UNL     1     -10.583  14.944  69.181  1.00  0.00    -0.246 C  
HETATM   10  H   UNL     1      -9.906  16.633  68.390  1.00  0.00     0.000 HD 
HETATM   11  O   UNL     1     -10.612  16.359  68.964  1.00  0.00    -0.265 OA 
BRANCH   9  12
HETATM   12  C   UNL     1     -10.473  14.184  67.857  1.00  0.00    -0.237 A  
HETATM   13  C   UNL     1      -9.422  13.302  67.501  1.00  0.00    -0.220 A  
HETATM   14  C   UNL     1      -8.221  13.091  68.326  1.00  0.00    -0.150 C  
HETATM   15  C   UNL     1      -7.340  12.126  68.034  1.00  0.00    -0.105 C  
HETATM   16  C   UNL     1      -7.522  11.257  66.855  1.00  0.00    -0.145 C  
HETATM   17  N   UNL     1      -8.561  11.560  66.025  1.00  0.00    -0.349 N  
HETATM   18  O   UNL     1      -6.764  10.319  66.634  1.00  0.00    -0.075 OA 
HETATM   19  H   UNL     1      -8.649  11.035  65.155  1.00  0.00     0.000 HD 
HETATM   20  C   UNL     1      -9.519  12.553  66.300  1.00  0.00    -0.210 A  
HETATM   21  C   UNL     1     -10.594  12.751  65.428  1.00  0.00    -0.287 A  
HETATM   22  O   UNL     1     -10.721  12.085  64.241  1.00  0.00    -0.288 OA 
HETATM   23  C   UNL     1     -11.599  13.651  65.745  1.00  0.00    -0.349 A  
HETATM   24  H   UNL     1     -11.452  12.220  63.649  1.00  0.00     0.000 HD 
HETATM   25  C   UNL     1     -11.542  14.351  66.949  1.00  0.00    -0.404 A  
ENDBRANCH   9  12
ENDBRANCH   3   9
ENDBRANCH   2   3
TORSDOF 5
ENDMDL
MODEL      143
REMARK 921   NORMALIZED FREE ENERGY PREDICTED BY IDOCK:   -4.42 KCAL/MOL
REMARK 922        TOTAL FREE ENERGY PREDICTED BY IDOCK:   -6.56 KCAL/MOL
REMARK 923 INTER-LIGAND FREE ENERGY PREDICTED BY IDOCK:   -6.07 KCAL/MOL
REMARK 924 INTRA-LIGAND FREE ENERGY PREDICTED BY IDOCK:   -0.49 KCAL/MOL
REMARK 927      BINDING AFFINITY PREDICTED BY RF-SCORE:    0.00 PKD
ROOT
HETATM    1  C   UNL     1     -12.303  14.305  64.961  1.00  0.00    -0.434 C  
HETATM    2  C   UNL     1     -12.564  12.970  65.651  1.00  0.00    -0.349 C  
ENDROOT
BRANCH   2   3
HETATM    3  C   UNL     1     -11.290  12.172  66.041  1.00  0.00    -0.358 C  
BRANCH   3   4
HETATM    4  N   UNL     1     -11.186  10.874  65.329  1.00  0.00     0.156 NA 
HETATM    5  H   UNL     1     -11.986  10.460  64.851  1.00  0.00     0.000 HD 
BRANCH   4   6
HETATM    6  C   UNL     1      -9.873  10.215  65.348  1.00  0.00    -0.307 C  
HETATM    7  C   UNL     1      -9.970   8.991  66.265  1.00  0.00    -0.352 C  
HETATM    8  C   UNL     1      -8.744  11.127  65.826  1.00  0.00    -0.153 C  
ENDBRANCH   4   6
ENDBRANCH   3   4
BRANCH   3   9
HETATM    9  C   UNL     1     -11.213  11.963  67.597  1.00  0.00    -0.276 C  
HETATM   10  H   UNL     1     -12.189  10.940  68.990  1.00  0.00     0.000 HD 
HETATM   11  O   UNL     1     -12.235  11.067  68.049  1.00  0.00    -0.520 OA 
BRANCH   9  12
HETATM   12  C   UNL     1     -11.187  13.241  68.438  1.00  0.00    -0.314 A  
HETATM   13  C   UNL     1     -10.321  14.343  68.230  1.00  0.00    -0.239 A  
HETATM   14  C   UNL     1      -9.236  14.350  67.235  1.00  0.00    -0.214 C  
HETATM   15  C   UNL     1      -8.556  15.470  66.958  1.00  0.00    -0.262 C  
HETATM   16  C   UNL     1      -8.846  16.734  67.664  1.00  0.00    -0.205 C  
HETATM   17  N   UNL     1      -9.754  16.673  68.680  1.00  0.00    -0.238 N  
HETATM   18  O   UNL     1      -8.285  17.778  67.353  1.00  0.00    -0.210 OA 
HETATM   19  H   UNL     1      -9.899  17.511  69.245  1.00  0.00     0.000 HD 
HETATM   20  C   UNL     1     -10.502  15.525  68.995  1.00  0.00    -0.231 A  
HETATM   21  C   UNL     1     -11.463  15.569  70.009  1.00  0.00    -0.331 A  
HETATM   22  O   UNL     1     -11.658  16.667  70.801  1.00  0.00    -0.527 OA 
HETATM   23  C   UNL     1     -12.280  14.476  70.253  1.00  0.00    -0.391 A  
HETATM   24  H   UNL     1     -12.312  16.697  71.490  1.00  0.00     0.000 HD 
HETATM   25  C   UNL     1     -12.148  13.330  69.471  1.00  0.00    -0.315 A  
ENDBRANCH   9  12
ENDBRANCH   3   9
ENDBRANCH   2   3
TORSDOF 5
ENDMDL
MODEL      144
REMARK 921   NORMALIZED FREE ENERGY PREDICTED BY IDOCK:   -4.41 KCAL/MOL
REMARK 922        TOTAL FREE ENERGY PREDICTED BY IDOCK:   -6.55 KCAL/MOL
REMARK 923 INTER-LIGAND FREE ENERGY PREDICTED BY IDOCK:   -5.61 KCAL/MOL
REMARK 924 INTRA-LIGAND FREE ENERGY PREDICTED BY IDOCK:   -0.94 KCAL/MOL
REMARK 927      BINDING AFFINITY PREDICTED BY RF-SCORE:    0.00 PKD
ROOT
HETATM    1  C   UNL     1     -12.994  10.692  71.543  1.00  0.00    -0.566 C  
HETATM    2  C   UNL     1     -12.038   9.566  71.927  1.00  0.00    -0.409 C  
ENDROOT
BRANCH   2   3
HETATM    3  C   UNL     1     -11.471   8.752  70.732  1.00  0.00    -0.270 C  
BRANCH   3   4
HETATM    4  N   UNL     1     -11.607   9.463  69.436  1.00  0.00    -0.367 NA 
HETATM    5  H   UNL     1     -12.455   9.391  68.873  1.00  0.00     0.000 HD 
BRANCH   4   6
HETATM    6  C   UNL     1     -10.462  10.275  69.006  1.00  0.00    -0.217 C  
HETATM    7  C   UNL     1     -10.994  11.419  68.135  1.00  0.00    -0.284 C  
HETATM    8  C   UNL     1      -9.414   9.480  68.226  1.00  0.00    -0.143 C  
ENDBRANCH   4   6
ENDBRANCH   3   4
BRANCH   3   9
HETATM    9  C   UNL     1     -12.134   7.328  70.659  1.00  0.00    -0.186 C  
HETATM   10  H   UNL     1     -13.374   6.229  71.752  1.00  0.00     0.000 HD 
HETATM   11  O   UNL     1     -12.973   7.089  71.795  1.00  0.00    -0.359 OA 
BRANCH   9  12
HETATM   12  C   UNL     1     -11.173   6.160  70.427  1.00  0.00    -0.423 A  
HETATM   13  C   UNL     1     -10.692   5.730  69.166  1.00  0.00    -0.370 A  
HETATM   14  C   UNL     1     -11.157   6.287  67.884  1.00  0.00    -0.360 C  
HETATM   15  C   UNL     1     -10.555   5.971  66.731  1.00  0.00    -0.359 C  
HETATM   16  C   UNL     1      -9.421   5.026  66.696  1.00  0.00    -0.146 C  
HETATM   17  N   UNL     1      -9.098   4.412  67.871  1.00  0.00    -0.120 N  
HETATM   18  O   UNL     1      -8.813   4.800  65.655  1.00  0.00    -0.126 OA 
HETATM   19  H   UNL     1      -8.383   3.684  67.852  1.00  0.00     0.000 HD 
HETATM   20  C   UNL     1      -9.693   4.725  69.106  1.00  0.00    -0.188 A  
HETATM   21  C   UNL     1      -9.253   4.097  70.276  1.00  0.00    -0.135 A  
HETATM   22  O   UNL     1      -8.319   3.098  70.277  1.00  0.00    -0.048 OA 
HETATM   23  C   UNL     1      -9.757   4.476  71.510  1.00  0.00    -0.243 A  
HETATM   24  H   UNL     1      -8.020   2.671  71.071  1.00  0.00     0.000 HD 
HETATM   25  C   UNL     1     -10.698   5.501  71.584  1.00  0.00    -0.296 A  
ENDBRANCH   9  12
ENDBRANCH   3   9
ENDBRANCH   2   3
TORSDOF 5
ENDMDL
MODEL      145
REMARK 921   NORMALIZED FREE ENERGY PREDICTED BY IDOCK:   -4.40 KCAL/MOL
REMARK 922        TOTAL FREE ENERGY PREDICTED BY IDOCK:   -6.54 KCAL/MOL
REMARK 923 INTER-LIGAND FREE ENERGY PREDICTED BY IDOCK:   -5.82 KCAL/MOL
REMARK 924 INTRA-LIGAND FREE ENERGY PREDICTED BY IDOCK:   -0.72 KCAL/MOL
REMARK 927      BINDING AFFINITY PREDICTED BY RF-SCORE:    0.00 PKD
ROOT
HETATM    1  C   UNL     1      -7.241  16.646  66.707  1.00  0.00    -0.272 C  
HETATM    2  C   UNL     1      -8.460  16.022  66.033  1.00  0.00    -0.097 C  
ENDROOT
BRANCH   2   3
HETATM    3  C   UNL     1      -9.824  16.640  66.445  1.00  0.00    -0.292 C  
BRANCH   3   4
HETATM    4  N   UNL     1      -9.697  17.637  67.537  1.00  0.00    -0.274 NA 
HETATM    5  H   UNL     1      -9.519  17.354  68.501  1.00  0.00     0.000 HD 
BRANCH   4   6
HETATM    6  C   UNL     1      -9.840  19.049  67.162  1.00  0.00    -0.324 C  
HETATM    7  C   UNL     1     -10.523  19.781  68.322  1.00  0.00    -0.449 C  
HETATM    8  C   UNL     1     -10.645  19.257  65.878  1.00  0.00    -0.521 C  
ENDBRANCH   4   6
ENDBRANCH   3   4
BRANCH   3   9
HETATM    9  C   UNL     1     -10.854  15.517  66.831  1.00  0.00    -0.301 C  
HETATM   10  H   UNL     1     -12.271  15.230  68.191  1.00  0.00     0.000 HD 
HETATM   11  O   UNL     1     -11.649  15.909  67.956  1.00  0.00    -0.296 OA 
BRANCH   9  12
HETATM   12  C   UNL     1     -10.266  14.118  67.030  1.00  0.00    -0.260 A  
HETATM   13  C   UNL     1     -10.199  13.107  66.040  1.00  0.00    -0.287 A  
HETATM   14  C   UNL     1     -10.803  13.233  64.704  1.00  0.00    -0.396 C  
HETATM   15  C   UNL     1     -10.569  12.327  63.747  1.00  0.00    -0.488 C  
HETATM   16  C   UNL     1      -9.721  11.146  64.006  1.00  0.00    -0.283 C  
HETATM   17  N   UNL     1      -9.288  10.971  65.288  1.00  0.00    -0.211 N  
HETATM   18  O   UNL     1      -9.436  10.359  63.110  1.00  0.00    -0.289 OA 
HETATM   19  H   UNL     1      -8.784  10.113  65.512  1.00  0.00     0.000 HD 
HETATM   20  C   UNL     1      -9.497  11.905  66.319  1.00  0.00    -0.227 A  
HETATM   21  C   UNL     1      -8.959  11.680  67.589  1.00  0.00    -0.166 A  
HETATM   22  O   UNL     1      -8.304  10.528  67.926  1.00  0.00    -0.113 OA 
HETATM   23  C   UNL     1      -9.066  12.643  68.580  1.00  0.00    -0.052 A  
HETATM   24  H   UNL     1      -7.938  10.375  68.789  1.00  0.00     0.000 HD 
HETATM   25  C   UNL     1      -9.705  13.850  68.299  1.00  0.00    -0.223 A  
ENDBRANCH   9  12
ENDBRANCH   3   9
ENDBRANCH   2   3
TORSDOF 5
ENDMDL
MODEL      146
REMARK 921   NORMALIZED FREE ENERGY PREDICTED BY IDOCK:   -4.38 KCAL/MOL
REMARK 922        TOTAL FREE ENERGY PREDICTED BY IDOCK:   -6.51 KCAL/MOL
REMARK 923 INTER-LIGAND FREE ENERGY PREDICTED BY IDOCK:   -5.49 KCAL/MOL
REMARK 924 INTRA-LIGAND FREE ENERGY PREDICTED BY IDOCK:   -1.02 KCAL/MOL
REMARK 927      BINDING AFFINITY PREDICTED BY RF-SCORE:    0.00 PKD
ROOT
HETATM    1  C   UNL     1      -8.435   5.723  69.502  1.00  0.00    -0.112 C  
HETATM    2  C   UNL     1      -9.376   5.953  70.681  1.00  0.00    -0.181 C  
ENDROOT
BRANCH   2   3
HETATM    3  C   UNL     1      -8.681   6.039  72.068  1.00  0.00    -0.136 C  
BRANCH   3   4
HETATM    4  N   UNL     1      -9.063   4.926  72.972  1.00  0.00    -0.118 NA 
HETATM    5  H   UNL     1      -8.560   4.746  73.841  1.00  0.00     0.000 HD 
BRANCH   4   6
HETATM    6  C   UNL     1     -10.202   4.098  72.554  1.00  0.00    -0.174 C  
HETATM    7  C   UNL     1     -11.403   4.467  73.431  1.00  0.00    -0.376 C  
HETATM    8  C   UNL     1      -9.930   2.597  72.660  1.00  0.00    -0.219 C  
ENDBRANCH   4   6
ENDBRANCH   3   4
BRANCH   3   9
HETATM    9  C   UNL     1      -8.958   7.430  72.748  1.00  0.00    -0.140 C  
HETATM   10  H   UNL     1      -9.277   8.132  74.576  1.00  0.00     0.000 HD 
HETATM   11  O   UNL     1      -9.110   7.291  74.165  1.00  0.00    -0.214 OA 
BRANCH   9  12
HETATM   12  C   UNL     1     -10.103   8.246  72.145  1.00  0.00    -0.344 A  
HETATM   13  C   UNL     1      -9.983   9.159  71.069  1.00  0.00    -0.367 A  
HETATM   14  C   UNL     1      -8.697   9.535  70.458  1.00  0.00    -0.247 C  
HETATM   15  C   UNL     1      -8.648  10.267  69.338  1.00  0.00    -0.167 C  
HETATM   16  C   UNL     1      -9.882  10.754  68.690  1.00  0.00    -0.184 C  
HETATM   17  N   UNL     1     -11.054  10.518  69.347  1.00  0.00    -0.240 N  
HETATM   18  O   UNL     1      -9.845  11.351  67.619  1.00  0.00    -0.173 OA 
HETATM   19  H   UNL     1     -11.908  10.929  68.969  1.00  0.00     0.000 HD 
HETATM   20  C   UNL     1     -11.153   9.742  70.516  1.00  0.00    -0.321 A  
HETATM   21  C   UNL     1     -12.405   9.491  71.087  1.00  0.00    -0.326 A  
HETATM   22  O   UNL     1     -13.561  10.051  70.620  1.00  0.00    -0.526 OA 
HETATM   23  C   UNL     1     -12.524   8.640  72.174  1.00  0.00    -0.453 A  
HETATM   24  H   UNL     1     -14.411   9.881  71.008  1.00  0.00     0.000 HD 
HETATM   25  C   UNL     1     -11.387   8.019  72.690  1.00  0.00    -0.469 A  
ENDBRANCH   9  12
ENDBRANCH   3   9
ENDBRANCH   2   3
TORSDOF 5
ENDMDL
MODEL      147
REMARK 921   NORMALIZED FREE ENERGY PREDICTED BY IDOCK:   -4.38 KCAL/MOL
REMARK 922        TOTAL FREE ENERGY PREDICTED BY IDOCK:   -6.51 KCAL/MOL
REMARK 923 INTER-LIGAND FREE ENERGY PREDICTED BY IDOCK:   -5.73 KCAL/MOL
REMARK 924 INTRA-LIGAND FREE ENERGY PREDICTED BY IDOCK:   -0.78 KCAL/MOL
REMARK 927      BINDING AFFINITY PREDICTED BY RF-SCORE:    0.00 PKD
ROOT
HETATM    1  C   UNL     1     -12.362  12.414  63.354  1.00  0.00    -0.603 C  
HETATM    2  C   UNL     1     -11.384  11.390  63.923  1.00  0.00    -0.302 C  
ENDROOT
BRANCH   2   3
HETATM    3  C   UNL     1     -10.525  11.894  65.114  1.00  0.00    -0.287 C  
BRANCH   3   4
HETATM    4  N   UNL     1      -9.993  13.264  64.899  1.00  0.00    -0.568 NA 
HETATM    5  H   UNL     1      -9.577  13.543  64.011  1.00  0.00     0.000 HD 
BRANCH   4   6
HETATM    6  C   UNL     1     -10.098  14.197  66.029  1.00  0.00    -0.316 C  
HETATM    7  C   UNL     1     -11.487  14.028  66.655  1.00  0.00    -0.377 C  
HETATM    8  C   UNL     1      -9.889  15.658  65.629  1.00  0.00    -0.369 C  
ENDBRANCH   4   6
ENDBRANCH   3   4
BRANCH   3   9
HETATM    9  C   UNL     1      -9.359  10.887  65.431  1.00  0.00    -0.208 C  
HETATM   10  H   UNL     1      -9.030   8.935  65.297  1.00  0.00     0.000 HD 
HETATM   11  O   UNL     1      -9.734   9.544  65.105  1.00  0.00    -0.277 OA 
BRANCH   9  12
HETATM   12  C   UNL     1      -8.775  10.972  66.843  1.00  0.00    -0.148 A  
HETATM   13  C   UNL     1      -9.445  10.594  68.032  1.00  0.00    -0.164 A  
HETATM   14  C   UNL     1     -10.855  10.173  68.076  1.00  0.00    -0.320 C  
HETATM   15  C   UNL     1     -11.394   9.664  69.190  1.00  0.00     0.029 C  
HETATM   16  C   UNL     1     -10.603   9.535  70.430  1.00  0.00    -0.276 C  
HETATM   17  N   UNL     1      -9.344  10.060  70.412  1.00  0.00    -0.341 N  
HETATM   18  O   UNL     1     -11.067   8.991  71.427  1.00  0.00    -0.274 OA 
HETATM   19  H   UNL     1      -8.815  10.070  71.284  1.00  0.00     0.000 HD 
HETATM   20  C   UNL     1      -8.734  10.590  69.261  1.00  0.00    -0.123 A  
HETATM   21  C   UNL     1      -7.413  11.045  69.313  1.00  0.00    -0.100 A  
HETATM   22  O   UNL     1      -6.690  11.097  70.473  1.00  0.00    -0.497 OA 
HETATM   23  C   UNL     1      -6.767  11.466  68.161  1.00  0.00    -0.059 A  
HETATM   24  H   UNL     1      -5.792  11.406  70.508  1.00  0.00     0.000 HD 
HETATM   25  C   UNL     1      -7.439  11.422  66.941  1.00  0.00    -0.147 A  
ENDBRANCH   9  12
ENDBRANCH   3   9
ENDBRANCH   2   3
TORSDOF 5
ENDMDL
MODEL      148
REMARK 921   NORMALIZED FREE ENERGY PREDICTED BY IDOCK:   -4.38 KCAL/MOL
REMARK 922        TOTAL FREE ENERGY PREDICTED BY IDOCK:   -6.50 KCAL/MOL
REMARK 923 INTER-LIGAND FREE ENERGY PREDICTED BY IDOCK:   -5.62 KCAL/MOL
REMARK 924 INTRA-LIGAND FREE ENERGY PREDICTED BY IDOCK:   -0.89 KCAL/MOL
REMARK 927      BINDING AFFINITY PREDICTED BY RF-SCORE:    0.00 PKD
ROOT
HETATM    1  C   UNL     1      -6.151  15.915  69.920  1.00  0.00    -0.166 C  
HETATM    2  C   UNL     1      -6.521  17.205  69.194  1.00  0.00    -0.223 C  
ENDROOT
BRANCH   2   3
HETATM    3  C   UNL     1      -7.736  17.090  68.233  1.00  0.00    -0.209 C  
BRANCH   3   4
HETATM    4  N   UNL     1      -9.038  17.192  68.939  1.00  0.00    -0.235 NA 
HETATM    5  H   UNL     1      -9.377  16.447  69.547  1.00  0.00     0.000 HD 
BRANCH   4   6
HETATM    6  C   UNL     1      -9.814  18.420  68.718  1.00  0.00    -0.361 C  
HETATM    7  C   UNL     1     -11.126  18.032  68.028  1.00  0.00     0.147 C  
HETATM    8  C   UNL     1      -9.077  19.459  67.873  1.00  0.00    -0.377 C  
ENDBRANCH   4   6
ENDBRANCH   3   4
BRANCH   3   9
HETATM    9  C   UNL     1      -7.661  15.765  67.390  1.00  0.00    -0.183 C  
HETATM   10  H   UNL     1      -6.502  14.987  65.980  1.00  0.00     0.000 HD 
HETATM   11  O   UNL     1      -6.547  15.787  66.490  1.00  0.00     0.018 OA 
BRANCH   9  12
HETATM   12  C   UNL     1      -8.949  15.367  66.666  1.00  0.00    -0.319 A  
HETATM   13  C   UNL     1      -9.703  14.194  66.916  1.00  0.00    -0.272 A  
HETATM   14  C   UNL     1      -9.273  13.130  67.839  1.00  0.00    -0.207 C  
HETATM   15  C   UNL     1     -10.093  12.126  68.172  1.00  0.00    -0.206 C  
HETATM   16  C   UNL     1     -11.451  12.028  67.600  1.00  0.00    -0.322 C  
HETATM   17  N   UNL     1     -11.779  12.940  66.640  1.00  0.00    -0.372 N  
HETATM   18  O   UNL     1     -12.234  11.159  67.967  1.00  0.00    -0.584 OA 
HETATM   19  H   UNL     1     -12.673  12.833  66.161  1.00  0.00     0.000 HD 
HETATM   20  C   UNL     1     -10.955  14.019  66.271  1.00  0.00    -0.300 A  
HETATM   21  C   UNL     1     -11.398  14.949  65.326  1.00  0.00    -0.358 A  
HETATM   22  O   UNL     1     -12.578  14.816  64.648  1.00  0.00    -0.519 OA 
HETATM   23  C   UNL     1     -10.641  16.074  65.037  1.00  0.00    -0.342 A  
HETATM   24  H   UNL     1     -12.879  15.448  64.006  1.00  0.00     0.000 HD 
HETATM   25  C   UNL     1      -9.436  16.283  65.706  1.00  0.00    -0.229 A  
ENDBRANCH   9  12
ENDBRANCH   3   9
ENDBRANCH   2   3
TORSDOF 5
ENDMDL
MODEL      149
REMARK 921   NORMALIZED FREE ENERGY PREDICTED BY IDOCK:   -4.37 KCAL/MOL
REMARK 922        TOTAL FREE ENERGY PREDICTED BY IDOCK:   -6.50 KCAL/MOL
REMARK 923 INTER-LIGAND FREE ENERGY PREDICTED BY IDOCK:   -5.68 KCAL/MOL
REMARK 924 INTRA-LIGAND FREE ENERGY PREDICTED BY IDOCK:   -0.82 KCAL/MOL
REMARK 927      BINDING AFFINITY PREDICTED BY RF-SCORE:    0.00 PKD
ROOT
HETATM    1  C   UNL     1     -10.038   6.251  73.176  1.00  0.00    -0.203 C  
HETATM    2  C   UNL     1     -10.087   7.771  73.297  1.00  0.00    -0.374 C  
ENDROOT
BRANCH   2   3
HETATM    3  C   UNL     1     -10.315   8.529  71.960  1.00  0.00    -0.338 C  
BRANCH   3   4
HETATM    4  N   UNL     1     -11.556   8.105  71.265  1.00  0.00    -0.269 NA 
HETATM    5  H   UNL     1     -11.530   7.655  70.350  1.00  0.00     0.000 HD 
BRANCH   4   6
HETATM    6  C   UNL     1     -12.823   8.367  71.960  1.00  0.00    -0.354 C  
HETATM    7  C   UNL     1     -13.823   7.282  71.545  1.00  0.00    -0.463 C  
HETATM    8  C   UNL     1     -13.407   9.747  71.656  1.00  0.00    -0.487 C  
ENDBRANCH   4   6
ENDBRANCH   3   4
BRANCH   3   9
HETATM    9  C   UNL     1      -9.068   8.383  71.013  1.00  0.00    -0.165 C  
HETATM   10  H   UNL     1      -7.222   9.102  70.896  1.00  0.00     0.000 HD 
HETATM   11  O   UNL     1      -7.976   9.190  71.468  1.00  0.00    -0.335 OA 
BRANCH   9  12
HETATM   12  C   UNL     1      -9.337   8.605  69.523  1.00  0.00    -0.153 A  
HETATM   13  C   UNL     1      -9.580   7.584  68.571  1.00  0.00    -0.150 A  
HETATM   14  C   UNL     1      -9.485   6.146  68.876  1.00  0.00    -0.131 C  
HETATM   15  C   UNL     1      -9.886   5.222  67.995  1.00  0.00    -0.193 C  
HETATM   16  C   UNL     1     -10.410   5.608  66.669  1.00  0.00    -0.256 C  
HETATM   17  N   UNL     1     -10.356   6.933  66.351  1.00  0.00    -0.472 N  
HETATM   18  O   UNL     1     -10.857   4.770  65.894  1.00  0.00    -0.304 OA 
HETATM   19  H   UNL     1     -10.621   7.211  65.406  1.00  0.00     0.000 HD 
HETATM   20  C   UNL     1      -9.957   7.938  67.250  1.00  0.00    -0.215 A  
HETATM   21  C   UNL     1      -9.998   9.282  66.864  1.00  0.00    -0.233 A  
HETATM   22  O   UNL     1     -10.321   9.682  65.597  1.00  0.00    -0.206 OA 
HETATM   23  C   UNL     1      -9.711  10.285  67.776  1.00  0.00    -0.178 A  
HETATM   24  H   UNL     1     -10.349  10.594  65.335  1.00  0.00     0.000 HD 
HETATM   25  C   UNL     1      -9.394   9.949  69.091  1.00  0.00    -0.197 A  
ENDBRANCH   9  12
ENDBRANCH   3   9
ENDBRANCH   2   3
TORSDOF 5
ENDMDL
MODEL      150
REMARK 921   NORMALIZED FREE ENERGY PREDICTED BY IDOCK:   -4.37 KCAL/MOL
REMARK 922        TOTAL FREE ENERGY PREDICTED BY IDOCK:   -6.50 KCAL/MOL
REMARK 923 INTER-LIGAND FREE ENERGY PREDICTED BY IDOCK:   -6.03 KCAL/MOL
REMARK 924 INTRA-LIGAND FREE ENERGY PREDICTED BY IDOCK:   -0.47 KCAL/MOL
REMARK 927      BINDING AFFINITY PREDICTED BY RF-SCORE:    0.00 PKD
ROOT
HETATM    1  C   UNL     1     -10.908  10.443  66.366  1.00  0.00    -0.057 C  
HETATM    2  C   UNL     1     -11.606  11.409  67.319  1.00  0.00    -0.232 C  
ENDROOT
BRANCH   2   3
HETATM    3  C   UNL     1     -10.783  11.797  68.578  1.00  0.00    -0.220 C  
BRANCH   3   4
HETATM    4  N   UNL     1     -11.525  12.701  69.492  1.00  0.00    -0.422 NA 
HETATM    5  H   UNL     1     -11.667  13.687  69.271  1.00  0.00     0.000 HD 
BRANCH   4   6
HETATM    6  C   UNL     1     -12.046  12.106  70.730  1.00  0.00    -0.181 C  
HETATM    7  C   UNL     1     -12.737  10.787  70.366  1.00  0.00    -0.346 C  
HETATM    8  C   UNL     1     -13.028  13.013  71.472  1.00  0.00    -0.398 C  
ENDBRANCH   4   6
ENDBRANCH   3   4
BRANCH   3   9
HETATM    9  C   UNL     1      -9.401  12.426  68.172  1.00  0.00    -0.209 C  
HETATM   10  H   UNL     1      -7.526  12.393  68.823  1.00  0.00     0.000 HD 
HETATM   11  O   UNL     1      -8.362  12.013  69.068  1.00  0.00     0.086 OA 
BRANCH   9  12
HETATM   12  C   UNL     1      -9.394  13.944  67.981  1.00  0.00    -0.204 A  
HETATM   13  C   UNL     1      -9.872  14.630  66.836  1.00  0.00    -0.252 A  
HETATM   14  C   UNL     1     -10.336  13.951  65.615  1.00  0.00    -0.337 C  
HETATM   15  C   UNL     1     -10.935  14.630  64.629  1.00  0.00    -0.340 C  
HETATM   16  C   UNL     1     -11.124  16.092  64.714  1.00  0.00    -0.365 C  
HETATM   17  N   UNL     1     -10.562  16.722  65.785  1.00  0.00    -0.309 N  
HETATM   18  O   UNL     1     -11.747  16.704  63.853  1.00  0.00    -1.153 OA 
HETATM   19  H   UNL     1     -10.595  17.741  65.815  1.00  0.00     0.000 HD 
HETATM   20  C   UNL     1      -9.938  16.047  66.850  1.00  0.00    -0.251 A  
HETATM   21  C   UNL     1      -9.448  16.766  67.945  1.00  0.00    -0.230 A  
HETATM   22  O   UNL     1      -9.453  18.132  68.000  1.00  0.00    -0.270 OA 
HETATM   23  C   UNL     1      -8.931  16.104  69.047  1.00  0.00    -0.247 A  
HETATM   24  H   UNL     1      -9.121  18.621  68.744  1.00  0.00     0.000 HD 
HETATM   25  C   UNL     1      -8.913  14.710  69.066  1.00  0.00    -0.093 A  
ENDBRANCH   9  12
ENDBRANCH   3   9
ENDBRANCH   2   3
TORSDOF 5
ENDMDL
MODEL      151
REMARK 921   NORMALIZED FREE ENERGY PREDICTED BY IDOCK:   -4.36 KCAL/MOL
REMARK 922        TOTAL FREE ENERGY PREDICTED BY IDOCK:   -6.49 KCAL/MOL
REMARK 923 INTER-LIGAND FREE ENERGY PREDICTED BY IDOCK:   -6.14 KCAL/MOL
REMARK 924 INTRA-LIGAND FREE ENERGY PREDICTED BY IDOCK:   -0.35 KCAL/MOL
REMARK 927      BINDING AFFINITY PREDICTED BY RF-SCORE:    0.00 PKD
ROOT
HETATM    1  C   UNL     1     -10.682  10.729  66.960  1.00  0.00    -0.320 C  
HETATM    2  C   UNL     1      -9.571  11.619  66.412  1.00  0.00    -0.236 C  
ENDROOT
BRANCH   2   3
HETATM    3  C   UNL     1      -9.906  13.136  66.371  1.00  0.00    -0.279 C  
BRANCH   3   4
HETATM    4  N   UNL     1     -10.036  13.658  64.988  1.00  0.00    -0.592 NA 
HETATM    5  H   UNL     1      -9.251  14.096  64.505  1.00  0.00     0.000 HD 
BRANCH   4   6
HETATM    6  C   UNL     1     -11.350  13.513  64.348  1.00  0.00    -0.382 C  
HETATM    7  C   UNL     1     -12.416  13.531  65.449  1.00  0.00    -0.540 C  
HETATM    8  C   UNL     1     -11.484  12.232  63.524  1.00  0.00    -0.558 C  
ENDBRANCH   4   6
ENDBRANCH   3   4
BRANCH   3   9
HETATM    9  C   UNL     1      -8.845  13.966  67.183  1.00  0.00    -0.226 C  
HETATM   10  H   UNL     1      -7.723  13.727  68.802  1.00  0.00     0.000 HD 
HETATM   11  O   UNL     1      -8.363  13.226  68.311  1.00  0.00    -0.152 OA 
BRANCH   9  12
HETATM   12  C   UNL     1      -9.278  15.376  67.591  1.00  0.00    -0.187 A  
HETATM   13  C   UNL     1      -8.429  16.370  68.135  1.00  0.00    -0.188 A  
HETATM   14  C   UNL     1      -7.021  16.132  68.495  1.00  0.00    -0.137 C  
HETATM   15  C   UNL     1      -6.214  17.141  68.845  1.00  0.00    -0.179 C  
HETATM   16  C   UNL     1      -6.714  18.529  68.916  1.00  0.00    -0.268 C  
HETATM   17  N   UNL     1      -8.051  18.710  68.719  1.00  0.00    -0.309 N  
HETATM   18  O   UNL     1      -5.958  19.465  69.153  1.00  0.00    -0.235 OA 
HETATM   19  H   UNL     1      -8.435  19.645  68.859  1.00  0.00     0.000 HD 
HETATM   20  C   UNL     1      -8.932  17.683  68.335  1.00  0.00    -0.280 A  
HETATM   21  C   UNL     1     -10.277  17.969  68.085  1.00  0.00    -0.384 A  
HETATM   22  O   UNL     1     -10.825  19.204  68.292  1.00  0.00    -0.338 OA 
HETATM   23  C   UNL     1     -11.128  16.987  67.602  1.00  0.00    -0.051 A  
HETATM   24  H   UNL     1     -11.740  19.399  68.123  1.00  0.00     0.000 HD 
HETATM   25  C   UNL     1     -10.630  15.709  67.350  1.00  0.00    -0.301 A  
ENDBRANCH   9  12
ENDBRANCH   3   9
ENDBRANCH   2   3
TORSDOF 5
ENDMDL
MODEL      152
REMARK 921   NORMALIZED FREE ENERGY PREDICTED BY IDOCK:   -4.36 KCAL/MOL
REMARK 922        TOTAL FREE ENERGY PREDICTED BY IDOCK:   -6.48 KCAL/MOL
REMARK 923 INTER-LIGAND FREE ENERGY PREDICTED BY IDOCK:   -5.55 KCAL/MOL
REMARK 924 INTRA-LIGAND FREE ENERGY PREDICTED BY IDOCK:   -0.93 KCAL/MOL
REMARK 927      BINDING AFFINITY PREDICTED BY RF-SCORE:    0.00 PKD
ROOT
HETATM    1  C   UNL     1     -11.877   9.999  71.232  1.00  0.00    -0.471 C  
HETATM    2  C   UNL     1     -10.412   9.572  71.248  1.00  0.00    -0.320 C  
ENDROOT
BRANCH   2   3
HETATM    3  C   UNL     1      -9.780   9.345  69.847  1.00  0.00    -0.212 C  
BRANCH   3   4
HETATM    4  N   UNL     1      -8.812  10.407  69.475  1.00  0.00    -0.348 NA 
HETATM    5  H   UNL     1      -9.113  11.363  69.287  1.00  0.00     0.000 HD 
BRANCH   4   6
HETATM    6  C   UNL     1      -7.400  10.013  69.391  1.00  0.00    -0.100 C  
HETATM    7  C   UNL     1      -6.634  11.141  68.692  1.00  0.00    -0.059 C  
HETATM    8  C   UNL     1      -7.181   8.700  68.639  1.00  0.00    -0.076 C  
ENDBRANCH   4   6
ENDBRANCH   3   4
BRANCH   3   9
HETATM    9  C   UNL     1     -10.894   9.195  68.747  1.00  0.00    -0.060 C  
HETATM   10  H   UNL     1     -11.792   7.728  67.759  1.00  0.00     0.000 HD 
HETATM   11  O   UNL     1     -11.120   7.819  68.424  1.00  0.00     0.106 OA 
BRANCH   9  12
HETATM   12  C   UNL     1     -10.694  10.035  67.483  1.00  0.00    -0.339 A  
HETATM   13  C   UNL     1     -10.928  11.428  67.377  1.00  0.00    -0.326 A  
HETATM   14  C   UNL     1     -11.516  12.240  68.456  1.00  0.00    -0.349 C  
HETATM   15  C   UNL     1     -11.561  13.575  68.373  1.00  0.00    -0.378 C  
HETATM   16  C   UNL     1     -11.051  14.284  67.183  1.00  0.00    -0.311 C  
HETATM   17  N   UNL     1     -10.643  13.510  66.136  1.00  0.00    -0.286 N  
HETATM   18  O   UNL     1     -11.013  15.509  67.140  1.00  0.00    -0.321 OA 
HETATM   19  H   UNL     1     -10.379  13.977  65.268  1.00  0.00     0.000 HD 
HETATM   20  C   UNL     1     -10.565  12.107  66.185  1.00  0.00    -0.255 A  
HETATM   21  C   UNL     1     -10.068  11.393  65.090  1.00  0.00    -0.271 A  
HETATM   22  O   UNL     1      -9.735  11.988  63.905  1.00  0.00    -0.489 OA 
HETATM   23  C   UNL     1      -9.886  10.022  65.168  1.00  0.00    -0.388 A  
HETATM   24  H   UNL     1      -9.398  11.503  63.160  1.00  0.00     0.000 HD 
HETATM   25  C   UNL     1     -10.187   9.354  66.353  1.00  0.00    -0.300 A  
ENDBRANCH   9  12
ENDBRANCH   3   9
ENDBRANCH   2   3
TORSDOF 5
ENDMDL
MODEL      153
REMARK 921   NORMALIZED FREE ENERGY PREDICTED BY IDOCK:   -4.36 KCAL/MOL
REMARK 922        TOTAL FREE ENERGY PREDICTED BY IDOCK:   -6.48 KCAL/MOL
REMARK 923 INTER-LIGAND FREE ENERGY PREDICTED BY IDOCK:   -6.56 KCAL/MOL
REMARK 924 INTRA-LIGAND FREE ENERGY PREDICTED BY IDOCK:    0.08 KCAL/MOL
REMARK 927      BINDING AFFINITY PREDICTED BY RF-SCORE:    0.00 PKD
ROOT
HETATM    1  C   UNL     1      -8.033  15.046  68.438  1.00  0.00    -0.131 C  
HETATM    2  C   UNL     1      -9.040  15.999  69.075  1.00  0.00    -0.242 C  
ENDROOT
BRANCH   2   3
HETATM    3  C   UNL     1     -10.371  16.165  68.291  1.00  0.00    -0.266 C  
BRANCH   3   4
HETATM    4  N   UNL     1     -10.821  17.578  68.218  1.00  0.00    -0.295 NA 
HETATM    5  H   UNL     1     -11.811  17.825  68.231  1.00  0.00     0.000 HD 
BRANCH   4   6
HETATM    6  C   UNL     1      -9.772  18.601  68.128  1.00  0.00    -0.336 C  
HETATM    7  C   UNL     1     -10.294  19.875  68.800  1.00  0.00    -0.356 C  
HETATM    8  C   UNL     1      -9.352  18.913  66.692  1.00  0.00    -0.348 C  
ENDBRANCH   4   6
ENDBRANCH   3   4
BRANCH   3   9
HETATM    9  C   UNL     1     -11.497  15.252  68.899  1.00  0.00    -0.332 C  
HETATM   10  H   UNL     1     -12.341  14.943  70.668  1.00  0.00     0.000 HD 
HETATM   11  O   UNL     1     -11.661  15.495  70.301  1.00  0.00    -0.278 OA 
BRANCH   9  12
HETATM   12  C   UNL     1     -11.364  13.755  68.610  1.00  0.00    -0.321 A  
HETATM   13  C   UNL     1     -11.856  12.712  69.433  1.00  0.00    -0.356 A  
HETATM   14  C   UNL     1     -12.465  12.936  70.755  1.00  0.00    -0.370 C  
HETATM   15  C   UNL     1     -13.067  11.942  71.419  1.00  0.00    -0.303 C  
HETATM   16  C   UNL     1     -13.115  10.574  70.866  1.00  0.00    -0.306 C  
HETATM   17  N   UNL     1     -12.422  10.355  69.712  1.00  0.00    -0.545 N  
HETATM   18  O   UNL     1     -13.738   9.681  71.431  1.00  0.00    -0.326 OA 
HETATM   19  H   UNL     1     -12.360   9.398  69.363  1.00  0.00     0.000 HD 
HETATM   20  C   UNL     1     -11.790  11.371  68.973  1.00  0.00    -0.348 A  
HETATM   21  C   UNL     1     -11.160  11.070  67.762  1.00  0.00    -0.295 A  
HETATM   22  O   UNL     1     -11.036   9.795  67.285  1.00  0.00    -0.277 OA 
HETATM   23  C   UNL     1     -10.630  12.081  66.975  1.00  0.00    -0.258 A  
HETATM   24  H   UNL     1     -10.608   9.591  66.462  1.00  0.00     0.000 HD 
HETATM   25  C   UNL     1     -10.739  13.406  67.391  1.00  0.00    -0.269 A  
ENDBRANCH   9  12
ENDBRANCH   3   9
ENDBRANCH   2   3
TORSDOF 5
ENDMDL
MODEL      154
REMARK 921   NORMALIZED FREE ENERGY PREDICTED BY IDOCK:   -4.35 KCAL/MOL
REMARK 922        TOTAL FREE ENERGY PREDICTED BY IDOCK:   -6.48 KCAL/MOL
REMARK 923 INTER-LIGAND FREE ENERGY PREDICTED BY IDOCK:   -6.01 KCAL/MOL
REMARK 924 INTRA-LIGAND FREE ENERGY PREDICTED BY IDOCK:   -0.46 KCAL/MOL
REMARK 927      BINDING AFFINITY PREDICTED BY RF-SCORE:    0.00 PKD
ROOT
HETATM    1  C   UNL     1     -10.784  16.719  68.789  1.00  0.00    -0.341 C  
HETATM    2  C   UNL     1     -11.102  16.329  67.349  1.00  0.00    -0.095 C  
ENDROOT
BRANCH   2   3
HETATM    3  C   UNL     1     -10.948  14.816  67.030  1.00  0.00    -0.324 C  
BRANCH   3   4
HETATM    4  N   UNL     1     -12.250  14.147  66.783  1.00  0.00    -0.515 NA 
HETATM    5  H   UNL     1     -12.809  13.765  67.546  1.00  0.00     0.000 HD 
BRANCH   4   6
HETATM    6  C   UNL     1     -12.694  14.063  65.385  1.00  0.00    -0.471 C  
HETATM    7  C   UNL     1     -12.611  12.596  64.950  1.00  0.00    -0.525 C  
HETATM    8  C   UNL     1     -11.868  14.929  64.434  1.00  0.00    -0.372 C  
ENDBRANCH   4   6
ENDBRANCH   3   4
BRANCH   3   9
HETATM    9  C   UNL     1     -10.151  14.081  68.168  1.00  0.00    -0.244 C  
HETATM   10  H   UNL     1      -8.258  13.691  68.617  1.00  0.00     0.000 HD 
HETATM   11  O   UNL     1      -8.740  14.136  67.930  1.00  0.00    -0.163 OA 
BRANCH   9  12
HETATM   12  C   UNL     1     -10.604  12.653  68.480  1.00  0.00    -0.262 A  
HETATM   13  C   UNL     1     -10.322  11.511  67.691  1.00  0.00    -0.209 A  
HETATM   14  C   UNL     1      -9.643  11.570  66.385  1.00  0.00    -0.230 C  
HETATM   15  C   UNL     1      -9.247  10.456  65.758  1.00  0.00    -0.210 C  
HETATM   16  C   UNL     1      -9.504   9.122  66.335  1.00  0.00    -0.227 C  
HETATM   17  N   UNL     1     -10.258   9.081  67.471  1.00  0.00    -0.225 N  
HETATM   18  O   UNL     1      -9.068   8.105  65.806  1.00  0.00    -0.162 OA 
HETATM   19  H   UNL     1     -10.530   8.167  67.834  1.00  0.00     0.000 HD 
HETATM   20  C   UNL     1     -10.682  10.225  68.171  1.00  0.00    -0.246 A  
HETATM   21  C   UNL     1     -11.393  10.093  69.368  1.00  0.00    -0.178 A  
HETATM   22  O   UNL     1     -11.797   8.884  69.863  1.00  0.00    -0.391 OA 
HETATM   23  C   UNL     1     -11.719  11.210  70.120  1.00  0.00    -0.439 A  
HETATM   24  H   UNL     1     -12.280   8.793  70.675  1.00  0.00     0.000 HD 
HETATM   25  C   UNL     1     -11.322  12.473  69.684  1.00  0.00    -0.182 A  
ENDBRANCH   9  12
ENDBRANCH   3   9
ENDBRANCH   2   3
TORSDOF 5
ENDMDL
MODEL      155
REMARK 921   NORMALIZED FREE ENERGY PREDICTED BY IDOCK:   -4.34 KCAL/MOL
REMARK 922        TOTAL FREE ENERGY PREDICTED BY IDOCK:   -6.46 KCAL/MOL
REMARK 923 INTER-LIGAND FREE ENERGY PREDICTED BY IDOCK:   -5.47 KCAL/MOL
REMARK 924 INTRA-LIGAND FREE ENERGY PREDICTED BY IDOCK:   -0.98 KCAL/MOL
REMARK 927      BINDING AFFINITY PREDICTED BY RF-SCORE:    0.00 PKD
ROOT
HETATM    1  C   UNL     1     -10.322   7.774  67.239  1.00  0.00    -0.371 C  
HETATM    2  C   UNL     1      -9.231   8.746  67.679  1.00  0.00    -0.148 C  
ENDROOT
BRANCH   2   3
HETATM    3  C   UNL     1      -8.993   9.944  66.719  1.00  0.00    -0.138 C  
BRANCH   3   4
HETATM    4  N   UNL     1      -8.210  11.037  67.348  1.00  0.00    -0.120 NA 
HETATM    5  H   UNL     1      -8.591  11.600  68.108  1.00  0.00     0.000 HD 
BRANCH   4   6
HETATM    6  C   UNL     1      -6.858  11.266  66.822  1.00  0.00    -0.140 C  
HETATM    7  C   UNL     1      -6.756  10.572  65.460  1.00  0.00    -0.092 C  
HETATM    8  C   UNL     1      -5.753  10.750  67.746  1.00  0.00    -0.043 C  
ENDBRANCH   4   6
ENDBRANCH   3   4
BRANCH   3   9
HETATM    9  C   UNL     1     -10.356  10.488  66.154  1.00  0.00    -0.210 C  
HETATM   10  H   UNL     1     -11.183  10.812  64.380  1.00  0.00     0.000 HD 
HETATM   11  O   UNL     1     -10.360  10.483  64.722  1.00  0.00    -0.339 OA 
BRANCH   9  12
HETATM   12  C   UNL     1     -10.807  11.844  66.703  1.00  0.00    -0.315 A  
HETATM   13  C   UNL     1     -11.438  12.054  67.953  1.00  0.00    -0.396 A  
HETATM   14  C   UNL     1     -11.856  10.963  68.850  1.00  0.00    -0.340 C  
HETATM   15  C   UNL     1     -12.292  11.212  70.090  1.00  0.00    -0.373 C  
HETATM   16  C   UNL     1     -12.403  12.594  70.597  1.00  0.00    -0.290 C  
HETATM   17  N   UNL     1     -12.149  13.596  69.707  1.00  0.00    -0.336 N  
HETATM   18  O   UNL     1     -12.720  12.822  71.760  1.00  0.00    -0.243 OA 
HETATM   19  H   UNL     1     -12.313  14.557  70.006  1.00  0.00     0.000 HD 
HETATM   20  C   UNL     1     -11.674  13.380  68.401  1.00  0.00    -0.355 A  
HETATM   21  C   UNL     1     -11.372  14.468  67.575  1.00  0.00    -0.340 A  
HETATM   22  O   UNL     1     -11.609  15.765  67.938  1.00  0.00    -0.283 OA 
HETATM   23  C   UNL     1     -10.802  14.267  66.328  1.00  0.00    -0.310 A  
HETATM   24  H   UNL     1     -11.405  16.503  67.377  1.00  0.00     0.000 HD 
HETATM   25  C   UNL     1     -10.516  12.971  65.902  1.00  0.00    -0.293 A  
ENDBRANCH   9  12
ENDBRANCH   3   9
ENDBRANCH   2   3
TORSDOF 5
ENDMDL
MODEL      156
REMARK 921   NORMALIZED FREE ENERGY PREDICTED BY IDOCK:   -4.34 KCAL/MOL
REMARK 922        TOTAL FREE ENERGY PREDICTED BY IDOCK:   -6.45 KCAL/MOL
REMARK 923 INTER-LIGAND FREE ENERGY PREDICTED BY IDOCK:   -5.44 KCAL/MOL
REMARK 924 INTRA-LIGAND FREE ENERGY PREDICTED BY IDOCK:   -1.02 KCAL/MOL
REMARK 927      BINDING AFFINITY PREDICTED BY RF-SCORE:    0.00 PKD
ROOT
HETATM    1  C   UNL     1     -11.534  15.891  70.906  1.00  0.00    -0.444 C  
HETATM    2  C   UNL     1     -11.972  15.479  69.504  1.00  0.00    -0.372 C  
ENDROOT
BRANCH   2   3
HETATM    3  C   UNL     1     -10.837  15.449  68.444  1.00  0.00    -0.268 C  
BRANCH   3   4
HETATM    4  N   UNL     1     -10.762  16.700  67.649  1.00  0.00    -0.328 NA 
HETATM    5  H   UNL     1     -11.519  16.986  67.028  1.00  0.00     0.000 HD 
BRANCH   4   6
HETATM    6  C   UNL     1      -9.543  17.506  67.800  1.00  0.00    -0.269 C  
HETATM    7  C   UNL     1      -8.563  16.722  68.679  1.00  0.00    -0.263 C  
HETATM    8  C   UNL     1      -9.798  18.882  68.415  1.00  0.00    -0.435 C  
ENDBRANCH   4   6
ENDBRANCH   3   4
BRANCH   3   9
HETATM    9  C   UNL     1     -10.981  14.198  67.503  1.00  0.00    -0.283 C  
HETATM   10  H   UNL     1     -12.364  13.398  66.326  1.00  0.00     0.000 HD 
HETATM   11  O   UNL     1     -12.277  14.154  66.895  1.00  0.00    -0.439 OA 
BRANCH   9  12
HETATM   12  C   UNL     1     -10.620  12.850  68.132  1.00  0.00    -0.249 A  
HETATM   13  C   UNL     1      -9.306  12.347  68.297  1.00  0.00    -0.199 A  
HETATM   14  C   UNL     1      -8.105  13.014  67.768  1.00  0.00    -0.168 C  
HETATM   15  C   UNL     1      -6.877  12.593  68.093  1.00  0.00    -0.090 C  
HETATM   16  C   UNL     1      -6.679  11.421  68.969  1.00  0.00    -0.092 C  
HETATM   17  N   UNL     1      -7.798  10.731  69.331  1.00  0.00    -0.305 N  
HETATM   18  O   UNL     1      -5.558  11.084  69.336  1.00  0.00    -0.041 OA 
HETATM   19  H   UNL     1      -7.678   9.863  69.855  1.00  0.00     0.000 HD 
HETATM   20  C   UNL     1      -9.106  11.146  69.026  1.00  0.00    -0.023 A  
HETATM   21  C   UNL     1     -10.202  10.416  69.497  1.00  0.00    -0.231 A  
HETATM   22  O   UNL     1     -10.073   9.235  70.175  1.00  0.00    -0.186 OA 
HETATM   23  C   UNL     1     -11.494  10.876  69.294  1.00  0.00    -0.372 A  
HETATM   24  H   UNL     1     -10.817   8.739  70.495  1.00  0.00     0.000 HD 
HETATM   25  C   UNL     1     -11.698  12.082  68.628  1.00  0.00    -0.380 A  
ENDBRANCH   9  12
ENDBRANCH   3   9
ENDBRANCH   2   3
TORSDOF 5
ENDMDL
MODEL      157
REMARK 921   NORMALIZED FREE ENERGY PREDICTED BY IDOCK:   -4.34 KCAL/MOL
REMARK 922        TOTAL FREE ENERGY PREDICTED BY IDOCK:   -6.45 KCAL/MOL
REMARK 923 INTER-LIGAND FREE ENERGY PREDICTED BY IDOCK:   -5.40 KCAL/MOL
REMARK 924 INTRA-LIGAND FREE ENERGY PREDICTED BY IDOCK:   -1.06 KCAL/MOL
REMARK 927      BINDING AFFINITY PREDICTED BY RF-SCORE:    0.00 PKD
ROOT
HETATM    1  C   UNL     1      -9.478   3.669  72.523  1.00  0.00    -0.178 C  
HETATM    2  C   UNL     1      -8.487   4.504  71.717  1.00  0.00    -0.116 C  
ENDROOT
BRANCH   2   3
HETATM    3  C   UNL     1      -9.127   5.602  70.825  1.00  0.00    -0.147 C  
BRANCH   3   4
HETATM    4  N   UNL     1      -8.631   5.567  69.426  1.00  0.00    -0.104 NA 
HETATM    5  H   UNL     1      -7.641   5.676  69.207  1.00  0.00     0.000 HD 
BRANCH   4   6
HETATM    6  C   UNL     1      -9.636   5.367  68.374  1.00  0.00    -0.129 C  
HETATM    7  C   UNL     1      -9.098   5.986  67.081  1.00  0.00    -0.113 C  
HETATM    8  C   UNL     1     -10.996   5.980  68.711  1.00  0.00    -0.384 C  
ENDBRANCH   4   6
ENDBRANCH   3   4
BRANCH   3   9
HETATM    9  C   UNL     1      -8.920   7.028  71.454  1.00  0.00    -0.139 C  
HETATM   10  H   UNL     1      -8.044   7.813  73.052  1.00  0.00     0.000 HD 
HETATM   11  O   UNL     1      -8.169   6.951  72.672  1.00  0.00    -0.109 OA 
BRANCH   9  12
HETATM   12  C   UNL     1     -10.189   7.862  71.639  1.00  0.00    -0.239 A  
HETATM   13  C   UNL     1     -10.605   8.922  70.796  1.00  0.00    -0.281 A  
HETATM   14  C   UNL     1      -9.795   9.444  69.683  1.00  0.00    -0.205 C  
HETATM   15  C   UNL     1     -10.299  10.327  68.812  1.00  0.00    -0.211 C  
HETATM   16  C   UNL     1     -11.677  10.838  68.954  1.00  0.00    -0.267 C  
HETATM   17  N   UNL     1     -12.361  10.454  70.070  1.00  0.00    -0.503 N  
HETATM   18  O   UNL     1     -12.170  11.580  68.112  1.00  0.00    -0.576 OA 
HETATM   19  H   UNL     1     -13.277  10.870  70.239  1.00  0.00     0.000 HD 
HETATM   20  C   UNL     1     -11.877   9.517  71.001  1.00  0.00    -0.330 A  
HETATM   21  C   UNL     1     -12.674   9.126  72.082  1.00  0.00    -0.395 A  
HETATM   22  O   UNL     1     -13.891   9.688  72.350  1.00  0.00    -0.586 OA 
HETATM   23  C   UNL     1     -12.250   8.126  72.942  1.00  0.00     0.029 A  
HETATM   24  H   UNL     1     -14.432   9.422  73.084  1.00  0.00     0.000 HD 
HETATM   25  C   UNL     1     -11.027   7.496  72.717  1.00  0.00    -0.410 A  
ENDBRANCH   9  12
ENDBRANCH   3   9
ENDBRANCH   2   3
TORSDOF 5
ENDMDL
MODEL      158
REMARK 921   NORMALIZED FREE ENERGY PREDICTED BY IDOCK:   -4.33 KCAL/MOL
REMARK 922        TOTAL FREE ENERGY PREDICTED BY IDOCK:   -6.45 KCAL/MOL
REMARK 923 INTER-LIGAND FREE ENERGY PREDICTED BY IDOCK:   -5.67 KCAL/MOL
REMARK 924 INTRA-LIGAND FREE ENERGY PREDICTED BY IDOCK:   -0.77 KCAL/MOL
REMARK 927      BINDING AFFINITY PREDICTED BY RF-SCORE:    0.00 PKD
ROOT
HETATM    1  C   UNL     1     -12.161  13.357  63.545  1.00  0.00    -0.497 C  
HETATM    2  C   UNL     1     -12.204  12.319  64.663  1.00  0.00    -0.454 C  
ENDROOT
BRANCH   2   3
HETATM    3  C   UNL     1     -10.822  11.948  65.268  1.00  0.00    -0.297 C  
BRANCH   3   4
HETATM    4  N   UNL     1     -10.526  10.497  65.175  1.00  0.00    -0.229 NA 
HETATM    5  H   UNL     1     -11.004   9.814  65.763  1.00  0.00     0.000 HD 
BRANCH   4   6
HETATM    6  C   UNL     1      -9.509  10.093  64.195  1.00  0.00    -0.293 C  
HETATM    7  C   UNL     1      -8.140  10.157  64.879  1.00  0.00    -0.153 C  
HETATM    8  C   UNL     1      -9.498  10.965  62.939  1.00  0.00    -0.377 C  
ENDBRANCH   4   6
ENDBRANCH   3   4
BRANCH   3   9
HETATM    9  C   UNL     1     -10.710  12.447  66.755  1.00  0.00    -0.234 C  
HETATM   10  H   UNL     1     -11.866  13.351  68.091  1.00  0.00     0.000 HD 
HETATM   11  O   UNL     1     -11.933  13.050  67.192  1.00  0.00    -0.371 OA 
BRANCH   9  12
HETATM   12  C   UNL     1      -9.510  13.344  67.064  1.00  0.00    -0.247 A  
HETATM   13  C   UNL     1      -9.402  14.716  66.728  1.00  0.00    -0.275 A  
HETATM   14  C   UNL     1     -10.399  15.439  65.920  1.00  0.00    -0.359 C  
HETATM   15  C   UNL     1     -10.342  16.768  65.773  1.00  0.00    -0.322 C  
HETATM   16  C   UNL     1      -9.257  17.558  66.388  1.00  0.00    -0.245 C  
HETATM   17  N   UNL     1      -8.266  16.858  67.010  1.00  0.00    -0.187 N  
HETATM   18  O   UNL     1      -9.249  18.783  66.326  1.00  0.00    -0.367 OA 
HETATM   19  H   UNL     1      -7.458  17.375  67.357  1.00  0.00     0.000 HD 
HETATM   20  C   UNL     1      -8.293  15.465  67.202  1.00  0.00    -0.219 A  
HETATM   21  C   UNL     1      -7.268  14.834  67.914  1.00  0.00    -0.156 A  
HETATM   22  O   UNL     1      -6.160  15.496  68.364  1.00  0.00    -0.096 OA 
HETATM   23  C   UNL     1      -7.341  13.480  68.201  1.00  0.00    -0.121 A  
HETATM   24  H   UNL     1      -5.463  15.068  68.848  1.00  0.00     0.000 HD 
HETATM   25  C   UNL     1      -8.453  12.748  67.788  1.00  0.00    -0.177 A  
ENDBRANCH   9  12
ENDBRANCH   3   9
ENDBRANCH   2   3
TORSDOF 5
ENDMDL
MODEL      159
REMARK 921   NORMALIZED FREE ENERGY PREDICTED BY IDOCK:   -4.33 KCAL/MOL
REMARK 922        TOTAL FREE ENERGY PREDICTED BY IDOCK:   -6.44 KCAL/MOL
REMARK 923 INTER-LIGAND FREE ENERGY PREDICTED BY IDOCK:   -6.20 KCAL/MOL
REMARK 924 INTRA-LIGAND FREE ENERGY PREDICTED BY IDOCK:   -0.24 KCAL/MOL
REMARK 927      BINDING AFFINITY PREDICTED BY RF-SCORE:    0.00 PKD
ROOT
HETATM    1  C   UNL     1     -11.779  11.998  63.304  1.00  0.00    -0.425 C  
HETATM    2  C   UNL     1     -11.349  11.874  64.763  1.00  0.00    -0.344 C  
ENDROOT
BRANCH   2   3
HETATM    3  C   UNL     1      -9.850  11.529  64.977  1.00  0.00    -0.257 C  
BRANCH   3   4
HETATM    4  N   UNL     1      -9.598  10.067  65.024  1.00  0.00    -0.279 NA 
HETATM    5  H   UNL     1     -10.150   9.448  65.618  1.00  0.00     0.000 HD 
BRANCH   4   6
HETATM    6  C   UNL     1      -8.516   9.556  64.173  1.00  0.00    -0.186 C  
HETATM    7  C   UNL     1      -9.031   9.508  62.731  1.00  0.00    -0.243 C  
HETATM    8  C   UNL     1      -8.021   8.170  64.589  1.00  0.00    -0.149 C  
ENDBRANCH   4   6
ENDBRANCH   3   4
BRANCH   3   9
HETATM    9  C   UNL     1      -9.292  12.233  66.268  1.00  0.00    -0.206 C  
HETATM   10  H   UNL     1      -8.030  11.810  67.740  1.00  0.00     0.000 HD 
HETATM   11  O   UNL     1      -8.368  11.386  66.960  1.00  0.00    -0.148 OA 
BRANCH   9  12
HETATM   12  C   UNL     1     -10.346  12.798  67.223  1.00  0.00    -0.235 A  
HETATM   13  C   UNL     1     -10.950  12.090  68.291  1.00  0.00    -0.275 A  
HETATM   14  C   UNL     1     -10.724  10.658  68.552  1.00  0.00    -0.252 C  
HETATM   15  C   UNL     1     -11.180  10.076  69.667  1.00  0.00    -0.285 C  
HETATM   16  C   UNL     1     -11.955  10.839  70.665  1.00  0.00    -0.367 C  
HETATM   17  N   UNL     1     -12.277  12.124  70.340  1.00  0.00    -0.330 N  
HETATM   18  O   UNL     1     -12.301  10.330  71.726  1.00  0.00    -0.377 OA 
HETATM   19  H   UNL     1     -12.893  12.639  70.968  1.00  0.00     0.000 HD 
HETATM   20  C   UNL     1     -11.807  12.780  69.188  1.00  0.00    -0.301 A  
HETATM   21  C   UNL     1     -12.128  14.123  68.965  1.00  0.00    -0.313 A  
HETATM   22  O   UNL     1     -12.975  14.829  69.774  1.00  0.00    -0.573 OA 
HETATM   23  C   UNL     1     -11.582  14.808  67.891  1.00  0.00    -0.373 A  
HETATM   24  H   UNL     1     -13.193  15.741  69.622  1.00  0.00     0.000 HD 
HETATM   25  C   UNL     1     -10.695  14.154  67.037  1.00  0.00    -0.285 A  
ENDBRANCH   9  12
ENDBRANCH   3   9
ENDBRANCH   2   3
TORSDOF 5
ENDMDL
MODEL      160
REMARK 921   NORMALIZED FREE ENERGY PREDICTED BY IDOCK:   -4.32 KCAL/MOL
REMARK 922        TOTAL FREE ENERGY PREDICTED BY IDOCK:   -6.43 KCAL/MOL
REMARK 923 INTER-LIGAND FREE ENERGY PREDICTED BY IDOCK:   -6.03 KCAL/MOL
REMARK 924 INTRA-LIGAND FREE ENERGY PREDICTED BY IDOCK:   -0.40 KCAL/MOL
REMARK 927      BINDING AFFINITY PREDICTED BY RF-SCORE:    0.00 PKD
ROOT
HETATM    1  C   UNL     1      -7.987  14.033  67.658  1.00  0.00    -0.186 C  
HETATM    2  C   UNL     1      -9.349  13.673  68.244  1.00  0.00    -0.204 C  
ENDROOT
BRANCH   2   3
HETATM    3  C   UNL     1     -10.141  12.596  67.451  1.00  0.00    -0.218 C  
BRANCH   3   4
HETATM    4  N   UNL     1     -10.390  12.990  66.042  1.00  0.00    -0.280 NA 
HETATM    5  H   UNL     1      -9.944  12.505  65.264  1.00  0.00     0.000 HD 
BRANCH   4   6
HETATM    6  C   UNL     1     -11.312  14.112  65.824  1.00  0.00    -0.317 C  
HETATM    7  C   UNL     1     -12.494  13.600  64.993  1.00  0.00    -0.454 C  
HETATM    8  C   UNL     1     -10.663  15.301  65.115  1.00  0.00    -0.455 C  
ENDBRANCH   4   6
ENDBRANCH   3   4
BRANCH   3   9
HETATM    9  C   UNL     1     -11.489  12.243  68.179  1.00  0.00    -0.316 C  
HETATM   10  H   UNL     1     -12.807  13.152  69.351  1.00  0.00     0.000 HD 
HETATM   11  O   UNL     1     -11.992  13.366  68.911  1.00  0.00    -0.330 OA 
BRANCH   9  12
HETATM   12  C   UNL     1     -11.462  10.983  69.048  1.00  0.00    -0.368 A  
HETATM   13  C   UNL     1     -10.953   9.722  68.651  1.00  0.00    -0.189 A  
HETATM   14  C   UNL     1     -10.482   9.425  67.288  1.00  0.00    -0.332 C  
HETATM   15  C   UNL     1      -9.854   8.278  67.005  1.00  0.00    -0.298 C  
HETATM   16  C   UNL     1      -9.638   7.250  68.042  1.00  0.00    -0.139 C  
HETATM   17  N   UNL     1     -10.205   7.480  69.261  1.00  0.00    -0.196 N  
HETATM   18  O   UNL     1      -8.989   6.237  67.807  1.00  0.00    -0.115 OA 
HETATM   19  H   UNL     1     -10.152   6.742  69.963  1.00  0.00     0.000 HD 
HETATM   20  C   UNL     1     -10.859   8.677  69.606  1.00  0.00    -0.157 A  
HETATM   21  C   UNL     1     -11.352   8.858  70.902  1.00  0.00    -0.283 A  
HETATM   22  O   UNL     1     -11.321   7.877  71.853  1.00  0.00    -0.253 OA 
HETATM   23  C   UNL     1     -11.900  10.073  71.282  1.00  0.00    -0.471 A  
HETATM   24  H   UNL     1     -11.656   8.000  72.734  1.00  0.00     0.000 HD 
HETATM   25  C   UNL     1     -11.946  11.124  70.368  1.00  0.00    -0.469 A  
ENDBRANCH   9  12
ENDBRANCH   3   9
ENDBRANCH   2   3
TORSDOF 5
ENDMDL
MODEL      161
REMARK 921   NORMALIZED FREE ENERGY PREDICTED BY IDOCK:   -4.32 KCAL/MOL
REMARK 922        TOTAL FREE ENERGY PREDICTED BY IDOCK:   -6.43 KCAL/MOL
REMARK 923 INTER-LIGAND FREE ENERGY PREDICTED BY IDOCK:   -5.76 KCAL/MOL
REMARK 924 INTRA-LIGAND FREE ENERGY PREDICTED BY IDOCK:   -0.68 KCAL/MOL
REMARK 927      BINDING AFFINITY PREDICTED BY RF-SCORE:    0.00 PKD
ROOT
HETATM    1  C   UNL     1      -7.397   8.432  69.639  1.00  0.00    -0.072 C  
HETATM    2  C   UNL     1      -8.899   8.695  69.589  1.00  0.00    -0.137 C  
ENDROOT
BRANCH   2   3
HETATM    3  C   UNL     1      -9.299  10.189  69.451  1.00  0.00    -0.219 C  
BRANCH   3   4
HETATM    4  N   UNL     1     -10.168  10.656  70.560  1.00  0.00    -0.024 NA 
HETATM    5  H   UNL     1      -9.898  11.436  71.160  1.00  0.00     0.000 HD 
BRANCH   4   6
HETATM    6  C   UNL     1     -11.436   9.941  70.751  1.00  0.00    -0.354 C  
HETATM    7  C   UNL     1     -12.575  10.959  70.642  1.00  0.00    -0.435 C  
HETATM    8  C   UNL     1     -11.525   9.212  72.092  1.00  0.00    -0.238 C  
ENDBRANCH   4   6
ENDBRANCH   3   4
BRANCH   3   9
HETATM    9  C   UNL     1      -9.977  10.461  68.059  1.00  0.00    -0.155 C  
HETATM   10  H   UNL     1     -10.157   9.543  66.309  1.00  0.00     0.000 HD 
HETATM   11  O   UNL     1      -9.747   9.378  67.150  1.00  0.00    -0.156 OA 
BRANCH   9  12
HETATM   12  C   UNL     1      -9.644  11.807  67.411  1.00  0.00    -0.173 A  
HETATM   13  C   UNL     1     -10.369  12.412  66.354  1.00  0.00    -0.255 A  
HETATM   14  C   UNL     1     -11.485  11.756  65.652  1.00  0.00    -0.249 C  
HETATM   15  C   UNL     1     -12.246  12.428  64.779  1.00  0.00    -0.493 C  
HETATM   16  C   UNL     1     -11.975  13.844  64.462  1.00  0.00    -0.437 C  
HETATM   17  N   UNL     1     -10.853  14.392  65.012  1.00  0.00    -0.382 N  
HETATM   18  O   UNL     1     -12.720  14.486  63.729  1.00  0.00    -0.780 OA 
HETATM   19  H   UNL     1     -10.593  15.337  64.731  1.00  0.00     0.000 HD 
HETATM   20  C   UNL     1     -10.035  13.729  65.945  1.00  0.00    -0.293 A  
HETATM   21  C   UNL     1      -8.942  14.389  66.513  1.00  0.00    -0.160 A  
HETATM   22  O   UNL     1      -8.552  15.644  66.135  1.00  0.00    -0.367 OA 
HETATM   23  C   UNL     1      -8.195  13.783  67.512  1.00  0.00    -0.194 A  
HETATM   24  H   UNL     1      -7.809  16.092  66.521  1.00  0.00     0.000 HD 
HETATM   25  C   UNL     1      -8.549  12.512  67.960  1.00  0.00    -0.185 A  
ENDBRANCH   9  12
ENDBRANCH   3   9
ENDBRANCH   2   3
TORSDOF 5
ENDMDL
MODEL      162
REMARK 921   NORMALIZED FREE ENERGY PREDICTED BY IDOCK:   -4.29 KCAL/MOL
REMARK 922        TOTAL FREE ENERGY PREDICTED BY IDOCK:   -6.40 KCAL/MOL
REMARK 923 INTER-LIGAND FREE ENERGY PREDICTED BY IDOCK:   -6.03 KCAL/MOL
REMARK 924 INTRA-LIGAND FREE ENERGY PREDICTED BY IDOCK:   -0.36 KCAL/MOL
REMARK 927      BINDING AFFINITY PREDICTED BY RF-SCORE:    0.00 PKD
ROOT
HETATM    1  C   UNL     1      -9.408  11.012  63.312  1.00  0.00    -0.319 C  
HETATM    2  C   UNL     1     -10.401  10.616  64.400  1.00  0.00    -0.347 C  
ENDROOT
BRANCH   2   3
HETATM    3  C   UNL     1     -10.700  11.721  65.449  1.00  0.00    -0.283 C  
BRANCH   3   4
HETATM    4  N   UNL     1     -10.539  13.091  64.901  1.00  0.00    -0.320 NA 
HETATM    5  H   UNL     1      -9.850  13.301  64.178  1.00  0.00     0.000 HD 
BRANCH   4   6
HETATM    6  C   UNL     1     -11.420  14.130  65.450  1.00  0.00    -0.325 C  
HETATM    7  C   UNL     1     -12.128  14.819  64.279  1.00  0.00    -0.415 C  
HETATM    8  C   UNL     1     -10.679  15.172  66.288  1.00  0.00    -0.320 C  
ENDBRANCH   4   6
ENDBRANCH   3   4
BRANCH   3   9
HETATM    9  C   UNL     1      -9.816  11.528  66.735  1.00  0.00    -0.203 C  
HETATM   10  H   UNL     1      -8.142  10.588  67.238  1.00  0.00     0.000 HD 
HETATM   11  O   UNL     1      -8.677  10.706  66.461  1.00  0.00    -0.139 OA 
BRANCH   9  12
HETATM   12  C   UNL     1     -10.559  11.046  67.983  1.00  0.00    -0.241 A  
HETATM   13  C   UNL     1     -10.757   9.692  68.349  1.00  0.00    -0.251 A  
HETATM   14  C   UNL     1     -10.370   8.553  67.499  1.00  0.00    -0.334 C  
HETATM   15  C   UNL     1     -10.422   7.296  67.958  1.00  0.00    -0.249 C  
HETATM   16  C   UNL     1     -10.899   7.000  69.323  1.00  0.00    -0.214 C  
HETATM   17  N   UNL     1     -11.388   8.051  70.042  1.00  0.00    -0.453 N  
HETATM   18  O   UNL     1     -10.867   5.861  69.774  1.00  0.00    -0.317 OA 
HETATM   19  H   UNL     1     -11.812   7.856  70.949  1.00  0.00     0.000 HD 
HETATM   20  C   UNL     1     -11.339   9.388  69.607  1.00  0.00     0.008 A  
HETATM   21  C   UNL     1     -11.799  10.413  70.439  1.00  0.00    -0.328 A  
HETATM   22  O   UNL     1     -12.399  10.180  71.645  1.00  0.00    -0.387 OA 
HETATM   23  C   UNL     1     -11.656  11.740  70.064  1.00  0.00    -0.318 A  
HETATM   24  H   UNL     1     -12.712  10.877  72.210  1.00  0.00     0.000 HD 
HETATM   25  C   UNL     1     -11.035  12.051  68.855  1.00  0.00    -0.277 A  
ENDBRANCH   9  12
ENDBRANCH   3   9
ENDBRANCH   2   3
TORSDOF 5
ENDMDL
MODEL      163
REMARK 921   NORMALIZED FREE ENERGY PREDICTED BY IDOCK:   -4.29 KCAL/MOL
REMARK 922        TOTAL FREE ENERGY PREDICTED BY IDOCK:   -6.40 KCAL/MOL
REMARK 923 INTER-LIGAND FREE ENERGY PREDICTED BY IDOCK:   -6.06 KCAL/MOL
REMARK 924 INTRA-LIGAND FREE ENERGY PREDICTED BY IDOCK:   -0.33 KCAL/MOL
REMARK 927      BINDING AFFINITY PREDICTED BY RF-SCORE:    0.00 PKD
ROOT
HETATM    1  C   UNL     1     -11.794  14.736  71.830  1.00  0.00    -0.357 C  
HETATM    2  C   UNL     1     -12.415  15.134  70.495  1.00  0.00    -0.429 C  
ENDROOT
BRANCH   2   3
HETATM    3  C   UNL     1     -12.256  14.087  69.359  1.00  0.00    -0.292 C  
BRANCH   3   4
HETATM    4  N   UNL     1     -11.379  12.952  69.743  1.00  0.00    -0.497 NA 
HETATM    5  H   UNL     1     -10.488  13.101  70.218  1.00  0.00     0.000 HD 
BRANCH   4   6
HETATM    6  C   UNL     1     -11.858  11.605  69.407  1.00  0.00    -0.342 C  
HETATM    7  C   UNL     1     -12.260  10.907  70.710  1.00  0.00    -0.483 C  
HETATM    8  C   UNL     1     -10.819  10.759  68.670  1.00  0.00    -0.260 C  
ENDBRANCH   4   6
ENDBRANCH   3   4
BRANCH   3   9
HETATM    9  C   UNL     1     -11.742  14.766  68.037  1.00  0.00    -0.333 C  
HETATM   10  H   UNL     1     -11.280  14.214  66.188  1.00  0.00     0.000 HD 
HETATM   11  O   UNL     1     -11.590  13.804  66.987  1.00  0.00    -0.328 OA 
BRANCH   9  12
HETATM   12  C   UNL     1     -10.488  15.631  68.181  1.00  0.00    -0.259 A  
HETATM   13  C   UNL     1      -9.154  15.157  68.135  1.00  0.00    -0.176 A  
HETATM   14  C   UNL     1      -8.798  13.730  68.060  1.00  0.00    -0.182 C  
HETATM   15  C   UNL     1      -7.535  13.340  67.848  1.00  0.00    -0.143 C  
HETATM   16  C   UNL     1      -6.444  14.325  67.713  1.00  0.00    -0.166 C  
HETATM   17  N   UNL     1      -6.769  15.632  67.928  1.00  0.00    -0.136 N  
HETATM   18  O   UNL     1      -5.302  13.975  67.434  1.00  0.00    -0.338 OA 
HETATM   19  H   UNL     1      -6.015  16.319  67.937  1.00  0.00     0.000 HD 
HETATM   20  C   UNL     1      -8.083  16.088  68.138  1.00  0.00    -0.147 A  
HETATM   21  C   UNL     1      -8.337  17.455  68.281  1.00  0.00    -0.248 A  
HETATM   22  O   UNL     1      -7.345  18.395  68.326  1.00  0.00    -0.255 OA 
HETATM   23  C   UNL     1      -9.638  17.923  68.379  1.00  0.00    -0.320 A  
HETATM   24  H   UNL     1      -7.517  19.324  68.423  1.00  0.00     0.000 HD 
HETATM   25  C   UNL     1     -10.699  17.021  68.321  1.00  0.00    -0.372 A  
ENDBRANCH   9  12
ENDBRANCH   3   9
ENDBRANCH   2   3
TORSDOF 5
ENDMDL
MODEL      164
REMARK 921   NORMALIZED FREE ENERGY PREDICTED BY IDOCK:   -4.28 KCAL/MOL
REMARK 922        TOTAL FREE ENERGY PREDICTED BY IDOCK:   -6.38 KCAL/MOL
REMARK 923 INTER-LIGAND FREE ENERGY PREDICTED BY IDOCK:   -5.85 KCAL/MOL
REMARK 924 INTRA-LIGAND FREE ENERGY PREDICTED BY IDOCK:   -0.53 KCAL/MOL
REMARK 927      BINDING AFFINITY PREDICTED BY RF-SCORE:    0.00 PKD
ROOT
HETATM    1  C   UNL     1     -10.010  10.450  65.911  1.00  0.00    -0.317 C  
HETATM    2  C   UNL     1      -9.322  11.185  67.058  1.00  0.00    -0.182 C  
ENDROOT
BRANCH   2   3
HETATM    3  C   UNL     1     -10.216  11.442  68.302  1.00  0.00    -0.193 C  
BRANCH   3   4
HETATM    4  N   UNL     1     -10.405  12.887  68.585  1.00  0.00    -0.353 NA 
HETATM    5  H   UNL     1      -9.617  13.499  68.793  1.00  0.00     0.000 HD 
BRANCH   4   6
HETATM    6  C   UNL     1     -11.784  13.391  68.549  1.00  0.00    -0.357 C  
HETATM    7  C   UNL     1     -11.915  14.326  67.341  1.00  0.00    -0.426 C  
HETATM    8  C   UNL     1     -12.191  14.135  69.821  1.00  0.00    -0.397 C  
ENDBRANCH   4   6
ENDBRANCH   3   4
BRANCH   3   9
HETATM    9  C   UNL     1      -9.647  10.697  69.565  1.00  0.00    -0.031 C  
HETATM   10  H   UNL     1      -7.985   9.743  70.081  1.00  0.00     0.000 HD 
HETATM   11  O   UNL     1      -8.329  10.194  69.318  1.00  0.00    -0.133 OA 
BRANCH   9  12
HETATM   12  C   UNL     1     -10.551   9.613  70.158  1.00  0.00    -0.320 A  
HETATM   13  C   UNL     1     -10.521   8.239  69.813  1.00  0.00    -0.220 A  
HETATM   14  C   UNL     1      -9.683   7.688  68.735  1.00  0.00    -0.153 C  
HETATM   15  C   UNL     1      -9.560   6.367  68.559  1.00  0.00    -0.122 C  
HETATM   16  C   UNL     1     -10.286   5.411  69.418  1.00  0.00    -0.269 C  
HETATM   17  N   UNL     1     -11.167   5.940  70.316  1.00  0.00    -0.309 N  
HETATM   18  O   UNL     1     -10.111   4.202  69.315  1.00  0.00    -0.057 OA 
HETATM   19  H   UNL     1     -11.751   5.298  70.852  1.00  0.00     0.000 HD 
HETATM   20  C   UNL     1     -11.317   7.320  70.545  1.00  0.00    -0.280 A  
HETATM   21  C   UNL     1     -12.193   7.776  71.534  1.00  0.00    -0.318 A  
HETATM   22  O   UNL     1     -13.008   6.942  72.247  1.00  0.00    -0.534 OA 
HETATM   23  C   UNL     1     -12.266   9.126  71.841  1.00  0.00    -0.449 A  
HETATM   24  H   UNL     1     -13.604   7.252  72.919  1.00  0.00     0.000 HD 
HETATM   25  C   UNL     1     -11.448  10.030  71.167  1.00  0.00    -0.432 A  
ENDBRANCH   9  12
ENDBRANCH   3   9
ENDBRANCH   2   3
TORSDOF 5
ENDMDL
MODEL      165
REMARK 921   NORMALIZED FREE ENERGY PREDICTED BY IDOCK:   -4.27 KCAL/MOL
REMARK 922        TOTAL FREE ENERGY PREDICTED BY IDOCK:   -6.37 KCAL/MOL
REMARK 923 INTER-LIGAND FREE ENERGY PREDICTED BY IDOCK:   -6.32 KCAL/MOL
REMARK 924 INTRA-LIGAND FREE ENERGY PREDICTED BY IDOCK:   -0.05 KCAL/MOL
REMARK 927      BINDING AFFINITY PREDICTED BY RF-SCORE:    0.00 PKD
ROOT
HETATM    1  C   UNL     1      -7.086  16.033  67.506  1.00  0.00    -0.199 C  
HETATM    2  C   UNL     1      -8.195  15.818  66.480  1.00  0.00    -0.278 C  
ENDROOT
BRANCH   2   3
HETATM    3  C   UNL     1      -9.364  16.838  66.553  1.00  0.00    -0.264 C  
BRANCH   3   4
HETATM    4  N   UNL     1      -9.194  17.827  67.647  1.00  0.00    -0.248 NA 
HETATM    5  H   UNL     1      -9.183  17.545  68.627  1.00  0.00     0.000 HD 
BRANCH   4   6
HETATM    6  C   UNL     1      -9.043  19.233  67.247  1.00  0.00    -0.297 C  
HETATM    7  C   UNL     1     -10.269  19.623  66.417  1.00  0.00    -0.592 C  
HETATM    8  C   UNL     1      -7.770  19.500  66.443  1.00  0.00    -0.307 C  
ENDBRANCH   4   6
ENDBRANCH   3   4
BRANCH   3   9
HETATM    9  C   UNL     1     -10.746  16.099  66.680  1.00  0.00    -0.226 C  
HETATM   10  H   UNL     1     -12.112  15.771  68.081  1.00  0.00     0.000 HD 
HETATM   11  O   UNL     1     -11.277  16.218  68.004  1.00  0.00    -0.334 OA 
BRANCH   9  12
HETATM   12  C   UNL     1     -10.765  14.644  66.205  1.00  0.00    -0.316 A  
HETATM   13  C   UNL     1     -10.899  13.509  67.042  1.00  0.00    -0.287 A  
HETATM   14  C   UNL     1     -10.918  13.578  68.513  1.00  0.00    -0.291 C  
HETATM   15  C   UNL     1     -11.215  12.504  69.254  1.00  0.00    -0.256 C  
HETATM   16  C   UNL     1     -11.504  11.200  68.627  1.00  0.00    -0.298 C  
HETATM   17  N   UNL     1     -11.342  11.120  67.275  1.00  0.00    -0.285 N  
HETATM   18  O   UNL     1     -11.860  10.237  69.298  1.00  0.00    -0.146 OA 
HETATM   19  H   UNL     1     -11.441  10.206  66.832  1.00  0.00     0.000 HD 
HETATM   20  C   UNL     1     -11.046  12.224  66.456  1.00  0.00    -0.299 A  
HETATM   21  C   UNL     1     -10.965  12.068  65.069  1.00  0.00    -0.306 A  
HETATM   22  O   UNL     1     -11.064  10.852  64.451  1.00  0.00    -0.235 OA 
HETATM   23  C   UNL     1     -10.782  13.168  64.246  1.00  0.00    -0.431 A  
HETATM   24  H   UNL     1     -11.009  10.746  63.509  1.00  0.00     0.000 HD 
HETATM   25  C   UNL     1     -10.692  14.441  64.809  1.00  0.00    -0.423 A  
ENDBRANCH   9  12
ENDBRANCH   3   9
ENDBRANCH   2   3
TORSDOF 5
ENDMDL
MODEL      166
REMARK 921   NORMALIZED FREE ENERGY PREDICTED BY IDOCK:   -4.24 KCAL/MOL
REMARK 922        TOTAL FREE ENERGY PREDICTED BY IDOCK:   -6.33 KCAL/MOL
REMARK 923 INTER-LIGAND FREE ENERGY PREDICTED BY IDOCK:   -6.00 KCAL/MOL
REMARK 924 INTRA-LIGAND FREE ENERGY PREDICTED BY IDOCK:   -0.34 KCAL/MOL
REMARK 927      BINDING AFFINITY PREDICTED BY RF-SCORE:    0.00 PKD
ROOT
HETATM    1  C   UNL     1      -7.291   9.463  69.953  1.00  0.00    -0.088 C  
HETATM    2  C   UNL     1      -8.319  10.365  69.278  1.00  0.00    -0.161 C  
ENDROOT
BRANCH   2   3
HETATM    3  C   UNL     1      -9.801  10.016  69.587  1.00  0.00    -0.235 C  
BRANCH   3   4
HETATM    4  N   UNL     1     -10.193   8.677  69.079  1.00  0.00    -0.204 NA 
HETATM    5  H   UNL     1     -10.232   8.474  68.080  1.00  0.00     0.000 HD 
BRANCH   4   6
HETATM    6  C   UNL     1     -10.521   7.659  70.086  1.00  0.00    -0.227 C  
HETATM    7  C   UNL     1     -10.956   6.388  69.349  1.00  0.00    -0.421 C  
HETATM    8  C   UNL     1     -11.623   8.096  71.052  1.00  0.00    -0.301 C  
ENDBRANCH   4   6
ENDBRANCH   3   4
BRANCH   3   9
HETATM    9  C   UNL     1     -10.766  11.126  69.033  1.00  0.00    -0.225 C  
HETATM   10  H   UNL     1     -12.721  11.450  68.922  1.00  0.00     0.000 HD 
HETATM   11  O   UNL     1     -12.137  10.779  69.256  1.00  0.00    -0.304 OA 
BRANCH   9  12
HETATM   12  C   UNL     1     -10.532  11.544  67.579  1.00  0.00    -0.229 A  
HETATM   13  C   UNL     1     -10.256  12.861  67.137  1.00  0.00    -0.239 A  
HETATM   14  C   UNL     1     -10.278  14.039  68.021  1.00  0.00    -0.238 C  
HETATM   15  C   UNL     1      -9.847  15.233  67.597  1.00  0.00    -0.217 C  
HETATM   16  C   UNL     1      -9.363  15.423  66.215  1.00  0.00    -0.316 C  
HETATM   17  N   UNL     1      -9.485  14.359  65.371  1.00  0.00    -0.469 N  
HETATM   18  O   UNL     1      -8.889  16.493  65.849  1.00  0.00    -0.464 OA 
HETATM   19  H   UNL     1      -9.249  14.496  64.388  1.00  0.00     0.000 HD 
HETATM   20  C   UNL     1      -9.917  13.083  65.777  1.00  0.00    -0.254 A  
HETATM   21  C   UNL     1      -9.946  12.028  64.861  1.00  0.00    -0.227 A  
HETATM   22  O   UNL     1      -9.664  12.188  63.533  1.00  0.00    -0.567 OA 
HETATM   23  C   UNL     1     -10.266  10.744  65.276  1.00  0.00    -0.351 A  
HETATM   24  H   UNL     1      -9.683  11.471  62.910  1.00  0.00     0.000 HD 
HETATM   25  C   UNL     1     -10.546  10.506  66.620  1.00  0.00    -0.263 A  
ENDBRANCH   9  12
ENDBRANCH   3   9
ENDBRANCH   2   3
TORSDOF 5
ENDMDL
MODEL      167
REMARK 921   NORMALIZED FREE ENERGY PREDICTED BY IDOCK:   -4.23 KCAL/MOL
REMARK 922        TOTAL FREE ENERGY PREDICTED BY IDOCK:   -6.32 KCAL/MOL
REMARK 923 INTER-LIGAND FREE ENERGY PREDICTED BY IDOCK:   -5.45 KCAL/MOL
REMARK 924 INTRA-LIGAND FREE ENERGY PREDICTED BY IDOCK:   -0.87 KCAL/MOL
REMARK 927      BINDING AFFINITY PREDICTED BY RF-SCORE:    0.00 PKD
ROOT
HETATM    1  C   UNL     1     -10.138  14.350  68.191  1.00  0.00    -0.226 C  
HETATM    2  C   UNL     1     -10.610  13.926  66.803  1.00  0.00    -0.277 C  
ENDROOT
BRANCH   2   3
HETATM    3  C   UNL     1      -9.935  12.643  66.245  1.00  0.00    -0.258 C  
BRANCH   3   4
HETATM    4  N   UNL     1     -10.919  11.641  65.761  1.00  0.00    -0.292 NA 
HETATM    5  H   UNL     1     -11.522  11.129  66.405  1.00  0.00     0.000 HD 
BRANCH   4   6
HETATM    6  C   UNL     1     -10.980  11.425  64.309  1.00  0.00    -0.321 C  
HETATM    7  C   UNL     1      -9.592  10.979  63.838  1.00  0.00    -0.309 C  
HETATM    8  C   UNL     1     -11.414  12.667  63.530  1.00  0.00    -0.557 C  
ENDBRANCH   4   6
ENDBRANCH   3   4
BRANCH   3   9
HETATM    9  C   UNL     1      -8.971  12.007  67.312  1.00  0.00    -0.180 C  
HETATM   10  H   UNL     1      -7.036  11.600  67.483  1.00  0.00     0.000 HD 
HETATM   11  O   UNL     1      -7.619  11.984  66.839  1.00  0.00    -0.134 OA 
BRANCH   9  12
HETATM   12  C   UNL     1      -9.391  10.638  67.852  1.00  0.00    -0.154 A  
HETATM   13  C   UNL     1     -10.320  10.417  68.898  1.00  0.00    -0.227 A  
HETATM   14  C   UNL     1     -10.924  11.500  69.693  1.00  0.00    -0.129 C  
HETATM   15  C   UNL     1     -11.920  11.256  70.553  1.00  0.00    -0.467 C  
HETATM   16  C   UNL     1     -12.431   9.887  70.761  1.00  0.00    -0.256 C  
HETATM   17  N   UNL     1     -11.766   8.881  70.125  1.00  0.00    -0.460 N  
HETATM   18  O   UNL     1     -13.399   9.672  71.483  1.00  0.00    -0.371 OA 
HETATM   19  H   UNL     1     -12.039   7.919  70.330  1.00  0.00     0.000 HD 
HETATM   20  C   UNL     1     -10.725   9.092  69.202  1.00  0.00    -0.157 A  
HETATM   21  C   UNL     1     -10.143   8.006  68.541  1.00  0.00    -0.199 A  
HETATM   22  O   UNL     1     -10.467   6.707  68.816  1.00  0.00    -0.183 OA 
HETATM   23  C   UNL     1      -9.194   8.212  67.552  1.00  0.00    -0.154 A  
HETATM   24  H   UNL     1     -10.072   5.969  68.367  1.00  0.00     0.000 HD 
HETATM   25  C   UNL     1      -8.830   9.512  67.207  1.00  0.00    -0.136 A  
ENDBRANCH   9  12
ENDBRANCH   3   9
ENDBRANCH   2   3
TORSDOF 5
ENDMDL
MODEL      168
REMARK 921   NORMALIZED FREE ENERGY PREDICTED BY IDOCK:   -4.23 KCAL/MOL
REMARK 922        TOTAL FREE ENERGY PREDICTED BY IDOCK:   -6.31 KCAL/MOL
REMARK 923 INTER-LIGAND FREE ENERGY PREDICTED BY IDOCK:   -5.54 KCAL/MOL
REMARK 924 INTRA-LIGAND FREE ENERGY PREDICTED BY IDOCK:   -0.78 KCAL/MOL
REMARK 927      BINDING AFFINITY PREDICTED BY RF-SCORE:    0.00 PKD
ROOT
HETATM    1  C   UNL     1     -13.174   7.095  71.577  1.00  0.00    -0.419 C  
HETATM    2  C   UNL     1     -12.033   6.961  70.574  1.00  0.00    -0.358 C  
ENDROOT
BRANCH   2   3
HETATM    3  C   UNL     1     -10.612   6.909  71.199  1.00  0.00    -0.222 C  
BRANCH   3   4
HETATM    4  N   UNL     1     -10.596   6.258  72.533  1.00  0.00    -0.203 NA 
HETATM    5  H   UNL     1     -10.915   6.744  73.371  1.00  0.00     0.000 HD 
BRANCH   4   6
HETATM    6  C   UNL     1     -10.097   4.877  72.587  1.00  0.00    -0.174 C  
HETATM    7  C   UNL     1      -9.826   4.415  71.152  1.00  0.00    -0.258 C  
HETATM    8  C   UNL     1     -11.068   3.909  73.264  1.00  0.00    -0.279 C  
ENDBRANCH   4   6
ENDBRANCH   3   4
BRANCH   3   9
HETATM    9  C   UNL     1      -9.979   8.346  71.273  1.00  0.00    -0.204 C  
HETATM   10  H   UNL     1      -9.822   9.814  72.598  1.00  0.00     0.000 HD 
HETATM   11  O   UNL     1     -10.204   8.946  72.554  1.00  0.00    -0.186 OA 
BRANCH   9  12
HETATM   12  C   UNL     1     -10.365   9.299  70.140  1.00  0.00    -0.258 A  
HETATM   13  C   UNL     1      -9.856   9.255  68.819  1.00  0.00    -0.174 A  
HETATM   14  C   UNL     1      -8.782   8.343  68.390  1.00  0.00    -0.136 C  
HETATM   15  C   UNL     1      -8.452   8.218  67.099  1.00  0.00    -0.123 C  
HETATM   16  C   UNL     1      -9.130   9.014  66.057  1.00  0.00    -0.208 C  
HETATM   17  N   UNL     1     -10.020   9.954  66.487  1.00  0.00    -0.215 N  
HETATM   18  O   UNL     1      -8.891   8.840  64.867  1.00  0.00    -0.167 OA 
HETATM   19  H   UNL     1     -10.428  10.582  65.793  1.00  0.00     0.000 HD 
HETATM   20  C   UNL     1     -10.407  10.110  67.830  1.00  0.00    -0.210 A  
HETATM   21  C   UNL     1     -11.379  11.054  68.175  1.00  0.00    -0.307 A  
HETATM   22  O   UNL     1     -11.922  11.926  67.273  1.00  0.00    -0.605 OA 
HETATM   23  C   UNL     1     -11.846  11.139  69.478  1.00  0.00    -0.423 A  
HETATM   24  H   UNL     1     -12.582  12.568  67.508  1.00  0.00     0.000 HD 
HETATM   25  C   UNL     1     -11.350  10.266  70.445  1.00  0.00    -0.410 A  
ENDBRANCH   9  12
ENDBRANCH   3   9
ENDBRANCH   2   3
TORSDOF 5
ENDMDL
MODEL      169
REMARK 921   NORMALIZED FREE ENERGY PREDICTED BY IDOCK:   -4.23 KCAL/MOL
REMARK 922        TOTAL FREE ENERGY PREDICTED BY IDOCK:   -6.31 KCAL/MOL
REMARK 923 INTER-LIGAND FREE ENERGY PREDICTED BY IDOCK:   -5.56 KCAL/MOL
REMARK 924 INTRA-LIGAND FREE ENERGY PREDICTED BY IDOCK:   -0.75 KCAL/MOL
REMARK 927      BINDING AFFINITY PREDICTED BY RF-SCORE:    0.00 PKD
ROOT
HETATM    1  C   UNL     1     -10.256   7.080  73.801  1.00  0.00    -0.401 C  
HETATM    2  C   UNL     1      -9.500   8.105  72.961  1.00  0.00    -0.333 C  
ENDROOT
BRANCH   2   3
HETATM    3  C   UNL     1     -10.347   8.805  71.862  1.00  0.00    -0.344 C  
BRANCH   3   4
HETATM    4  N   UNL     1     -11.631   8.109  71.597  1.00  0.00    -0.266 NA 
HETATM    5  H   UNL     1     -11.661   7.127  71.324  1.00  0.00     0.000 HD 
BRANCH   4   6
HETATM    6  C   UNL     1     -12.856   8.905  71.748  1.00  0.00    -0.365 C  
HETATM    7  C   UNL     1     -14.054   7.977  71.523  1.00  0.00    -0.475 C  
HETATM    8  C   UNL     1     -12.933  10.088  70.782  1.00  0.00    -0.330 C  
ENDBRANCH   4   6
ENDBRANCH   3   4
BRANCH   3   9
HETATM    9  C   UNL     1      -9.518   8.970  70.536  1.00  0.00    -0.221 C  
HETATM   10  H   UNL     1      -9.089  10.414  69.245  1.00  0.00     0.000 HD 
HETATM   11  O   UNL     1      -9.590  10.314  70.046  1.00  0.00    -0.139 OA 
BRANCH   9  12
HETATM   12  C   UNL     1      -9.829   7.960  69.430  1.00  0.00    -0.180 A  
HETATM   13  C   UNL     1      -9.580   6.567  69.495  1.00  0.00    -0.152 A  
HETATM   14  C   UNL     1      -8.868   5.918  70.609  1.00  0.00    -0.144 C  
HETATM   15  C   UNL     1      -8.806   4.585  70.709  1.00  0.00    -0.140 C  
HETATM   16  C   UNL     1      -9.421   3.713  69.689  1.00  0.00    -0.175 C  
HETATM   17  N   UNL     1      -9.949   4.330  68.593  1.00  0.00    -0.038 N  
HETATM   18  O   UNL     1      -9.439   2.494  69.822  1.00  0.00    -0.126 OA 
HETATM   19  H   UNL     1     -10.291   3.744  67.831  1.00  0.00     0.000 HD 
HETATM   20  C   UNL     1     -10.050   5.726  68.453  1.00  0.00    -0.170 A  
HETATM   21  C   UNL     1     -10.670   6.275  67.327  1.00  0.00    -0.349 A  
HETATM   22  O   UNL     1     -11.111   5.518  66.278  1.00  0.00    -0.727 OA 
HETATM   23  C   UNL     1     -10.871   7.643  67.232  1.00  0.00    -0.263 A  
HETATM   24  H   UNL     1     -11.532   5.891  65.513  1.00  0.00     0.000 HD 
HETATM   25  C   UNL     1     -10.463   8.473  68.275  1.00  0.00    -0.222 A  
ENDBRANCH   9  12
ENDBRANCH   3   9
ENDBRANCH   2   3
TORSDOF 5
ENDMDL
MODEL      170
REMARK 921   NORMALIZED FREE ENERGY PREDICTED BY IDOCK:   -4.22 KCAL/MOL
REMARK 922        TOTAL FREE ENERGY PREDICTED BY IDOCK:   -6.30 KCAL/MOL
REMARK 923 INTER-LIGAND FREE ENERGY PREDICTED BY IDOCK:   -5.91 KCAL/MOL
REMARK 924 INTRA-LIGAND FREE ENERGY PREDICTED BY IDOCK:   -0.39 KCAL/MOL
REMARK 927      BINDING AFFINITY PREDICTED BY RF-SCORE:    0.00 PKD
ROOT
HETATM    1  C   UNL     1     -10.426  20.204  67.683  1.00  0.00    -0.408 C  
HETATM    2  C   UNL     1      -9.899  19.165  66.697  1.00  0.00    -0.415 C  
ENDROOT
BRANCH   2   3
HETATM    3  C   UNL     1      -8.923  18.120  67.304  1.00  0.00    -0.248 C  
BRANCH   3   4
HETATM    4  N   UNL     1      -7.560  18.667  67.521  1.00  0.00    -0.228 NA 
HETATM    5  H   UNL     1      -7.013  18.427  68.348  1.00  0.00     0.000 HD 
BRANCH   4   6
HETATM    6  C   UNL     1      -7.038  19.568  66.486  1.00  0.00    -0.219 C  
HETATM    7  C   UNL     1      -5.797  18.913  65.870  1.00  0.00    -0.198 C  
HETATM    8  C   UNL     1      -6.677  20.956  67.017  1.00  0.00    -0.396 C  
ENDBRANCH   4   6
ENDBRANCH   3   4
BRANCH   3   9
HETATM    9  C   UNL     1      -8.869  16.823  66.418  1.00  0.00    -0.296 C  
HETATM   10  H   UNL     1      -9.996  15.934  65.048  1.00  0.00     0.000 HD 
HETATM   11  O   UNL     1     -10.028  16.718  65.583  1.00  0.00    -0.538 OA 
BRANCH   9  12
HETATM   12  C   UNL     1      -8.611  15.516  67.171  1.00  0.00    -0.240 A  
HETATM   13  C   UNL     1      -9.609  14.664  67.705  1.00  0.00    -0.212 A  
HETATM   14  C   UNL     1     -11.045  14.992  67.706  1.00  0.00    -0.312 C  
HETATM   15  C   UNL     1     -11.963  14.086  68.065  1.00  0.00    -0.386 C  
HETATM   16  C   UNL     1     -11.569  12.733  68.505  1.00  0.00    -0.321 C  
HETATM   17  N   UNL     1     -10.232  12.495  68.635  1.00  0.00    -0.358 N  
HETATM   18  O   UNL     1     -12.410  11.876  68.753  1.00  0.00    -0.264 OA 
HETATM   19  H   UNL     1      -9.940  11.601  69.030  1.00  0.00     0.000 HD 
HETATM   20  C   UNL     1      -9.234  13.411  68.255  1.00  0.00    -0.198 A  
HETATM   21  C   UNL     1      -7.885  13.059  68.356  1.00  0.00    -0.134 A  
HETATM   22  O   UNL     1      -7.462  11.882  68.908  1.00  0.00    -0.173 OA 
HETATM   23  C   UNL     1      -6.899  13.911  67.884  1.00  0.00    -0.166 A  
HETATM   24  H   UNL     1      -6.546  11.643  68.977  1.00  0.00     0.000 HD 
HETATM   25  C   UNL     1      -7.259  15.120  67.291  1.00  0.00    -0.197 A  
ENDBRANCH   9  12
ENDBRANCH   3   9
ENDBRANCH   2   3
TORSDOF 5
ENDMDL
MODEL      171
REMARK 921   NORMALIZED FREE ENERGY PREDICTED BY IDOCK:   -4.22 KCAL/MOL
REMARK 922        TOTAL FREE ENERGY PREDICTED BY IDOCK:   -6.30 KCAL/MOL
REMARK 923 INTER-LIGAND FREE ENERGY PREDICTED BY IDOCK:   -6.38 KCAL/MOL
REMARK 924 INTRA-LIGAND FREE ENERGY PREDICTED BY IDOCK:    0.08 KCAL/MOL
REMARK 927      BINDING AFFINITY PREDICTED BY RF-SCORE:    0.00 PKD
ROOT
HETATM    1  C   UNL     1      -9.591  19.524  69.007  1.00  0.00    -0.419 C  
HETATM    2  C   UNL     1      -8.781  19.050  67.804  1.00  0.00    -0.328 C  
ENDROOT
BRANCH   2   3
HETATM    3  C   UNL     1      -7.898  17.798  68.059  1.00  0.00    -0.241 C  
BRANCH   3   4
HETATM    4  N   UNL     1      -6.472  18.138  68.292  1.00  0.00    -0.192 NA 
HETATM    5  H   UNL     1      -5.952  18.734  67.648  1.00  0.00     0.000 HD 
BRANCH   4   6
HETATM    6  C   UNL     1      -5.847  17.574  69.496  1.00  0.00    -0.235 C  
HETATM    7  C   UNL     1      -6.577  16.272  69.842  1.00  0.00    -0.035 C  
HETATM    8  C   UNL     1      -5.885  18.519  70.697  1.00  0.00    -0.005 C  
ENDBRANCH   4   6
ENDBRANCH   3   4
BRANCH   3   9
HETATM    9  C   UNL     1      -8.040  16.763  66.884  1.00  0.00    -0.211 C  
HETATM   10  H   UNL     1      -7.857  16.752  64.908  1.00  0.00     0.000 HD 
HETATM   11  O   UNL     1      -7.772  17.377  65.619  1.00  0.00    -0.452 OA 
BRANCH   9  12
HETATM   12  C   UNL     1      -9.351  15.975  66.849  1.00  0.00    -0.246 A  
HETATM   13  C   UNL     1     -10.213  15.765  67.954  1.00  0.00    -0.242 A  
HETATM   14  C   UNL     1      -9.894  16.186  69.328  1.00  0.00    -0.250 C  
HETATM   15  C   UNL     1     -10.807  16.120  70.304  1.00  0.00    -0.300 C  
HETATM   16  C   UNL     1     -12.162  15.592  70.048  1.00  0.00    -0.355 C  
HETATM   17  N   UNL     1     -12.393  15.075  68.807  1.00  0.00    -0.598 N  
HETATM   18  O   UNL     1     -13.026  15.609  70.917  1.00  0.00    -0.482 OA 
HETATM   19  H   UNL     1     -13.288  14.616  68.637  1.00  0.00     0.000 HD 
HETATM   20  C   UNL     1     -11.469  15.137  67.748  1.00  0.00    -0.318 A  
HETATM   21  C   UNL     1     -11.814  14.644  66.486  1.00  0.00    -0.304 A  
HETATM   22  O   UNL     1     -12.993  13.999  66.236  1.00  0.00    -0.438 OA 
HETATM   23  C   UNL     1     -10.952  14.799  65.411  1.00  0.00    -0.365 A  
HETATM   24  H   UNL     1     -13.227  13.664  65.379  1.00  0.00     0.000 HD 
HETATM   25  C   UNL     1      -9.741  15.464  65.591  1.00  0.00    -0.366 A  
ENDBRANCH   9  12
ENDBRANCH   3   9
ENDBRANCH   2   3
TORSDOF 5
ENDMDL
MODEL      172
REMARK 921   NORMALIZED FREE ENERGY PREDICTED BY IDOCK:   -4.21 KCAL/MOL
REMARK 922        TOTAL FREE ENERGY PREDICTED BY IDOCK:   -6.29 KCAL/MOL
REMARK 923 INTER-LIGAND FREE ENERGY PREDICTED BY IDOCK:   -5.58 KCAL/MOL
REMARK 924 INTRA-LIGAND FREE ENERGY PREDICTED BY IDOCK:   -0.72 KCAL/MOL
REMARK 927      BINDING AFFINITY PREDICTED BY RF-SCORE:    0.00 PKD
ROOT
HETATM    1  C   UNL     1      -9.834  11.238  63.442  1.00  0.00    -0.416 C  
HETATM    2  C   UNL     1     -10.774  11.251  64.644  1.00  0.00    -0.371 C  
ENDROOT
BRANCH   2   3
HETATM    3  C   UNL     1     -10.071  11.355  66.025  1.00  0.00    -0.234 C  
BRANCH   3   4
HETATM    4  N   UNL     1      -9.043  12.425  66.067  1.00  0.00    -0.429 NA 
HETATM    5  H   UNL     1      -8.124  12.301  65.643  1.00  0.00     0.000 HD 
BRANCH   4   6
HETATM    6  C   UNL     1      -9.415  13.671  66.750  1.00  0.00    -0.270 C  
HETATM    7  C   UNL     1      -8.749  13.672  68.130  1.00  0.00    -0.177 C  
HETATM    8  C   UNL     1     -10.926  13.847  66.908  1.00  0.00    -0.300 C  
ENDBRANCH   4   6
ENDBRANCH   3   4
BRANCH   3   9
HETATM    9  C   UNL     1      -9.452   9.971  66.444  1.00  0.00    -0.186 C  
HETATM   10  H   UNL     1      -9.840   8.045  66.163  1.00  0.00     0.000 HD 
HETATM   11  O   UNL     1     -10.213   8.882  65.910  1.00  0.00    -0.106 OA 
BRANCH   9  12
HETATM   12  C   UNL     1      -9.198   9.786  67.942  1.00  0.00    -0.133 A  
HETATM   13  C   UNL     1     -10.133  10.048  68.973  1.00  0.00    -0.211 A  
HETATM   14  C   UNL     1     -11.454  10.655  68.740  1.00  0.00    -0.330 C  
HETATM   15  C   UNL     1     -12.367  10.726  69.716  1.00  0.00    -0.305 C  
HETATM   16  C   UNL     1     -12.073  10.228  71.074  1.00  0.00    -0.386 C  
HETATM   17  N   UNL     1     -10.798   9.802  71.308  1.00  0.00    -0.291 N  
HETATM   18  O   UNL     1     -12.934  10.215  71.947  1.00  0.00    -0.416 OA 
HETATM   19  H   UNL     1     -10.545   9.546  72.263  1.00  0.00     0.000 HD 
HETATM   20  C   UNL     1      -9.813   9.696  70.310  1.00  0.00    -0.266 A  
HETATM   21  C   UNL     1      -8.551   9.182  70.622  1.00  0.00    -0.226 A  
HETATM   22  O   UNL     1      -8.174   8.858  71.896  1.00  0.00    -0.345 OA 
HETATM   23  C   UNL     1      -7.611   8.972  69.625  1.00  0.00    -0.077 A  
HETATM   24  H   UNL     1      -7.316   8.510  72.108  1.00  0.00     0.000 HD 
HETATM   25  C   UNL     1      -7.935   9.263  68.301  1.00  0.00    -0.102 A  
ENDBRANCH   9  12
ENDBRANCH   3   9
ENDBRANCH   2   3
TORSDOF 5
ENDMDL
MODEL      173
REMARK 921   NORMALIZED FREE ENERGY PREDICTED BY IDOCK:   -4.20 KCAL/MOL
REMARK 922        TOTAL FREE ENERGY PREDICTED BY IDOCK:   -6.28 KCAL/MOL
REMARK 923 INTER-LIGAND FREE ENERGY PREDICTED BY IDOCK:   -5.13 KCAL/MOL
REMARK 924 INTRA-LIGAND FREE ENERGY PREDICTED BY IDOCK:   -1.15 KCAL/MOL
REMARK 927      BINDING AFFINITY PREDICTED BY RF-SCORE:    0.00 PKD
ROOT
HETATM    1  C   UNL     1      -9.307   5.603  69.953  1.00  0.00    -0.181 C  
HETATM    2  C   UNL     1     -10.283   6.363  69.060  1.00  0.00    -0.216 C  
ENDROOT
BRANCH   2   3
HETATM    3  C   UNL     1     -10.097   7.905  69.048  1.00  0.00    -0.200 C  
BRANCH   3   4
HETATM    4  N   UNL     1     -11.337   8.635  69.413  1.00  0.00    -0.370 NA 
HETATM    5  H   UNL     1     -12.141   8.671  68.787  1.00  0.00     0.000 HD 
BRANCH   4   6
HETATM    6  C   UNL     1     -11.348   9.304  70.721  1.00  0.00    -0.287 C  
HETATM    7  C   UNL     1     -11.461  10.813  70.481  1.00  0.00    -0.367 C  
HETATM    8  C   UNL     1     -10.106   9.009  71.563  1.00  0.00    -0.409 C  
ENDBRANCH   4   6
ENDBRANCH   3   4
BRANCH   3   9
HETATM    9  C   UNL     1      -9.551   8.394  67.657  1.00  0.00    -0.153 C  
HETATM   10  H   UNL     1      -8.298   7.744  66.263  1.00  0.00     0.000 HD 
HETATM   11  O   UNL     1      -8.628   7.449  67.103  1.00  0.00    -0.116 OA 
BRANCH   9  12
HETATM   12  C   UNL     1      -8.975   9.811  67.632  1.00  0.00    -0.133 A  
HETATM   13  C   UNL     1      -9.306  10.815  66.689  1.00  0.00    -0.188 A  
HETATM   14  C   UNL     1     -10.173  10.583  65.521  1.00  0.00    -0.325 C  
HETATM   15  C   UNL     1     -10.592  11.598  64.756  1.00  0.00    -0.358 C  
HETATM   16  C   UNL     1     -10.176  12.987  65.034  1.00  0.00    -0.269 C  
HETATM   17  N   UNL     1      -9.261  13.165  66.030  1.00  0.00    -0.467 N  
HETATM   18  O   UNL     1     -10.626  13.927  64.388  1.00  0.00    -0.400 OA 
HETATM   19  H   UNL     1      -8.886  14.102  66.175  1.00  0.00     0.000 HD 
HETATM   20  C   UNL     1      -8.805  12.131  66.868  1.00  0.00    -0.202 A  
HETATM   21  C   UNL     1      -7.918  12.413  67.911  1.00  0.00    -0.155 A  
HETATM   22  O   UNL     1      -7.376  13.652  68.112  1.00  0.00    -0.094 OA 
HETATM   23  C   UNL     1      -7.548  11.422  68.807  1.00  0.00    -0.132 A  
HETATM   24  H   UNL     1      -6.773  13.844  68.820  1.00  0.00     0.000 HD 
HETATM   25  C   UNL     1      -8.078  10.140  68.673  1.00  0.00    -0.109 A  
ENDBRANCH   9  12
ENDBRANCH   3   9
ENDBRANCH   2   3
TORSDOF 5
ENDMDL
MODEL      174
REMARK 921   NORMALIZED FREE ENERGY PREDICTED BY IDOCK:   -4.19 KCAL/MOL
REMARK 922        TOTAL FREE ENERGY PREDICTED BY IDOCK:   -6.26 KCAL/MOL
REMARK 923 INTER-LIGAND FREE ENERGY PREDICTED BY IDOCK:   -5.58 KCAL/MOL
REMARK 924 INTRA-LIGAND FREE ENERGY PREDICTED BY IDOCK:   -0.68 KCAL/MOL
REMARK 927      BINDING AFFINITY PREDICTED BY RF-SCORE:    0.00 PKD
ROOT
HETATM    1  C   UNL     1      -7.512   8.133  71.487  1.00  0.00    -0.086 C  
HETATM    2  C   UNL     1      -8.999   8.181  71.827  1.00  0.00    -0.216 C  
ENDROOT
BRANCH   2   3
HETATM    3  C   UNL     1      -9.817   6.942  71.369  1.00  0.00    -0.178 C  
BRANCH   3   4
HETATM    4  N   UNL     1      -8.989   5.941  70.651  1.00  0.00    -0.144 NA 
HETATM    5  H   UNL     1      -8.641   6.112  69.707  1.00  0.00     0.000 HD 
BRANCH   4   6
HETATM    6  C   UNL     1      -8.694   4.693  71.366  1.00  0.00    -0.119 C  
HETATM    7  C   UNL     1      -9.728   3.646  70.937  1.00  0.00    -0.229 C  
HETATM    8  C   UNL     1      -8.718   4.846  72.887  1.00  0.00    -0.117 C  
ENDBRANCH   4   6
ENDBRANCH   3   4
BRANCH   3   9
HETATM    9  C   UNL     1     -11.050   7.376  70.496  1.00  0.00    -0.261 C  
HETATM   10  H   UNL     1     -12.037   6.700  68.913  1.00  0.00     0.000 HD 
HETATM   11  O   UNL     1     -11.292   6.438  69.441  1.00  0.00    -0.394 OA 
BRANCH   9  12
HETATM   12  C   UNL     1     -11.012   8.810  69.963  1.00  0.00    -0.216 A  
HETATM   13  C   UNL     1     -11.765   9.896  70.474  1.00  0.00    -0.373 A  
HETATM   14  C   UNL     1     -12.786   9.757  71.525  1.00  0.00    -0.502 C  
HETATM   15  C   UNL     1     -13.348  10.831  72.093  1.00  0.00    -0.314 C  
HETATM   16  C   UNL     1     -12.990  12.197  71.664  1.00  0.00    -0.321 C  
HETATM   17  N   UNL     1     -12.152  12.303  70.594  1.00  0.00    -0.484 N  
HETATM   18  O   UNL     1     -13.439  13.182  72.240  1.00  0.00    -0.527 OA 
HETATM   19  H   UNL     1     -11.967  13.234  70.218  1.00  0.00     0.000 HD 
HETATM   20  C   UNL     1     -11.527  11.204  69.977  1.00  0.00    -0.292 A  
HETATM   21  C   UNL     1     -10.625  11.407  68.928  1.00  0.00    -0.202 A  
HETATM   22  O   UNL     1     -10.381  12.639  68.386  1.00  0.00    -0.228 OA 
HETATM   23  C   UNL     1      -9.923  10.342  68.387  1.00  0.00    -0.173 A  
HETATM   24  H   UNL     1      -9.768  12.777  67.673  1.00  0.00     0.000 HD 
HETATM   25  C   UNL     1     -10.109   9.061  68.905  1.00  0.00    -0.207 A  
ENDBRANCH   9  12
ENDBRANCH   3   9
ENDBRANCH   2   3
TORSDOF 5
ENDMDL
MODEL      175
REMARK 921   NORMALIZED FREE ENERGY PREDICTED BY IDOCK:   -4.15 KCAL/MOL
REMARK 922        TOTAL FREE ENERGY PREDICTED BY IDOCK:   -6.21 KCAL/MOL
REMARK 923 INTER-LIGAND FREE ENERGY PREDICTED BY IDOCK:   -5.88 KCAL/MOL
REMARK 924 INTRA-LIGAND FREE ENERGY PREDICTED BY IDOCK:   -0.33 KCAL/MOL
REMARK 927      BINDING AFFINITY PREDICTED BY RF-SCORE:    0.00 PKD
ROOT
HETATM    1  C   UNL     1      -9.408  16.098  67.471  1.00  0.00    -0.217 C  
HETATM    2  C   UNL     1      -9.340  15.299  66.173  1.00  0.00    -0.360 C  
ENDROOT
BRANCH   2   3
HETATM    3  C   UNL     1      -9.449  13.759  66.344  1.00  0.00    -0.243 C  
BRANCH   3   4
HETATM    4  N   UNL     1     -10.781  13.231  65.957  1.00  0.00    -0.275 NA 
HETATM    5  H   UNL     1     -11.388  12.764  66.630  1.00  0.00     0.000 HD 
BRANCH   4   6
HETATM    6  C   UNL     1     -11.182  13.416  64.556  1.00  0.00    -0.372 C  
HETATM    7  C   UNL     1     -12.397  14.349  64.531  1.00  0.00    -0.440 C  
HETATM    8  C   UNL     1     -11.525  12.106  63.846  1.00  0.00    -0.519 C  
ENDBRANCH   4   6
ENDBRANCH   3   4
BRANCH   3   9
HETATM    9  C   UNL     1      -9.085  13.331  67.812  1.00  0.00    -0.202 C  
HETATM   10  H   UNL     1      -7.623  12.358  68.737  1.00  0.00     0.000 HD 
HETATM   11  O   UNL     1      -7.844  12.617  67.850  1.00  0.00    -0.128 OA 
BRANCH   9  12
HETATM   12  C   UNL     1     -10.178  12.580  68.574  1.00  0.00    -0.210 A  
HETATM   13  C   UNL     1     -10.326  11.171  68.624  1.00  0.00    -0.219 A  
HETATM   14  C   UNL     1      -9.501  10.238  67.838  1.00  0.00    -0.154 C  
HETATM   15  C   UNL     1      -9.561   8.916  68.045  1.00  0.00    -0.167 C  
HETATM   16  C   UNL     1     -10.482   8.341  69.046  1.00  0.00    -0.197 C  
HETATM   17  N   UNL     1     -11.338   9.207  69.660  1.00  0.00    -0.437 N  
HETATM   18  O   UNL     1     -10.478   7.141  69.297  1.00  0.00    -0.201 OA 
HETATM   19  H   UNL     1     -12.048   8.820  70.282  1.00  0.00     0.000 HD 
HETATM   20  C   UNL     1     -11.300  10.602  69.485  1.00  0.00    -0.277 A  
HETATM   21  C   UNL     1     -12.169  11.425  70.208  1.00  0.00    -0.349 A  
HETATM   22  O   UNL     1     -13.149  10.934  71.026  1.00  0.00    -0.331 OA 
HETATM   23  C   UNL     1     -12.066  12.804  70.124  1.00  0.00    -0.370 A  
HETATM   24  H   UNL     1     -13.740  11.492  71.517  1.00  0.00     0.000 HD 
HETATM   25  C   UNL     1     -11.076  13.373  69.324  1.00  0.00    -0.216 A  
ENDBRANCH   9  12
ENDBRANCH   3   9
ENDBRANCH   2   3
TORSDOF 5
ENDMDL
MODEL      176
REMARK 921   NORMALIZED FREE ENERGY PREDICTED BY IDOCK:   -4.14 KCAL/MOL
REMARK 922        TOTAL FREE ENERGY PREDICTED BY IDOCK:   -6.21 KCAL/MOL
REMARK 923 INTER-LIGAND FREE ENERGY PREDICTED BY IDOCK:   -5.71 KCAL/MOL
REMARK 924 INTRA-LIGAND FREE ENERGY PREDICTED BY IDOCK:   -0.50 KCAL/MOL
REMARK 927      BINDING AFFINITY PREDICTED BY RF-SCORE:    0.00 PKD
ROOT
HETATM    1  C   UNL     1      -9.970   5.943  66.266  1.00  0.00    -0.107 C  
HETATM    2  C   UNL     1     -10.480   7.310  66.710  1.00  0.00    -0.311 C  
ENDROOT
BRANCH   2   3
HETATM    3  C   UNL     1      -9.744   7.918  67.936  1.00  0.00    -0.155 C  
BRANCH   3   4
HETATM    4  N   UNL     1     -10.674   8.339  69.013  1.00  0.00    -0.392 NA 
HETATM    5  H   UNL     1     -11.290   9.144  68.905  1.00  0.00     0.000 HD 
BRANCH   4   6
HETATM    6  C   UNL     1     -10.664   7.536  70.244  1.00  0.00    -0.238 C  
HETATM    7  C   UNL     1      -9.362   6.730  70.272  1.00  0.00    -0.159 C  
HETATM    8  C   UNL     1     -11.858   6.589  70.358  1.00  0.00    -0.378 C  
ENDBRANCH   4   6
ENDBRANCH   3   4
BRANCH   3   9
HETATM    9  C   UNL     1      -8.820   9.113  67.499  1.00  0.00    -0.119 C  
HETATM   10  H   UNL     1      -7.966  10.693  68.344  1.00  0.00     0.000 HD 
HETATM   11  O   UNL     1      -8.524   9.971  68.607  1.00  0.00    -0.110 OA 
BRANCH   9  12
HETATM   12  C   UNL     1      -9.305   9.919  66.291  1.00  0.00    -0.224 A  
HETATM   13  C   UNL     1     -10.218  11.000  66.338  1.00  0.00    -0.284 A  
HETATM   14  C   UNL     1     -10.922  11.420  67.561  1.00  0.00    -0.312 C  
HETATM   15  C   UNL     1     -11.642  12.548  67.595  1.00  0.00    -0.416 C  
HETATM   16  C   UNL     1     -11.785  13.399  66.397  1.00  0.00    -0.368 C  
HETATM   17  N   UNL     1     -11.247  12.921  65.238  1.00  0.00    -0.284 N  
HETATM   18  O   UNL     1     -12.372  14.474  66.447  1.00  0.00    -0.350 OA 
HETATM   19  H   UNL     1     -11.417  13.443  64.379  1.00  0.00     0.000 HD 
HETATM   20  C   UNL     1     -10.471  11.751  65.160  1.00  0.00    -0.283 A  
HETATM   21  C   UNL     1      -9.897  11.369  63.943  1.00  0.00    -0.300 A  
HETATM   22  O   UNL     1     -10.131  12.032  62.771  1.00  0.00    -0.432 OA 
HETATM   23  C   UNL     1      -9.043  10.279  63.879  1.00  0.00    -0.284 A  
HETATM   24  H   UNL     1      -9.742  11.773  61.944  1.00  0.00     0.000 HD 
HETATM   25  C   UNL     1      -8.745   9.570  65.041  1.00  0.00    -0.205 A  
ENDBRANCH   9  12
ENDBRANCH   3   9
ENDBRANCH   2   3
TORSDOF 5
ENDMDL
MODEL      177
REMARK 921   NORMALIZED FREE ENERGY PREDICTED BY IDOCK:   -4.13 KCAL/MOL
REMARK 922        TOTAL FREE ENERGY PREDICTED BY IDOCK:   -6.19 KCAL/MOL
REMARK 923 INTER-LIGAND FREE ENERGY PREDICTED BY IDOCK:   -5.41 KCAL/MOL
REMARK 924 INTRA-LIGAND FREE ENERGY PREDICTED BY IDOCK:   -0.78 KCAL/MOL
REMARK 927      BINDING AFFINITY PREDICTED BY RF-SCORE:    0.00 PKD
ROOT
HETATM    1  C   UNL     1      -6.919   7.259  68.847  1.00  0.00    -0.078 C  
HETATM    2  C   UNL     1      -8.163   6.377  68.790  1.00  0.00    -0.121 C  
ENDROOT
BRANCH   2   3
HETATM    3  C   UNL     1      -9.048   6.407  70.066  1.00  0.00    -0.150 C  
BRANCH   3   4
HETATM    4  N   UNL     1      -8.794   5.256  70.968  1.00  0.00    -0.132 NA 
HETATM    5  H   UNL     1      -7.990   5.235  71.595  1.00  0.00     0.000 HD 
BRANCH   4   6
HETATM    6  C   UNL     1      -9.758   4.149  70.913  1.00  0.00    -0.189 C  
HETATM    7  C   UNL     1     -10.156   3.797  72.350  1.00  0.00    -0.237 C  
HETATM    8  C   UNL     1      -9.213   2.905  70.211  1.00  0.00    -0.209 C  
ENDBRANCH   4   6
ENDBRANCH   3   4
BRANCH   3   9
HETATM    9  C   UNL     1     -10.572   6.495  69.690  1.00  0.00    -0.243 C  
HETATM   10  H   UNL     1     -11.668   6.728  68.052  1.00  0.00     0.000 HD 
HETATM   11  O   UNL     1     -10.748   6.675  68.280  1.00  0.00    -0.216 OA 
BRANCH   9  12
HETATM   12  C   UNL     1     -11.394   7.513  70.484  1.00  0.00    -0.279 A  
HETATM   13  C   UNL     1     -11.350   8.918  70.310  1.00  0.00    -0.179 A  
HETATM   14  C   UNL     1     -10.405   9.599  69.408  1.00  0.00    -0.226 C  
HETATM   15  C   UNL     1     -10.514  10.907  69.149  1.00  0.00    -0.248 C  
HETATM   16  C   UNL     1     -11.566  11.726  69.783  1.00  0.00    -0.299 C  
HETATM   17  N   UNL     1     -12.339  11.110  70.723  1.00  0.00    -0.382 N  
HETATM   18  O   UNL     1     -11.721  12.905  69.484  1.00  0.00    -0.303 OA 
HETATM   19  H   UNL     1     -13.007  11.680  71.243  1.00  0.00     0.000 HD 
HETATM   20  C   UNL     1     -12.271   9.736  71.015  1.00  0.00    -0.347 A  
HETATM   21  C   UNL     1     -13.150   9.171  71.944  1.00  0.00    -0.411 A  
HETATM   22  O   UNL     1     -14.034   9.913  72.677  1.00  0.00    -0.603 OA 
HETATM   23  C   UNL     1     -13.163   7.802  72.158  1.00  0.00    -0.137 A  
HETATM   24  H   UNL     1     -14.631   9.529  73.308  1.00  0.00     0.000 HD 
HETATM   25  C   UNL     1     -12.301   6.984  71.430  1.00  0.00    -0.419 A  
ENDBRANCH   9  12
ENDBRANCH   3   9
ENDBRANCH   2   3
TORSDOF 5
ENDMDL
MODEL      178
REMARK 921   NORMALIZED FREE ENERGY PREDICTED BY IDOCK:   -4.13 KCAL/MOL
REMARK 922        TOTAL FREE ENERGY PREDICTED BY IDOCK:   -6.18 KCAL/MOL
REMARK 923 INTER-LIGAND FREE ENERGY PREDICTED BY IDOCK:   -5.37 KCAL/MOL
REMARK 924 INTRA-LIGAND FREE ENERGY PREDICTED BY IDOCK:   -0.81 KCAL/MOL
REMARK 927      BINDING AFFINITY PREDICTED BY RF-SCORE:    0.00 PKD
ROOT
HETATM    1  C   UNL     1     -11.063   6.114  72.600  1.00  0.00    -0.308 C  
HETATM    2  C   UNL     1     -10.662   7.568  72.836  1.00  0.00    -0.411 C  
ENDROOT
BRANCH   2   3
HETATM    3  C   UNL     1      -9.843   8.217  71.688  1.00  0.00    -0.199 C  
BRANCH   3   4
HETATM    4  N   UNL     1      -8.692   9.013  72.182  1.00  0.00    -0.322 NA 
HETATM    5  H   UNL     1      -8.807   9.969  72.519  1.00  0.00     0.000 HD 
BRANCH   4   6
HETATM    6  C   UNL     1      -7.379   8.356  72.164  1.00  0.00    -0.098 C  
HETATM    7  C   UNL     1      -7.382   7.324  71.031  1.00  0.00    -0.074 C  
HETATM    8  C   UNL     1      -7.026   7.669  73.483  1.00  0.00    -0.097 C  
ENDBRANCH   4   6
ENDBRANCH   3   4
BRANCH   3   9
HETATM    9  C   UNL     1     -10.768   9.090  70.763  1.00  0.00    -0.241 C  
HETATM   10  H   UNL     1     -12.712   9.345  70.453  1.00  0.00     0.000 HD 
HETATM   11  O   UNL     1     -12.152   8.818  71.012  1.00  0.00    -0.289 OA 
BRANCH   9  12
HETATM   12  C   UNL     1     -10.453   9.033  69.267  1.00  0.00    -0.238 A  
HETATM   13  C   UNL     1     -10.330   7.849  68.498  1.00  0.00    -0.229 A  
HETATM   14  C   UNL     1     -10.373   6.495  69.074  1.00  0.00    -0.226 C  
HETATM   15  C   UNL     1     -10.423   5.409  68.293  1.00  0.00    -0.191 C  
HETATM   16  C   UNL     1     -10.404   5.527  66.821  1.00  0.00    -0.269 C  
HETATM   17  N   UNL     1     -10.220   6.777  66.308  1.00  0.00    -0.437 N  
HETATM   18  O   UNL     1     -10.535   4.541  66.103  1.00  0.00    -0.272 OA 
HETATM   19  H   UNL     1     -10.106   6.870  65.299  1.00  0.00     0.000 HD 
HETATM   20  C   UNL     1     -10.178   7.945  67.090  1.00  0.00    -0.290 A  
HETATM   21  C   UNL     1     -10.055   9.196  66.477  1.00  0.00    -0.287 A  
HETATM   22  O   UNL     1      -9.872   9.349  65.131  1.00  0.00    -0.447 OA 
HETATM   23  C   UNL     1     -10.122  10.358  67.230  1.00  0.00    -0.244 A  
HETATM   24  H   UNL     1      -9.788  10.199  64.715  1.00  0.00     0.000 HD 
HETATM   25  C   UNL     1     -10.328  10.276  68.606  1.00  0.00    -0.203 A  
ENDBRANCH   9  12
ENDBRANCH   3   9
ENDBRANCH   2   3
TORSDOF 5
ENDMDL
MODEL      179
REMARK 921   NORMALIZED FREE ENERGY PREDICTED BY IDOCK:   -4.11 KCAL/MOL
REMARK 922        TOTAL FREE ENERGY PREDICTED BY IDOCK:   -6.17 KCAL/MOL
REMARK 923 INTER-LIGAND FREE ENERGY PREDICTED BY IDOCK:   -5.25 KCAL/MOL
REMARK 924 INTRA-LIGAND FREE ENERGY PREDICTED BY IDOCK:   -0.92 KCAL/MOL
REMARK 927      BINDING AFFINITY PREDICTED BY RF-SCORE:    0.00 PKD
ROOT
HETATM    1  C   UNL     1     -11.798  13.428  63.772  1.00  0.00    -0.483 C  
HETATM    2  C   UNL     1     -11.750  11.964  64.201  1.00  0.00    -0.428 C  
ENDROOT
BRANCH   2   3
HETATM    3  C   UNL     1     -10.501  11.565  65.033  1.00  0.00    -0.290 C  
BRANCH   3   4
HETATM    4  N   UNL     1     -10.085  10.158  64.806  1.00  0.00    -0.340 NA 
HETATM    5  H   UNL     1     -10.271   9.681  63.923  1.00  0.00     0.000 HD 
BRANCH   4   6
HETATM    6  C   UNL     1      -9.392   9.488  65.914  1.00  0.00    -0.226 C  
HETATM    7  C   UNL     1      -7.963   9.175  65.457  1.00  0.00    -0.104 C  
HETATM    8  C   UNL     1     -10.080   8.201  66.368  1.00  0.00    -0.196 C  
ENDBRANCH   4   6
ENDBRANCH   3   4
BRANCH   3   9
HETATM    9  C   UNL     1     -10.737  11.836  66.564  1.00  0.00    -0.265 C  
HETATM   10  H   UNL     1     -12.219  11.669  67.872  1.00  0.00     0.000 HD 
HETATM   11  O   UNL     1     -12.076  11.505  66.947  1.00  0.00    -0.393 OA 
BRANCH   9  12
HETATM   12  C   UNL     1     -10.349  13.232  67.057  1.00  0.00    -0.246 A  
HETATM   13  C   UNL     1      -9.039  13.649  67.397  1.00  0.00    -0.222 A  
HETATM   14  C   UNL     1      -7.879  12.742  67.433  1.00  0.00    -0.172 C  
HETATM   15  C   UNL     1      -6.636  13.212  67.593  1.00  0.00    -0.165 C  
HETATM   16  C   UNL     1      -6.382  14.655  67.772  1.00  0.00    -0.152 C  
HETATM   17  N   UNL     1      -7.477  15.461  67.880  1.00  0.00    -0.129 N  
HETATM   18  O   UNL     1      -5.240  15.097  67.834  1.00  0.00    -0.121 OA 
HETATM   19  H   UNL     1      -7.329  16.446  68.101  1.00  0.00     0.000 HD 
HETATM   20  C   UNL     1      -8.799  15.014  67.703  1.00  0.00    -0.179 A  
HETATM   21  C   UNL     1      -9.860  15.921  67.761  1.00  0.00    -0.222 A  
HETATM   22  O   UNL     1      -9.695  17.239  68.084  1.00  0.00    -0.264 OA 
HETATM   23  C   UNL     1     -11.154  15.510  67.480  1.00  0.00    -0.305 A  
HETATM   24  H   UNL     1     -10.416  17.856  68.124  1.00  0.00     0.000 HD 
HETATM   25  C   UNL     1     -11.392  14.183  67.124  1.00  0.00    -0.348 A  
ENDBRANCH   9  12
ENDBRANCH   3   9
ENDBRANCH   2   3
TORSDOF 5
ENDMDL
MODEL      180
REMARK 921   NORMALIZED FREE ENERGY PREDICTED BY IDOCK:   -4.11 KCAL/MOL
REMARK 922        TOTAL FREE ENERGY PREDICTED BY IDOCK:   -6.16 KCAL/MOL
REMARK 923 INTER-LIGAND FREE ENERGY PREDICTED BY IDOCK:   -5.62 KCAL/MOL
REMARK 924 INTRA-LIGAND FREE ENERGY PREDICTED BY IDOCK:   -0.54 KCAL/MOL
REMARK 927      BINDING AFFINITY PREDICTED BY RF-SCORE:    0.00 PKD
ROOT
HETATM    1  C   UNL     1      -8.340   8.141  72.512  1.00  0.00    -0.230 C  
HETATM    2  C   UNL     1      -9.733   8.323  73.108  1.00  0.00    -0.208 C  
ENDROOT
BRANCH   2   3
HETATM    3  C   UNL     1     -10.722   7.157  72.830  1.00  0.00    -0.302 C  
BRANCH   3   4
HETATM    4  N   UNL     1     -10.154   6.126  71.926  1.00  0.00    -0.188 NA 
HETATM    5  H   UNL     1      -9.923   6.334  70.955  1.00  0.00     0.000 HD 
BRANCH   4   6
HETATM    6  C   UNL     1      -9.941   4.790  72.500  1.00  0.00    -0.166 C  
HETATM    7  C   UNL     1     -10.017   3.768  71.361  1.00  0.00    -0.178 C  
HETATM    8  C   UNL     1     -10.957   4.428  73.584  1.00  0.00    -0.374 C  
ENDBRANCH   4   6
ENDBRANCH   3   4
BRANCH   3   9
HETATM    9  C   UNL     1     -12.086   7.701  72.269  1.00  0.00    -0.256 C  
HETATM   10  H   UNL     1     -13.587   7.031  71.158  1.00  0.00     0.000 HD 
HETATM   11  O   UNL     1     -12.763   6.702  71.497  1.00  0.00    -0.323 OA 
BRANCH   9  12
HETATM   12  C   UNL     1     -12.008   9.028  71.510  1.00  0.00    -0.414 A  
HETATM   13  C   UNL     1     -11.401   9.215  70.244  1.00  0.00    -0.217 A  
HETATM   14  C   UNL     1     -10.650   8.165  69.536  1.00  0.00    -0.215 C  
HETATM   15  C   UNL     1     -10.241   8.335  68.273  1.00  0.00    -0.246 C  
HETATM   16  C   UNL     1     -10.500   9.596  67.550  1.00  0.00    -0.262 C  
HETATM   17  N   UNL     1     -11.069  10.607  68.267  1.00  0.00    -0.258 N  
HETATM   18  O   UNL     1     -10.203   9.723  66.368  1.00  0.00    -0.242 OA 
HETATM   19  H   UNL     1     -11.168  11.518  67.817  1.00  0.00     0.000 HD 
HETATM   20  C   UNL     1     -11.527  10.468  69.589  1.00  0.00    -0.282 A  
HETATM   21  C   UNL     1     -12.163  11.537  70.228  1.00  0.00    -0.332 A  
HETATM   22  O   UNL     1     -12.284  12.776  69.662  1.00  0.00    -0.234 OA 
HETATM   23  C   UNL     1     -12.714  11.376  71.489  1.00  0.00    -0.462 A  
HETATM   24  H   UNL     1     -12.715  13.502  70.095  1.00  0.00     0.000 HD 
HETATM   25  C   UNL     1     -12.644  10.134  72.117  1.00  0.00    -0.227 A  
ENDBRANCH   9  12
ENDBRANCH   3   9
ENDBRANCH   2   3
TORSDOF 5
ENDMDL
MODEL      181
REMARK 921   NORMALIZED FREE ENERGY PREDICTED BY IDOCK:   -4.10 KCAL/MOL
REMARK 922        TOTAL FREE ENERGY PREDICTED BY IDOCK:   -6.15 KCAL/MOL
REMARK 923 INTER-LIGAND FREE ENERGY PREDICTED BY IDOCK:   -5.83 KCAL/MOL
REMARK 924 INTRA-LIGAND FREE ENERGY PREDICTED BY IDOCK:   -0.32 KCAL/MOL
REMARK 927      BINDING AFFINITY PREDICTED BY RF-SCORE:    0.00 PKD
ROOT
HETATM    1  C   UNL     1     -10.491  13.724  65.573  1.00  0.00    -0.327 C  
HETATM    2  C   UNL     1     -11.245  14.175  66.821  1.00  0.00    -0.330 C  
ENDROOT
BRANCH   2   3
HETATM    3  C   UNL     1     -10.631  13.699  68.166  1.00  0.00    -0.247 C  
BRANCH   3   4
HETATM    4  N   UNL     1     -11.613  12.992  69.026  1.00  0.00    -0.299 NA 
HETATM    5  H   UNL     1     -12.245  13.499  69.645  1.00  0.00     0.000 HD 
BRANCH   4   6
HETATM    6  C   UNL     1     -11.628  11.525  68.942  1.00  0.00    -0.320 C  
HETATM    7  C   UNL     1     -12.184  10.981  70.262  1.00  0.00    -0.447 C  
HETATM    8  C   UNL     1     -10.250  10.919  68.676  1.00  0.00    -0.201 C  
ENDBRANCH   4   6
ENDBRANCH   3   4
BRANCH   3   9
HETATM    9  C   UNL     1      -9.976  14.901  68.939  1.00  0.00    -0.233 C  
HETATM   10  H   UNL     1     -10.571  16.407  70.086  1.00  0.00     0.000 HD 
HETATM   11  O   UNL     1     -10.967  15.681  69.619  1.00  0.00    -0.241 OA 
BRANCH   9  12
HETATM   12  C   UNL     1      -9.042  15.789  68.115  1.00  0.00    -0.185 A  
HETATM   13  C   UNL     1      -9.338  17.102  67.670  1.00  0.00    -0.239 A  
HETATM   14  C   UNL     1     -10.650  17.746  67.847  1.00  0.00    -0.389 C  
HETATM   15  C   UNL     1     -10.830  19.042  67.565  1.00  0.00    -0.478 C  
HETATM   16  C   UNL     1      -9.728  19.868  67.034  1.00  0.00    -0.401 C  
HETATM   17  N   UNL     1      -8.563  19.222  66.742  1.00  0.00    -0.294 N  
HETATM   18  O   UNL     1      -9.866  21.073  66.855  1.00  0.00    -0.197 OA 
HETATM   19  H   UNL     1      -7.822  19.752  66.284  1.00  0.00     0.000 HD 
HETATM   20  C   UNL     1      -8.325  17.867  67.036  1.00  0.00    -0.234 A  
HETATM   21  C   UNL     1      -7.076  17.300  66.767  1.00  0.00    -0.212 A  
HETATM   22  O   UNL     1      -6.074  17.977  66.128  1.00  0.00    -0.173 OA 
HETATM   23  C   UNL     1      -6.796  15.998  67.152  1.00  0.00    -0.223 A  
HETATM   24  H   UNL     1      -5.225  17.591  65.945  1.00  0.00     0.000 HD 
HETATM   25  C   UNL     1      -7.766  15.257  67.825  1.00  0.00    -0.164 A  
ENDBRANCH   9  12
ENDBRANCH   3   9
ENDBRANCH   2   3
TORSDOF 5
ENDMDL
MODEL      182
REMARK 921   NORMALIZED FREE ENERGY PREDICTED BY IDOCK:   -4.10 KCAL/MOL
REMARK 922        TOTAL FREE ENERGY PREDICTED BY IDOCK:   -6.15 KCAL/MOL
REMARK 923 INTER-LIGAND FREE ENERGY PREDICTED BY IDOCK:   -5.11 KCAL/MOL
REMARK 924 INTRA-LIGAND FREE ENERGY PREDICTED BY IDOCK:   -1.04 KCAL/MOL
REMARK 927      BINDING AFFINITY PREDICTED BY RF-SCORE:    0.00 PKD
ROOT
HETATM    1  C   UNL     1      -9.060  13.119  67.924  1.00  0.00    -0.207 C  
HETATM    2  C   UNL     1      -9.592  11.722  67.621  1.00  0.00    -0.184 C  
ENDROOT
BRANCH   2   3
HETATM    3  C   UNL     1      -9.647  10.762  68.841  1.00  0.00    -0.195 C  
BRANCH   3   4
HETATM    4  N   UNL     1      -8.498   9.823  68.884  1.00  0.00    -0.123 NA 
HETATM    5  H   UNL     1      -8.379   9.091  68.184  1.00  0.00     0.000 HD 
BRANCH   4   6
HETATM    6  C   UNL     1      -7.542  10.000  69.985  1.00  0.00    -0.172 C  
HETATM    7  C   UNL     1      -6.142  10.139  69.379  1.00  0.00    -0.041 C  
HETATM    8  C   UNL     1      -7.555   8.847  70.990  1.00  0.00    -0.136 C  
ENDBRANCH   4   6
ENDBRANCH   3   4
BRANCH   3   9
HETATM    9  C   UNL     1     -11.010   9.978  68.877  1.00  0.00    -0.207 C  
HETATM   10  H   UNL     1     -12.948  10.405  68.874  1.00  0.00     0.000 HD 
HETATM   11  O   UNL     1     -12.124  10.878  68.852  1.00  0.00    -0.463 OA 
BRANCH   9  12
HETATM   12  C   UNL     1     -11.154   8.951  70.002  1.00  0.00    -0.180 A  
HETATM   13  C   UNL     1     -10.895   7.563  69.884  1.00  0.00    -0.250 A  
HETATM   14  C   UNL     1     -10.563   6.901  68.612  1.00  0.00    -0.254 C  
HETATM   15  C   UNL     1     -10.162   5.624  68.578  1.00  0.00    -0.253 C  
HETATM   16  C   UNL     1     -10.068   4.820  69.812  1.00  0.00    -0.219 C  
HETATM   17  N   UNL     1     -10.516   5.405  70.960  1.00  0.00    -0.241 N  
HETATM   18  O   UNL     1      -9.621   3.679  69.795  1.00  0.00    -0.186 OA 
HETATM   19  H   UNL     1     -10.553   4.837  71.806  1.00  0.00     0.000 HD 
HETATM   20  C   UNL     1     -10.931   6.746  71.044  1.00  0.00    -0.255 A  
HETATM   21  C   UNL     1     -11.310   7.288  72.277  1.00  0.00    -0.272 A  
HETATM   22  O   UNL     1     -11.396   6.543  73.420  1.00  0.00    -0.458 OA 
HETATM   23  C   UNL     1     -11.615   8.635  72.390  1.00  0.00    -0.385 A  
HETATM   24  H   UNL     1     -11.654   6.911  74.258  1.00  0.00     0.000 HD 
HETATM   25  C   UNL     1     -11.529   9.456  71.267  1.00  0.00    -0.433 A  
ENDBRANCH   9  12
ENDBRANCH   3   9
ENDBRANCH   2   3
TORSDOF 5
ENDMDL
MODEL      183
REMARK 921   NORMALIZED FREE ENERGY PREDICTED BY IDOCK:   -4.10 KCAL/MOL
REMARK 922        TOTAL FREE ENERGY PREDICTED BY IDOCK:   -6.15 KCAL/MOL
REMARK 923 INTER-LIGAND FREE ENERGY PREDICTED BY IDOCK:   -5.59 KCAL/MOL
REMARK 924 INTRA-LIGAND FREE ENERGY PREDICTED BY IDOCK:   -0.56 KCAL/MOL
REMARK 927      BINDING AFFINITY PREDICTED BY RF-SCORE:    0.00 PKD
ROOT
HETATM    1  C   UNL     1      -9.533   9.307  65.212  1.00  0.00    -0.234 C  
HETATM    2  C   UNL     1     -10.270  10.083  66.299  1.00  0.00    -0.285 C  
ENDROOT
BRANCH   2   3
HETATM    3  C   UNL     1      -9.381  10.570  67.475  1.00  0.00    -0.149 C  
BRANCH   3   4
HETATM    4  N   UNL     1     -10.174  11.033  68.641  1.00  0.00    -0.191 NA 
HETATM    5  H   UNL     1     -10.717  11.896  68.611  1.00  0.00     0.000 HD 
BRANCH   4   6
HETATM    6  C   UNL     1     -10.138  10.188  69.842  1.00  0.00    -0.222 C  
HETATM    7  C   UNL     1      -9.445   8.872  69.473  1.00  0.00    -0.159 C  
HETATM    8  C   UNL     1     -11.523   9.895  70.418  1.00  0.00    -0.372 C  
ENDBRANCH   4   6
ENDBRANCH   3   4
BRANCH   3   9
HETATM    9  C   UNL     1      -8.385  11.690  66.999  1.00  0.00    -0.169 C  
HETATM   10  H   UNL     1      -6.535  12.280  67.410  1.00  0.00     0.000 HD 
HETATM   11  O   UNL     1      -7.138  11.604  67.698  1.00  0.00    -0.083 OA 
BRANCH   9  12
HETATM   12  C   UNL     1      -8.933  13.118  67.019  1.00  0.00    -0.228 A  
HETATM   13  C   UNL     1      -9.845  13.661  66.081  1.00  0.00    -0.304 A  
HETATM   14  C   UNL     1     -10.298  12.946  64.876  1.00  0.00    -0.329 C  
HETATM   15  C   UNL     1     -11.285  13.429  64.112  1.00  0.00    -0.379 C  
HETATM   16  C   UNL     1     -11.936  14.716  64.429  1.00  0.00    -0.437 C  
HETATM   17  N   UNL     1     -11.407  15.431  65.463  1.00  0.00    -0.227 N  
HETATM   18  O   UNL     1     -12.896  15.119  63.782  1.00  0.00    -0.636 OA 
HETATM   19  H   UNL     1     -11.777  16.366  65.639  1.00  0.00     0.000 HD 
HETATM   20  C   UNL     1     -10.382  14.956  66.301  1.00  0.00    -0.294 A  
HETATM   21  C   UNL     1      -9.946  15.727  67.383  1.00  0.00    -0.237 A  
HETATM   22  O   UNL     1     -10.402  16.993  67.625  1.00  0.00    -0.310 OA 
HETATM   23  C   UNL     1      -9.015  15.222  68.277  1.00  0.00    -0.176 A  
HETATM   24  H   UNL     1     -10.106  17.517  68.360  1.00  0.00     0.000 HD 
HETATM   25  C   UNL     1      -8.522  13.930  68.100  1.00  0.00    -0.171 A  
ENDBRANCH   9  12
ENDBRANCH   3   9
ENDBRANCH   2   3
TORSDOF 5
ENDMDL
MODEL      184
REMARK 921   NORMALIZED FREE ENERGY PREDICTED BY IDOCK:   -4.08 KCAL/MOL
REMARK 922        TOTAL FREE ENERGY PREDICTED BY IDOCK:   -6.12 KCAL/MOL
REMARK 923 INTER-LIGAND FREE ENERGY PREDICTED BY IDOCK:   -5.93 KCAL/MOL
REMARK 924 INTRA-LIGAND FREE ENERGY PREDICTED BY IDOCK:   -0.20 KCAL/MOL
REMARK 927      BINDING AFFINITY PREDICTED BY RF-SCORE:    0.00 PKD
ROOT
HETATM    1  C   UNL     1      -7.377  11.160  67.306  1.00  0.00    -0.118 C  
HETATM    2  C   UNL     1      -8.480  11.844  68.109  1.00  0.00    -0.163 C  
ENDROOT
BRANCH   2   3
HETATM    3  C   UNL     1      -9.703  12.314  67.275  1.00  0.00    -0.195 C  
BRANCH   3   4
HETATM    4  N   UNL     1     -10.354  13.521  67.842  1.00  0.00    -0.243 NA 
HETATM    5  H   UNL     1     -10.919  13.476  68.691  1.00  0.00     0.000 HD 
BRANCH   4   6
HETATM    6  C   UNL     1     -10.146  14.784  67.122  1.00  0.00    -0.240 C  
HETATM    7  C   UNL     1     -10.883  15.891  67.884  1.00  0.00    -0.327 C  
HETATM    8  C   UNL     1     -10.635  14.743  65.674  1.00  0.00    -0.353 C  
ENDBRANCH   4   6
ENDBRANCH   3   4
BRANCH   3   9
HETATM    9  C   UNL     1     -10.744  11.149  67.099  1.00  0.00    -0.259 C  
HETATM   10  H   UNL     1     -12.715  10.946  66.996  1.00  0.00     0.000 HD 
HETATM   11  O   UNL     1     -12.086  11.650  67.102  1.00  0.00    -0.575 OA 
BRANCH   9  12
HETATM   12  C   UNL     1     -10.591   9.973  68.066  1.00  0.00    -0.280 A  
HETATM   13  C   UNL     1     -11.167   9.890  69.357  1.00  0.00    -0.196 A  
HETATM   14  C   UNL     1     -11.902  10.996  69.994  1.00  0.00    -0.435 C  
HETATM   15  C   UNL     1     -12.571  10.816  71.139  1.00  0.00    -0.532 C  
HETATM   16  C   UNL     1     -12.571   9.509  71.826  1.00  0.00    -0.405 C  
HETATM   17  N   UNL     1     -11.770   8.539  71.299  1.00  0.00    -0.277 N  
HETATM   18  O   UNL     1     -13.252   9.317  72.828  1.00  0.00    -0.354 OA 
HETATM   19  H   UNL     1     -11.678   7.661  71.810  1.00  0.00     0.000 HD 
HETATM   20  C   UNL     1     -11.062   8.680  70.091  1.00  0.00    -0.192 A  
HETATM   21  C   UNL     1     -10.318   7.610  69.585  1.00  0.00    -0.213 A  
HETATM   22  O   UNL     1     -10.154   6.433  70.262  1.00  0.00    -0.176 OA 
HETATM   23  C   UNL     1      -9.708   7.702  68.344  1.00  0.00    -0.164 A  
HETATM   24  H   UNL     1      -9.648   5.706  69.918  1.00  0.00     0.000 HD 
HETATM   25  C   UNL     1      -9.851   8.866  67.592  1.00  0.00    -0.229 A  
ENDBRANCH   9  12
ENDBRANCH   3   9
ENDBRANCH   2   3
TORSDOF 5
ENDMDL
MODEL      185
REMARK 921   NORMALIZED FREE ENERGY PREDICTED BY IDOCK:   -4.07 KCAL/MOL
REMARK 922        TOTAL FREE ENERGY PREDICTED BY IDOCK:   -6.11 KCAL/MOL
REMARK 923 INTER-LIGAND FREE ENERGY PREDICTED BY IDOCK:   -5.41 KCAL/MOL
REMARK 924 INTRA-LIGAND FREE ENERGY PREDICTED BY IDOCK:   -0.71 KCAL/MOL
REMARK 927      BINDING AFFINITY PREDICTED BY RF-SCORE:    0.00 PKD
ROOT
HETATM    1  C   UNL     1      -9.559   8.631  66.523  1.00  0.00    -0.303 C  
HETATM    2  C   UNL     1      -8.981  10.042  66.463  1.00  0.00    -0.162 C  
ENDROOT
BRANCH   2   3
HETATM    3  C   UNL     1      -9.238  10.910  67.725  1.00  0.00    -0.153 C  
BRANCH   3   4
HETATM    4  N   UNL     1      -8.892  10.206  68.986  1.00  0.00    -0.155 NA 
HETATM    5  H   UNL     1      -9.581   9.657  69.499  1.00  0.00     0.000 HD 
BRANCH   4   6
HETATM    6  C   UNL     1      -7.507  10.339  69.457  1.00  0.00    -0.142 C  
HETATM    7  C   UNL     1      -6.922  11.619  68.851  1.00  0.00    -0.109 C  
HETATM    8  C   UNL     1      -6.625   9.146  69.089  1.00  0.00    -0.050 C  
ENDBRANCH   4   6
ENDBRANCH   3   4
BRANCH   3   9
HETATM    9  C   UNL     1     -10.724  11.420  67.762  1.00  0.00    -0.211 C  
HETATM   10  H   UNL     1     -12.243  11.609  66.498  1.00  0.00     0.000 HD 
HETATM   11  O   UNL     1     -11.344  11.300  66.477  1.00  0.00    -0.312 OA 
BRANCH   9  12
HETATM   12  C   UNL     1     -10.930  12.819  68.347  1.00  0.00    -0.281 A  
HETATM   13  C   UNL     1     -11.703  13.124  69.495  1.00  0.00    -0.382 A  
HETATM   14  C   UNL     1     -12.517  12.131  70.216  1.00  0.00    -0.164 C  
HETATM   15  C   UNL     1     -13.092  12.426  71.388  1.00  0.00    -0.299 C  
HETATM   16  C   UNL     1     -12.959  13.768  71.988  1.00  0.00    -0.345 C  
HETATM   17  N   UNL     1     -12.324  14.714  71.239  1.00  0.00    -0.321 N  
HETATM   18  O   UNL     1     -13.413  14.015  73.101  1.00  0.00    -0.593 OA 
HETATM   19  H   UNL     1     -12.305  15.672  71.590  1.00  0.00     0.000 HD 
HETATM   20  C   UNL     1     -11.692  14.446  70.011  1.00  0.00    -0.298 A  
HETATM   21  C   UNL     1     -11.002  15.460  69.341  1.00  0.00    -0.276 A  
HETATM   22  O   UNL     1     -10.984  16.758  69.771  1.00  0.00    -0.384 OA 
HETATM   23  C   UNL     1     -10.286  15.180  68.187  1.00  0.00    -0.227 A  
HETATM   24  H   UNL     1     -10.515  17.447  69.316  1.00  0.00     0.000 HD 
HETATM   25  C   UNL     1     -10.245  13.874  67.703  1.00  0.00    -0.242 A  
ENDBRANCH   9  12
ENDBRANCH   3   9
ENDBRANCH   2   3
TORSDOF 5
ENDMDL
MODEL      186
REMARK 921   NORMALIZED FREE ENERGY PREDICTED BY IDOCK:   -4.06 KCAL/MOL
REMARK 922        TOTAL FREE ENERGY PREDICTED BY IDOCK:   -6.10 KCAL/MOL
REMARK 923 INTER-LIGAND FREE ENERGY PREDICTED BY IDOCK:   -5.96 KCAL/MOL
REMARK 924 INTRA-LIGAND FREE ENERGY PREDICTED BY IDOCK:   -0.14 KCAL/MOL
REMARK 927      BINDING AFFINITY PREDICTED BY RF-SCORE:    0.00 PKD
ROOT
HETATM    1  C   UNL     1     -10.458   5.766  67.503  1.00  0.00    -0.310 C  
HETATM    2  C   UNL     1     -10.946   7.202  67.668  1.00  0.00    -0.226 C  
ENDROOT
BRANCH   2   3
HETATM    3  C   UNL     1     -10.386   7.947  68.910  1.00  0.00    -0.213 C  
BRANCH   3   4
HETATM    4  N   UNL     1     -11.447   8.332  69.875  1.00  0.00    -0.444 NA 
HETATM    5  H   UNL     1     -12.150   9.035  69.645  1.00  0.00     0.000 HD 
BRANCH   4   6
HETATM    6  C   UNL     1     -11.435   7.651  71.176  1.00  0.00    -0.275 C  
HETATM    7  C   UNL     1     -10.389   6.533  71.115  1.00  0.00    -0.237 C  
HETATM    8  C   UNL     1     -12.792   7.064  71.565  1.00  0.00    -0.420 C  
ENDBRANCH   4   6
ENDBRANCH   3   4
BRANCH   3   9
HETATM    9  C   UNL     1      -9.543   9.202  68.479  1.00  0.00    -0.148 C  
HETATM   10  H   UNL     1      -8.336  10.523  69.336  1.00  0.00     0.000 HD 
HETATM   11  O   UNL     1      -8.846   9.765  69.596  1.00  0.00    -0.178 OA 
BRANCH   9  12
HETATM   12  C   UNL     1     -10.304  10.278  67.703  1.00  0.00    -0.264 A  
HETATM   13  C   UNL     1     -11.034  11.346  68.280  1.00  0.00    -0.266 A  
HETATM   14  C   UNL     1     -11.254  11.493  69.729  1.00  0.00    -0.237 C  
HETATM   15  C   UNL     1     -11.801  12.604  70.238  1.00  0.00    -0.295 C  
HETATM   16  C   UNL     1     -12.234  13.712  69.364  1.00  0.00    -0.259 C  
HETATM   17  N   UNL     1     -12.154  13.498  68.019  1.00  0.00    -0.323 N  
HETATM   18  O   UNL     1     -12.656  14.763  69.832  1.00  0.00    -0.273 OA 
HETATM   19  H   UNL     1     -12.538  14.210  67.396  1.00  0.00     0.000 HD 
HETATM   20  C   UNL     1     -11.574  12.355  67.441  1.00  0.00    -0.365 A  
HETATM   21  C   UNL     1     -11.469  12.248  66.051  1.00  0.00    -0.381 A  
HETATM   22  O   UNL     1     -11.999  13.170  65.192  1.00  0.00    -0.350 OA 
HETATM   23  C   UNL     1     -10.802  11.178  65.476  1.00  0.00    -0.205 A  
HETATM   24  H   UNL     1     -11.929  13.097  64.248  1.00  0.00     0.000 HD 
HETATM   25  C   UNL     1     -10.220  10.210  66.293  1.00  0.00    -0.288 A  
ENDBRANCH   9  12
ENDBRANCH   3   9
ENDBRANCH   2   3
TORSDOF 5
ENDMDL
MODEL      187
REMARK 921   NORMALIZED FREE ENERGY PREDICTED BY IDOCK:   -4.06 KCAL/MOL
REMARK 922        TOTAL FREE ENERGY PREDICTED BY IDOCK:   -6.09 KCAL/MOL
REMARK 923 INTER-LIGAND FREE ENERGY PREDICTED BY IDOCK:   -6.15 KCAL/MOL
REMARK 924 INTRA-LIGAND FREE ENERGY PREDICTED BY IDOCK:    0.06 KCAL/MOL
REMARK 927      BINDING AFFINITY PREDICTED BY RF-SCORE:    0.00 PKD
ROOT
HETATM    1  C   UNL     1      -8.298  10.047  65.700  1.00  0.00    -0.148 C  
HETATM    2  C   UNL     1      -9.277  10.080  66.870  1.00  0.00    -0.169 C  
ENDROOT
BRANCH   2   3
HETATM    3  C   UNL     1      -9.378  11.447  67.602  1.00  0.00    -0.159 C  
BRANCH   3   4
HETATM    4  N   UNL     1      -8.775  11.417  68.958  1.00  0.00    -0.375 NA 
HETATM    5  H   UNL     1      -9.054  12.078  69.683  1.00  0.00     0.000 HD 
BRANCH   4   6
HETATM    6  C   UNL     1      -7.757  10.387  69.206  1.00  0.00    -0.140 C  
HETATM    7  C   UNL     1      -8.371   9.327  70.126  1.00  0.00    -0.189 C  
HETATM    8  C   UNL     1      -6.478  10.939  69.837  1.00  0.00    -0.144 C  
ENDBRANCH   4   6
ENDBRANCH   3   4
BRANCH   3   9
HETATM    9  C   UNL     1     -10.869  11.940  67.665  1.00  0.00    -0.227 C  
HETATM   10  H   UNL     1     -11.895  13.574  67.199  1.00  0.00     0.000 HD 
HETATM   11  O   UNL     1     -10.994  13.275  67.161  1.00  0.00    -0.265 OA 
BRANCH   9  12
HETATM   12  C   UNL     1     -11.558  11.796  69.024  1.00  0.00    -0.372 A  
HETATM   13  C   UNL     1     -11.979  12.868  69.850  1.00  0.00    -0.377 A  
HETATM   14  C   UNL     1     -11.696  14.283  69.556  1.00  0.00    -0.366 C  
HETATM   15  C   UNL     1     -12.256  15.265  70.271  1.00  0.00    -0.403 C  
HETATM   16  C   UNL     1     -13.155  14.968  71.403  1.00  0.00    -0.389 C  
HETATM   17  N   UNL     1     -13.291  13.656  71.750  1.00  0.00    -0.380 N  
HETATM   18  O   UNL     1     -13.737  15.864  72.006  1.00  0.00    -0.376 OA 
HETATM   19  H   UNL     1     -13.829  13.434  72.588  1.00  0.00     0.000 HD 
HETATM   20  C   UNL     1     -12.734  12.591  71.019  1.00  0.00    -0.225 A  
HETATM   21  C   UNL     1     -12.981  11.270  71.404  1.00  0.00    -0.379 A  
HETATM   22  O   UNL     1     -13.672  10.943  72.538  1.00  0.00    -0.428 OA 
HETATM   23  C   UNL     1     -12.527  10.215  70.629  1.00  0.00    -0.372 A  
HETATM   24  H   UNL     1     -13.840  10.046  72.800  1.00  0.00     0.000 HD 
HETATM   25  C   UNL     1     -11.832  10.476  69.449  1.00  0.00    -0.271 A  
ENDBRANCH   9  12
ENDBRANCH   3   9
ENDBRANCH   2   3
TORSDOF 5
ENDMDL
MODEL      188
REMARK 921   NORMALIZED FREE ENERGY PREDICTED BY IDOCK:   -4.06 KCAL/MOL
REMARK 922        TOTAL FREE ENERGY PREDICTED BY IDOCK:   -6.09 KCAL/MOL
REMARK 923 INTER-LIGAND FREE ENERGY PREDICTED BY IDOCK:   -5.96 KCAL/MOL
REMARK 924 INTRA-LIGAND FREE ENERGY PREDICTED BY IDOCK:   -0.13 KCAL/MOL
REMARK 927      BINDING AFFINITY PREDICTED BY RF-SCORE:    0.00 PKD
ROOT
HETATM    1  C   UNL     1      -7.092  13.994  67.807  1.00  0.00    -0.183 C  
HETATM    2  C   UNL     1      -8.230  13.009  68.056  1.00  0.00    -0.161 C  
ENDROOT
BRANCH   2   3
HETATM    3  C   UNL     1      -9.655  13.626  68.007  1.00  0.00    -0.216 C  
BRANCH   3   4
HETATM    4  N   UNL     1     -10.083  14.187  69.313  1.00  0.00    -0.435 NA 
HETATM    5  H   UNL     1      -9.601  13.951  70.180  1.00  0.00     0.000 HD 
BRANCH   4   6
HETATM    6  C   UNL     1     -11.233  15.100  69.293  1.00  0.00    -0.278 C  
HETATM    7  C   UNL     1     -10.825  16.391  70.011  1.00  0.00    -0.306 C  
HETATM    8  C   UNL     1     -12.481  14.516  69.956  1.00  0.00    -0.348 C  
ENDBRANCH   4   6
ENDBRANCH   3   4
BRANCH   3   9
HETATM    9  C   UNL     1     -10.702  12.578  67.480  1.00  0.00    -0.225 C  
HETATM   10  H   UNL     1     -11.663  10.987  68.175  1.00  0.00     0.000 HD 
HETATM   11  O   UNL     1     -11.030  11.621  68.493  1.00  0.00    -0.193 OA 
BRANCH   9  12
HETATM   12  C   UNL     1     -10.344  11.889  66.162  1.00  0.00    -0.261 A  
HETATM   13  C   UNL     1      -9.741  10.613  66.040  1.00  0.00    -0.258 A  
HETATM   14  C   UNL     1      -9.264   9.824  67.188  1.00  0.00    -0.159 C  
HETATM   15  C   UNL     1      -8.857   8.557  67.038  1.00  0.00    -0.144 C  
HETATM   16  C   UNL     1      -8.841   7.913  65.710  1.00  0.00    -0.119 C  
HETATM   17  N   UNL     1      -9.149   8.702  64.642  1.00  0.00    -0.382 N  
HETATM   18  O   UNL     1      -8.550   6.728  65.582  1.00  0.00    -0.152 OA 
HETATM   19  H   UNL     1      -9.049   8.306  63.707  1.00  0.00     0.000 HD 
HETATM   20  C   UNL     1      -9.595  10.031  64.753  1.00  0.00    -0.308 A  
HETATM   21  C   UNL     1      -9.957  10.749  63.609  1.00  0.00    -0.345 A  
HETATM   22  O   UNL     1      -9.807  10.254  62.343  1.00  0.00    -0.695 OA 
HETATM   23  C   UNL     1     -10.500  12.019  63.718  1.00  0.00    -0.469 A  
HETATM   24  H   UNL     1     -10.053  10.741  61.566  1.00  0.00     0.000 HD 
HETATM   25  C   UNL     1     -10.699  12.577  64.979  1.00  0.00    -0.326 A  
ENDBRANCH   9  12
ENDBRANCH   3   9
ENDBRANCH   2   3
TORSDOF 5
ENDMDL
MODEL      189
REMARK 921   NORMALIZED FREE ENERGY PREDICTED BY IDOCK:   -4.05 KCAL/MOL
REMARK 922        TOTAL FREE ENERGY PREDICTED BY IDOCK:   -6.09 KCAL/MOL
REMARK 923 INTER-LIGAND FREE ENERGY PREDICTED BY IDOCK:   -4.91 KCAL/MOL
REMARK 924 INTRA-LIGAND FREE ENERGY PREDICTED BY IDOCK:   -1.17 KCAL/MOL
REMARK 927      BINDING AFFINITY PREDICTED BY RF-SCORE:    0.00 PKD
ROOT
HETATM    1  C   UNL     1     -10.439   4.979  71.210  1.00  0.00    -0.213 C  
HETATM    2  C   UNL     1     -10.011   5.688  69.928  1.00  0.00    -0.268 C  
ENDROOT
BRANCH   2   3
HETATM    3  C   UNL     1     -10.227   7.226  69.926  1.00  0.00    -0.205 C  
BRANCH   3   4
HETATM    4  N   UNL     1     -11.542   7.622  70.492  1.00  0.00    -0.424 NA 
HETATM    5  H   UNL     1     -12.417   7.391  70.022  1.00  0.00     0.000 HD 
BRANCH   4   6
HETATM    6  C   UNL     1     -11.518   8.360  71.761  1.00  0.00    -0.301 C  
HETATM    7  C   UNL     1     -12.492   9.537  71.642  1.00  0.00    -0.476 C  
HETATM    8  C   UNL     1     -10.129   8.878  72.135  1.00  0.00    -0.287 C  
ENDBRANCH   4   6
ENDBRANCH   3   4
BRANCH   3   9
HETATM    9  C   UNL     1     -10.042   7.816  68.480  1.00  0.00    -0.199 C  
HETATM   10  H   UNL     1      -9.339   7.209  66.727  1.00  0.00     0.000 HD 
HETATM   11  O   UNL     1      -9.452   6.853  67.600  1.00  0.00    -0.124 OA 
BRANCH   9  12
HETATM   12  C   UNL     1      -9.313   9.159  68.401  1.00  0.00    -0.139 A  
HETATM   13  C   UNL     1      -9.933  10.432  68.412  1.00  0.00    -0.177 A  
HETATM   14  C   UNL     1     -11.392  10.629  68.383  1.00  0.00    -0.348 C  
HETATM   15  C   UNL     1     -11.933  11.839  68.566  1.00  0.00    -0.279 C  
HETATM   16  C   UNL     1     -11.086  13.031  68.773  1.00  0.00    -0.270 C  
HETATM   17  N   UNL     1      -9.739  12.853  68.654  1.00  0.00    -0.404 N  
HETATM   18  O   UNL     1     -11.579  14.125  69.026  1.00  0.00    -0.262 OA 
HETATM   19  H   UNL     1      -9.140  13.678  68.696  1.00  0.00     0.000 HD 
HETATM   20  C   UNL     1      -9.127  11.599  68.477  1.00  0.00    -0.157 A  
HETATM   21  C   UNL     1      -7.733  11.498  68.435  1.00  0.00    -0.129 A  
HETATM   22  O   UNL     1      -6.908  12.587  68.459  1.00  0.00    -0.071 OA 
HETATM   23  C   UNL     1      -7.120  10.256  68.371  1.00  0.00    -0.078 A  
HETATM   24  H   UNL     1      -5.961  12.518  68.430  1.00  0.00     0.000 HD 
HETATM   25  C   UNL     1      -7.901   9.102  68.363  1.00  0.00    -0.102 A  
ENDBRANCH   9  12
ENDBRANCH   3   9
ENDBRANCH   2   3
TORSDOF 5
ENDMDL
MODEL      190
REMARK 921   NORMALIZED FREE ENERGY PREDICTED BY IDOCK:   -4.04 KCAL/MOL
REMARK 922        TOTAL FREE ENERGY PREDICTED BY IDOCK:   -6.07 KCAL/MOL
REMARK 923 INTER-LIGAND FREE ENERGY PREDICTED BY IDOCK:   -5.68 KCAL/MOL
REMARK 924 INTRA-LIGAND FREE ENERGY PREDICTED BY IDOCK:   -0.39 KCAL/MOL
REMARK 927      BINDING AFFINITY PREDICTED BY RF-SCORE:    0.00 PKD
ROOT
HETATM    1  C   UNL     1     -10.426  11.670  62.956  1.00  0.00    -0.256 C  
HETATM    2  C   UNL     1      -9.688  12.368  64.094  1.00  0.00    -0.025 C  
ENDROOT
BRANCH   2   3
HETATM    3  C   UNL     1     -10.502  13.471  64.825  1.00  0.00    -0.413 C  
BRANCH   3   4
HETATM    4  N   UNL     1      -9.723  14.146  65.894  1.00  0.00    -0.455 NA 
HETATM    5  H   UNL     1      -8.955  13.677  66.374  1.00  0.00     0.000 HD 
BRANCH   4   6
HETATM    6  C   UNL     1     -10.114  15.522  66.225  1.00  0.00    -0.295 C  
HETATM    7  C   UNL     1     -10.829  16.117  65.008  1.00  0.00    -0.380 C  
HETATM    8  C   UNL     1      -8.931  16.411  66.612  1.00  0.00    -0.289 C  
ENDBRANCH   4   6
ENDBRANCH   3   4
BRANCH   3   9
HETATM    9  C   UNL     1     -11.846  12.889  65.397  1.00  0.00    -0.403 C  
HETATM   10  H   UNL     1     -13.734  13.472  65.585  1.00  0.00     0.000 HD 
HETATM   11  O   UNL     1     -12.921  13.823  65.240  1.00  0.00    -0.731 OA 
BRANCH   9  12
HETATM   12  C   UNL     1     -11.781  12.356  66.830  1.00  0.00    -0.430 A  
HETATM   13  C   UNL     1     -11.366  11.055  67.204  1.00  0.00    -0.214 A  
HETATM   14  C   UNL     1     -11.050   9.990  66.236  1.00  0.00     0.443 C  
HETATM   15  C   UNL     1     -10.501   8.835  66.630  1.00  0.00    -0.240 C  
HETATM   16  C   UNL     1     -10.220   8.570  68.055  1.00  0.00    -0.213 C  
HETATM   17  N   UNL     1     -10.650   9.506  68.949  1.00  0.00    -0.219 N  
HETATM   18  O   UNL     1      -9.640   7.550  68.410  1.00  0.00    -0.147 OA 
HETATM   19  H   UNL     1     -10.555   9.300  69.944  1.00  0.00     0.000 HD 
HETATM   20  C   UNL     1     -11.217  10.739  68.579  1.00  0.00    -0.279 A  
HETATM   21  C   UNL     1     -11.567  11.673  69.560  1.00  0.00    -0.331 A  
HETATM   22  O   UNL     1     -11.479  11.413  70.899  1.00  0.00    -0.226 OA 
HETATM   23  C   UNL     1     -12.025  12.931  69.201  1.00  0.00    -0.308 A  
HETATM   24  H   UNL     1     -11.717  12.047  71.565  1.00  0.00     0.000 HD 
HETATM   25  C   UNL     1     -12.121  13.270  67.853  1.00  0.00    -0.270 A  
ENDBRANCH   9  12
ENDBRANCH   3   9
ENDBRANCH   2   3
TORSDOF 5
ENDMDL
MODEL      191
REMARK 921   NORMALIZED FREE ENERGY PREDICTED BY IDOCK:   -4.00 KCAL/MOL
REMARK 922        TOTAL FREE ENERGY PREDICTED BY IDOCK:   -6.01 KCAL/MOL
REMARK 923 INTER-LIGAND FREE ENERGY PREDICTED BY IDOCK:   -5.61 KCAL/MOL
REMARK 924 INTRA-LIGAND FREE ENERGY PREDICTED BY IDOCK:   -0.40 KCAL/MOL
REMARK 927      BINDING AFFINITY PREDICTED BY RF-SCORE:    0.00 PKD
ROOT
HETATM    1  C   UNL     1      -8.064  11.459  68.134  1.00  0.00    -0.137 C  
HETATM    2  C   UNL     1      -8.639  12.700  68.811  1.00  0.00     0.174 C  
ENDROOT
BRANCH   2   3
HETATM    3  C   UNL     1      -9.593  13.547  67.926  1.00  0.00    -0.218 C  
BRANCH   3   4
HETATM    4  N   UNL     1      -9.743  14.941  68.414  1.00  0.00    -0.204 NA 
HETATM    5  H   UNL     1      -9.986  15.146  69.384  1.00  0.00     0.000 HD 
BRANCH   4   6
HETATM    6  C   UNL     1      -9.521  16.011  67.433  1.00  0.00    -0.219 C  
HETATM    7  C   UNL     1      -9.496  15.377  66.038  1.00  0.00    -0.381 C  
HETATM    8  C   UNL     1      -8.227  16.790  67.667  1.00  0.00    -0.191 C  
ENDBRANCH   4   6
ENDBRANCH   3   4
BRANCH   3   9
HETATM    9  C   UNL     1     -10.997  12.852  67.789  1.00  0.00    -0.243 C  
HETATM   10  H   UNL     1     -12.680  13.131  66.777  1.00  0.00     0.000 HD 
HETATM   11  O   UNL     1     -11.832  13.551  66.860  1.00  0.00    -0.366 OA 
BRANCH   9  12
HETATM   12  C   UNL     1     -11.735  12.583  69.103  1.00  0.00    -0.375 A  
HETATM   13  C   UNL     1     -11.818  11.329  69.756  1.00  0.00    -0.437 A  
HETATM   14  C   UNL     1     -11.297  10.076  69.186  1.00  0.00    -0.146 C  
HETATM   15  C   UNL     1     -11.246   8.952  69.910  1.00  0.00    -0.076 C  
HETATM   16  C   UNL     1     -11.742   8.916  71.300  1.00  0.00    -0.306 C  
HETATM   17  N   UNL     1     -12.352  10.045  71.762  1.00  0.00    -0.384 N  
HETATM   18  O   UNL     1     -11.620   7.912  71.993  1.00  0.00    -0.275 OA 
HETATM   19  H   UNL     1     -12.789  10.013  72.684  1.00  0.00     0.000 HD 
HETATM   20  C   UNL     1     -12.414  11.252  71.042  1.00  0.00    -0.400 A  
HETATM   21  C   UNL     1     -12.997  12.385  71.620  1.00  0.00    -0.305 A  
HETATM   22  O   UNL     1     -13.614  12.363  72.839  1.00  0.00    -0.532 OA 
HETATM   23  C   UNL     1     -12.965  13.605  70.962  1.00  0.00    -0.303 A  
HETATM   24  H   UNL     1     -14.011  13.132  73.231  1.00  0.00     0.000 HD 
HETATM   25  C   UNL     1     -12.334  13.703  69.724  1.00  0.00    -0.285 A  
ENDBRANCH   9  12
ENDBRANCH   3   9
ENDBRANCH   2   3
TORSDOF 5
ENDMDL
MODEL      192
REMARK 921   NORMALIZED FREE ENERGY PREDICTED BY IDOCK:   -3.99 KCAL/MOL
REMARK 922        TOTAL FREE ENERGY PREDICTED BY IDOCK:   -6.00 KCAL/MOL
REMARK 923 INTER-LIGAND FREE ENERGY PREDICTED BY IDOCK:   -5.62 KCAL/MOL
REMARK 924 INTRA-LIGAND FREE ENERGY PREDICTED BY IDOCK:   -0.38 KCAL/MOL
REMARK 927      BINDING AFFINITY PREDICTED BY RF-SCORE:    0.00 PKD
ROOT
HETATM    1  C   UNL     1      -5.281  17.296  69.237  1.00  0.00    -0.158 C  
HETATM    2  C   UNL     1      -6.393  16.376  69.732  1.00  0.00    -0.186 C  
ENDROOT
BRANCH   2   3
HETATM    3  C   UNL     1      -6.836  15.280  68.723  1.00  0.00    -0.109 C  
BRANCH   3   4
HETATM    4  N   UNL     1      -5.699  14.715  67.955  1.00  0.00    -0.226 NA 
HETATM    5  H   UNL     1      -5.166  15.280  67.293  1.00  0.00     0.000 HD 
BRANCH   4   6
HETATM    6  C   UNL     1      -5.379  13.301  68.194  1.00  0.00    -0.102 C  
HETATM    7  C   UNL     1      -5.956  12.483  67.035  1.00  0.00     0.113 C  
HETATM    8  C   UNL     1      -5.926  12.772  69.520  1.00  0.00    -0.112 C  
ENDBRANCH   4   6
ENDBRANCH   3   4
BRANCH   3   9
HETATM    9  C   UNL     1      -7.947  15.826  67.755  1.00  0.00    -0.142 C  
HETATM   10  H   UNL     1      -8.449  17.557  66.924  1.00  0.00     0.000 HD 
HETATM   11  O   UNL     1      -7.777  17.227  67.509  1.00  0.00    -0.172 OA 
BRANCH   9  12
HETATM   12  C   UNL     1      -9.390  15.506  68.153  1.00  0.00    -0.197 A  
HETATM   13  C   UNL     1     -10.413  15.089  67.267  1.00  0.00    -0.265 A  
HETATM   14  C   UNL     1     -10.249  15.023  65.805  1.00  0.00    -0.361 C  
HETATM   15  C   UNL     1     -11.183  14.464  65.026  1.00  0.00    -0.376 C  
HETATM   16  C   UNL     1     -12.430  13.921  65.600  1.00  0.00    -0.505 C  
HETATM   17  N   UNL     1     -12.628  14.120  66.935  1.00  0.00    -0.492 N  
HETATM   18  O   UNL     1     -13.248  13.333  64.901  1.00  0.00    -0.703 OA 
HETATM   19  H   UNL     1     -13.525  13.840  67.334  1.00  0.00     0.000 HD 
HETATM   20  C   UNL     1     -11.669  14.687  67.793  1.00  0.00    -0.359 A  
HETATM   21  C   UNL     1     -11.926  14.790  69.163  1.00  0.00    -0.282 A  
HETATM   22  O   UNL     1     -13.127  14.451  69.721  1.00  0.00    -0.401 OA 
HETATM   23  C   UNL     1     -10.946  15.247  70.030  1.00  0.00    -0.306 A  
HETATM   24  H   UNL     1     -13.302  14.521  70.652  1.00  0.00     0.000 HD 
HETATM   25  C   UNL     1      -9.692  15.592  69.531  1.00  0.00    -0.282 A  
ENDBRANCH   9  12
ENDBRANCH   3   9
ENDBRANCH   2   3
TORSDOF 5
ENDMDL
MODEL      193
REMARK 921   NORMALIZED FREE ENERGY PREDICTED BY IDOCK:   -3.98 KCAL/MOL
REMARK 922        TOTAL FREE ENERGY PREDICTED BY IDOCK:   -5.99 KCAL/MOL
REMARK 923 INTER-LIGAND FREE ENERGY PREDICTED BY IDOCK:   -5.82 KCAL/MOL
REMARK 924 INTRA-LIGAND FREE ENERGY PREDICTED BY IDOCK:   -0.17 KCAL/MOL
REMARK 927      BINDING AFFINITY PREDICTED BY RF-SCORE:    0.00 PKD
ROOT
HETATM    1  C   UNL     1     -12.114  11.153  69.541  1.00  0.00    -0.396 C  
HETATM    2  C   UNL     1     -11.755  12.540  69.015  1.00  0.00    -0.368 C  
ENDROOT
BRANCH   2   3
HETATM    3  C   UNL     1     -10.508  12.588  68.090  1.00  0.00    -0.229 C  
BRANCH   3   4
HETATM    4  N   UNL     1      -9.509  13.595  68.527  1.00  0.00    -0.324 NA 
HETATM    5  H   UNL     1      -9.568  14.048  69.439  1.00  0.00     0.000 HD 
BRANCH   4   6
HETATM    6  C   UNL     1      -8.429  13.906  67.581  1.00  0.00    -0.192 C  
HETATM    7  C   UNL     1      -7.105  13.462  68.212  1.00  0.00    -0.109 C  
HETATM    8  C   UNL     1      -8.352  15.389  67.215  1.00  0.00    -0.224 C  
ENDBRANCH   4   6
ENDBRANCH   3   4
BRANCH   3   9
HETATM    9  C   UNL     1     -10.928  12.831  66.595  1.00  0.00    -0.270 C  
HETATM   10  H   UNL     1     -12.606  13.052  65.559  1.00  0.00     0.000 HD 
HETATM   11  O   UNL     1     -12.352  12.905  66.463  1.00  0.00    -0.440 OA 
BRANCH   9  12
HETATM   12  C   UNL     1     -10.327  11.864  65.572  1.00  0.00    -0.303 A  
HETATM   13  C   UNL     1      -9.806  10.580  65.864  1.00  0.00    -0.291 A  
HETATM   14  C   UNL     1      -9.665  10.048  67.230  1.00  0.00    -0.206 C  
HETATM   15  C   UNL     1      -9.328   8.771  67.447  1.00  0.00    -0.166 C  
HETATM   16  C   UNL     1      -9.053   7.853  66.324  1.00  0.00    -0.179 C  
HETATM   17  N   UNL     1      -9.048   8.399  65.073  1.00  0.00    -0.400 N  
HETATM   18  O   UNL     1      -8.828   6.663  66.515  1.00  0.00    -0.128 OA 
HETATM   19  H   UNL     1      -8.765   7.807  64.292  1.00  0.00     0.000 HD 
HETATM   20  C   UNL     1      -9.410   9.730  64.799  1.00  0.00    -0.265 A  
HETATM   21  C   UNL     1      -9.446  10.189  63.479  1.00  0.00    -0.260 A  
HETATM   22  O   UNL     1      -9.045   9.428  62.416  1.00  0.00    -0.286 OA 
HETATM   23  C   UNL     1      -9.906  11.464  63.190  1.00  0.00    -0.413 A  
HETATM   24  H   UNL     1      -9.069   9.740  61.519  1.00  0.00     0.000 HD 
HETATM   25  C   UNL     1     -10.348  12.287  64.224  1.00  0.00    -0.375 A  
ENDBRANCH   9  12
ENDBRANCH   3   9
ENDBRANCH   2   3
TORSDOF 5
ENDMDL
MODEL      194
REMARK 921   NORMALIZED FREE ENERGY PREDICTED BY IDOCK:   -3.96 KCAL/MOL
REMARK 922        TOTAL FREE ENERGY PREDICTED BY IDOCK:   -5.96 KCAL/MOL
REMARK 923 INTER-LIGAND FREE ENERGY PREDICTED BY IDOCK:   -5.42 KCAL/MOL
REMARK 924 INTRA-LIGAND FREE ENERGY PREDICTED BY IDOCK:   -0.54 KCAL/MOL
REMARK 927      BINDING AFFINITY PREDICTED BY RF-SCORE:    0.00 PKD
ROOT
HETATM    1  C   UNL     1     -10.657  19.522  66.108  1.00  0.00    -0.585 C  
HETATM    2  C   UNL     1     -10.137  18.703  67.286  1.00  0.00    -0.388 C  
ENDROOT
BRANCH   2   3
HETATM    3  C   UNL     1      -9.180  17.541  66.905  1.00  0.00    -0.265 C  
BRANCH   3   4
HETATM    4  N   UNL     1      -8.352  17.846  65.712  1.00  0.00    -0.466 NA 
HETATM    5  H   UNL     1      -8.728  17.775  64.767  1.00  0.00     0.000 HD 
BRANCH   4   6
HETATM    6  C   UNL     1      -6.964  18.258  65.960  1.00  0.00    -0.280 C  
HETATM    7  C   UNL     1      -6.623  17.919  67.415  1.00  0.00    -0.180 C  
HETATM    8  C   UNL     1      -6.719  19.746  65.708  1.00  0.00    -0.281 C  
ENDBRANCH   4   6
ENDBRANCH   3   4
BRANCH   3   9
HETATM    9  C   UNL     1      -9.978  16.201  66.702  1.00  0.00    -0.260 C  
HETATM   10  H   UNL     1     -11.720  15.432  67.259  1.00  0.00     0.000 HD 
HETATM   11  O   UNL     1     -11.238  16.241  67.382  1.00  0.00    -0.166 OA 
BRANCH   9  12
HETATM   12  C   UNL     1      -9.213  14.918  67.031  1.00  0.00    -0.249 A  
HETATM   13  C   UNL     1      -9.579  13.614  66.615  1.00  0.00    -0.289 A  
HETATM   14  C   UNL     1     -10.830  13.307  65.901  1.00  0.00    -0.289 C  
HETATM   15  C   UNL     1     -11.052  12.094  65.381  1.00  0.00    -0.362 C  
HETATM   16  C   UNL     1     -10.066  11.006  65.533  1.00  0.00    -0.261 C  
HETATM   17  N   UNL     1      -8.982  11.266  66.318  1.00  0.00    -0.193 N  
HETATM   18  O   UNL     1     -10.228   9.920  64.986  1.00  0.00    -0.221 OA 
HETATM   19  H   UNL     1      -8.338  10.500  66.516  1.00  0.00     0.000 HD 
HETATM   20  C   UNL     1      -8.700  12.529  66.870  1.00  0.00    -0.182 A  
HETATM   21  C   UNL     1      -7.529  12.727  67.607  1.00  0.00    -0.144 A  
HETATM   22  O   UNL     1      -6.663  11.714  67.913  1.00  0.00    -0.061 OA 
HETATM   23  C   UNL     1      -7.189  13.991  68.062  1.00  0.00    -0.146 A  
HETATM   24  H   UNL     1      -5.866  11.849  68.413  1.00  0.00     0.000 HD 
HETATM   25  C   UNL     1      -8.018  15.073  67.769  1.00  0.00    -0.155 A  
ENDBRANCH   9  12
ENDBRANCH   3   9
ENDBRANCH   2   3
TORSDOF 5
ENDMDL
MODEL      195
REMARK 921   NORMALIZED FREE ENERGY PREDICTED BY IDOCK:   -3.95 KCAL/MOL
REMARK 922        TOTAL FREE ENERGY PREDICTED BY IDOCK:   -5.96 KCAL/MOL
REMARK 923 INTER-LIGAND FREE ENERGY PREDICTED BY IDOCK:   -5.82 KCAL/MOL
REMARK 924 INTRA-LIGAND FREE ENERGY PREDICTED BY IDOCK:   -0.14 KCAL/MOL
REMARK 927      BINDING AFFINITY PREDICTED BY RF-SCORE:    0.00 PKD
ROOT
HETATM    1  C   UNL     1     -10.892   6.012  69.069  1.00  0.00    -0.412 C  
HETATM    2  C   UNL     1     -10.502   7.082  68.053  1.00  0.00    -0.255 C  
ENDROOT
BRANCH   2   3
HETATM    3  C   UNL     1     -10.096   8.450  68.665  1.00  0.00    -0.193 C  
BRANCH   3   4
HETATM    4  N   UNL     1     -11.244   9.379  68.807  1.00  0.00    -0.457 NA 
HETATM    5  H   UNL     1     -12.079   9.291  68.228  1.00  0.00     0.000 HD 
BRANCH   4   6
HETATM    6  C   UNL     1     -11.120  10.432  69.823  1.00  0.00    -0.295 C  
HETATM    7  C   UNL     1     -11.176   9.767  71.203  1.00  0.00    -0.444 C  
HETATM    8  C   UNL     1     -12.207  11.503  69.723  1.00  0.00    -0.310 C  
ENDBRANCH   4   6
ENDBRANCH   3   4
BRANCH   3   9
HETATM    9  C   UNL     1      -8.940   9.116  67.831  1.00  0.00    -0.128 C  
HETATM   10  H   UNL     1      -7.215  10.030  68.185  1.00  0.00     0.000 HD 
HETATM   11  O   UNL     1      -7.913   9.627  68.688  1.00  0.00    -0.087 OA 
BRANCH   9  12
HETATM   12  C   UNL     1      -9.380  10.165  66.808  1.00  0.00    -0.190 A  
HETATM   13  C   UNL     1      -9.255  11.568  66.964  1.00  0.00    -0.180 A  
HETATM   14  C   UNL     1      -8.785  12.211  68.203  1.00  0.00    -0.185 C  
HETATM   15  C   UNL     1      -8.523  13.523  68.246  1.00  0.00    -0.168 C  
HETATM   16  C   UNL     1      -8.725  14.382  67.063  1.00  0.00    -0.223 C  
HETATM   17  N   UNL     1      -9.295  13.796  65.971  1.00  0.00    -0.503 N  
HETATM   18  O   UNL     1      -8.405  15.566  67.074  1.00  0.00    -0.193 OA 
HETATM   19  H   UNL     1      -9.534  14.391  65.177  1.00  0.00     0.000 HD 
HETATM   20  C   UNL     1      -9.573  12.421  65.876  1.00  0.00    -0.187 A  
HETATM   21  C   UNL     1     -10.094  11.891  64.692  1.00  0.00    -0.269 A  
HETATM   22  O   UNL     1     -10.450  12.666  63.623  1.00  0.00    -0.414 OA 
HETATM   23  C   UNL     1     -10.268  10.523  64.550  1.00  0.00    -0.355 A  
HETATM   24  H   UNL     1     -10.805  12.306  62.819  1.00  0.00     0.000 HD 
HETATM   25  C   UNL     1      -9.907   9.672  65.593  1.00  0.00    -0.369 A  
ENDBRANCH   9  12
ENDBRANCH   3   9
ENDBRANCH   2   3
TORSDOF 5
ENDMDL
MODEL      196
REMARK 921   NORMALIZED FREE ENERGY PREDICTED BY IDOCK:   -3.88 KCAL/MOL
REMARK 922        TOTAL FREE ENERGY PREDICTED BY IDOCK:   -5.86 KCAL/MOL
REMARK 923 INTER-LIGAND FREE ENERGY PREDICTED BY IDOCK:   -5.08 KCAL/MOL
REMARK 924 INTRA-LIGAND FREE ENERGY PREDICTED BY IDOCK:   -0.79 KCAL/MOL
REMARK 927      BINDING AFFINITY PREDICTED BY RF-SCORE:    0.00 PKD
ROOT
HETATM    1  C   UNL     1     -10.654   5.362  73.975  1.00  0.00    -0.305 C  
HETATM    2  C   UNL     1     -10.604   6.754  73.353  1.00  0.00    -0.351 C  
ENDROOT
BRANCH   2   3
HETATM    3  C   UNL     1     -10.030   6.808  71.911  1.00  0.00    -0.176 C  
BRANCH   3   4
HETATM    4  N   UNL     1      -9.573   5.482  71.425  1.00  0.00    -0.152 NA 
HETATM    5  H   UNL     1      -9.201   4.778  72.062  1.00  0.00     0.000 HD 
BRANCH   4   6
HETATM    6  C   UNL     1      -9.685   5.233  69.982  1.00  0.00    -0.196 C  
HETATM    7  C   UNL     1     -11.000   5.851  69.496  1.00  0.00    -0.438 C  
HETATM    8  C   UNL     1      -9.648   3.749  69.618  1.00  0.00    -0.242 C  
ENDBRANCH   4   6
ENDBRANCH   3   4
BRANCH   3   9
HETATM    9  C   UNL     1      -8.873   7.868  71.808  1.00  0.00    -0.126 C  
HETATM   10  H   UNL     1      -8.139   9.350  72.904  1.00  0.00     0.000 HD 
HETATM   11  O   UNL     1      -8.837   8.709  72.966  1.00  0.00    -0.355 OA 
BRANCH   9  12
HETATM   12  C   UNL     1      -8.847   8.697  70.522  1.00  0.00    -0.182 A  
HETATM   13  C   UNL     1      -9.818   9.657  70.144  1.00  0.00    -0.310 A  
HETATM   14  C   UNL     1     -11.060   9.900  70.896  1.00  0.00    -0.418 C  
HETATM   15  C   UNL     1     -11.862  10.930  70.598  1.00  0.00    -0.453 C  
HETATM   16  C   UNL     1     -11.548  11.843  69.481  1.00  0.00    -0.327 C  
HETATM   17  N   UNL     1     -10.473  11.519  68.708  1.00  0.00    -0.206 N  
HETATM   18  O   UNL     1     -12.234  12.835  69.260  1.00  0.00    -0.208 OA 
HETATM   19  H   UNL     1     -10.294  12.079  67.874  1.00  0.00     0.000 HD 
HETATM   20  C   UNL     1      -9.595  10.457  68.993  1.00  0.00    -0.204 A  
HETATM   21  C   UNL     1      -8.475  10.237  68.185  1.00  0.00    -0.123 A  
HETATM   22  O   UNL     1      -8.227  10.951  67.047  1.00  0.00    -0.126 OA 
HETATM   23  C   UNL     1      -7.547   9.263  68.520  1.00  0.00    -0.085 A  
HETATM   24  H   UNL     1      -7.466  10.802  66.498  1.00  0.00     0.000 HD 
HETATM   25  C   UNL     1      -7.728   8.510  69.679  1.00  0.00    -0.093 A  
ENDBRANCH   9  12
ENDBRANCH   3   9
ENDBRANCH   2   3
TORSDOF 5
ENDMDL
MODEL      197
REMARK 921   NORMALIZED FREE ENERGY PREDICTED BY IDOCK:   -3.87 KCAL/MOL
REMARK 922        TOTAL FREE ENERGY PREDICTED BY IDOCK:   -5.86 KCAL/MOL
REMARK 923 INTER-LIGAND FREE ENERGY PREDICTED BY IDOCK:   -5.03 KCAL/MOL
REMARK 924 INTRA-LIGAND FREE ENERGY PREDICTED BY IDOCK:   -0.83 KCAL/MOL
REMARK 927      BINDING AFFINITY PREDICTED BY RF-SCORE:    0.00 PKD
ROOT
HETATM    1  C   UNL     1      -8.061   8.231  72.739  1.00  0.00    -0.206 C  
HETATM    2  C   UNL     1      -9.156   7.613  73.602  1.00  0.00    -0.327 C  
ENDROOT
BRANCH   2   3
HETATM    3  C   UNL     1      -9.716   6.260  73.083  1.00  0.00    -0.159 C  
BRANCH   3   4
HETATM    4  N   UNL     1      -8.772   5.559  72.177  1.00  0.00    -0.130 NA 
HETATM    5  H   UNL     1      -8.497   5.956  71.279  1.00  0.00     0.000 HD 
BRANCH   4   6
HETATM    6  C   UNL     1      -8.254   4.264  72.638  1.00  0.00    -0.097 C  
HETATM    7  C   UNL     1      -9.354   3.216  72.438  1.00  0.00    -0.163 C  
HETATM    8  C   UNL     1      -7.814   4.274  74.102  1.00  0.00    -0.091 C  
ENDBRANCH   4   6
ENDBRANCH   3   4
BRANCH   3   9
HETATM    9  C   UNL     1     -11.112   6.460  72.388  1.00  0.00    -0.268 C  
HETATM   10  H   UNL     1     -12.826   5.473  72.227  1.00  0.00     0.000 HD 
HETATM   11  O   UNL     1     -11.982   5.352  72.647  1.00  0.00    -0.214 OA 
BRANCH   9  12
HETATM   12  C   UNL     1     -11.067   6.791  70.895  1.00  0.00    -0.322 A  
HETATM   13  C   UNL     1     -11.181   8.089  70.338  1.00  0.00    -0.230 A  
HETATM   14  C   UNL     1     -11.480   9.293  71.131  1.00  0.00    -0.403 C  
HETATM   15  C   UNL     1     -11.409  10.515  70.590  1.00  0.00    -0.363 C  
HETATM   16  C   UNL     1     -11.061  10.701  69.167  1.00  0.00    -0.255 C  
HETATM   17  N   UNL     1     -10.929   9.571  68.415  1.00  0.00    -0.454 N  
HETATM   18  O   UNL     1     -10.912  11.821  68.690  1.00  0.00    -0.199 OA 
HETATM   19  H   UNL     1     -10.784   9.676  67.411  1.00  0.00     0.000 HD 
HETATM   20  C   UNL     1     -10.979   8.269  68.945  1.00  0.00     0.156 A  
HETATM   21  C   UNL     1     -10.763   7.165  68.114  1.00  0.00    -0.160 A  
HETATM   22  O   UNL     1     -10.597   7.274  66.761  1.00  0.00    -0.438 OA 
HETATM   23  C   UNL     1     -10.703   5.886  68.645  1.00  0.00    -0.339 A  
HETATM   24  H   UNL     1     -10.451   6.524  66.197  1.00  0.00     0.000 HD 
HETATM   25  C   UNL     1     -10.845   5.704  70.020  1.00  0.00    -0.366 A  
ENDBRANCH   9  12
ENDBRANCH   3   9
ENDBRANCH   2   3
TORSDOF 5
ENDMDL
MODEL      198
REMARK 921   NORMALIZED FREE ENERGY PREDICTED BY IDOCK:   -3.86 KCAL/MOL
REMARK 922        TOTAL FREE ENERGY PREDICTED BY IDOCK:   -5.84 KCAL/MOL
REMARK 923 INTER-LIGAND FREE ENERGY PREDICTED BY IDOCK:   -5.38 KCAL/MOL
REMARK 924 INTRA-LIGAND FREE ENERGY PREDICTED BY IDOCK:   -0.47 KCAL/MOL
REMARK 927      BINDING AFFINITY PREDICTED BY RF-SCORE:    0.00 PKD
ROOT
HETATM    1  C   UNL     1     -11.091  15.503  70.047  1.00  0.00    -0.326 C  
HETATM    2  C   UNL     1     -11.138  15.773  68.546  1.00  0.00    -0.335 C  
ENDROOT
BRANCH   2   3
HETATM    3  C   UNL     1     -10.165  16.877  68.047  1.00  0.00    -0.310 C  
BRANCH   3   4
HETATM    4  N   UNL     1     -10.783  17.774  67.038  1.00  0.00    -0.253 NA 
HETATM    5  H   UNL     1     -11.186  17.411  66.174  1.00  0.00     0.000 HD 
BRANCH   4   6
HETATM    6  C   UNL     1     -10.788  19.210  67.347  1.00  0.00    -0.435 C  
HETATM    7  C   UNL     1     -10.226  19.956  66.132  1.00  0.00    -0.611 C  
HETATM    8  C   UNL     1      -9.973  19.565  68.591  1.00  0.00    -0.538 C  
ENDBRANCH   4   6
ENDBRANCH   3   4
BRANCH   3   9
HETATM    9  C   UNL     1      -8.837  16.245  67.492  1.00  0.00    -0.186 C  
HETATM   10  H   UNL     1      -7.635  16.492  65.932  1.00  0.00     0.000 HD 
HETATM   11  O   UNL     1      -8.437  16.873  66.269  1.00  0.00    -0.272 OA 
BRANCH   9  12
HETATM   12  C   UNL     1      -8.834  14.721  67.357  1.00  0.00    -0.203 A  
HETATM   13  C   UNL     1      -8.029  13.831  68.110  1.00  0.00    -0.150 A  
HETATM   14  C   UNL     1      -6.988  14.273  69.053  1.00  0.00    -0.112 C  
HETATM   15  C   UNL     1      -6.373  13.405  69.864  1.00  0.00    -0.060 C  
HETATM   16  C   UNL     1      -6.690  11.964  69.823  1.00  0.00     0.047 C  
HETATM   17  N   UNL     1      -7.551  11.554  68.847  1.00  0.00    -0.212 N  
HETATM   18  O   UNL     1      -6.191  11.179  70.622  1.00  0.00    -0.326 OA 
HETATM   19  H   UNL     1      -7.710  10.552  68.736  1.00  0.00     0.000 HD 
HETATM   20  C   UNL     1      -8.231  12.432  67.984  1.00  0.00    -0.168 A  
HETATM   21  C   UNL     1      -9.150  11.932  67.056  1.00  0.00    -0.191 A  
HETATM   22  O   UNL     1      -9.362  10.595  66.866  1.00  0.00    -0.157 OA 
HETATM   23  C   UNL     1      -9.905  12.796  66.278  1.00  0.00    -0.269 A  
HETATM   24  H   UNL     1      -9.986  10.255  66.236  1.00  0.00     0.000 HD 
HETATM   25  C   UNL     1      -9.754  14.173  66.434  1.00  0.00    -0.313 A  
ENDBRANCH   9  12
ENDBRANCH   3   9
ENDBRANCH   2   3
TORSDOF 5
ENDMDL
MODEL      199
REMARK 921   NORMALIZED FREE ENERGY PREDICTED BY IDOCK:   -3.86 KCAL/MOL
REMARK 922        TOTAL FREE ENERGY PREDICTED BY IDOCK:   -5.84 KCAL/MOL
REMARK 923 INTER-LIGAND FREE ENERGY PREDICTED BY IDOCK:   -4.83 KCAL/MOL
REMARK 924 INTRA-LIGAND FREE ENERGY PREDICTED BY IDOCK:   -1.01 KCAL/MOL
REMARK 927      BINDING AFFINITY PREDICTED BY RF-SCORE:    0.00 PKD
ROOT
HETATM    1  C   UNL     1      -8.932   3.497  71.862  1.00  0.00    -0.150 C  
HETATM    2  C   UNL     1      -9.591   4.873  71.871  1.00  0.00    -0.205 C  
ENDROOT
BRANCH   2   3
HETATM    3  C   UNL     1      -8.624   6.062  72.123  1.00  0.00    -0.128 C  
BRANCH   3   4
HETATM    4  N   UNL     1      -7.329   5.635  72.708  1.00  0.00    -0.090 NA 
HETATM    5  H   UNL     1      -7.284   5.085  73.566  1.00  0.00     0.000 HD 
BRANCH   4   6
HETATM    6  C   UNL     1      -6.114   6.042  71.989  1.00  0.00    -0.041 C  
HETATM    7  C   UNL     1      -5.629   7.364  72.592  1.00  0.00    -0.037 C  
HETATM    8  C   UNL     1      -6.328   6.210  70.485  1.00  0.00    -0.036 C  
ENDBRANCH   4   6
ENDBRANCH   3   4
BRANCH   3   9
HETATM    9  C   UNL     1      -9.306   7.159  73.019  1.00  0.00    -0.153 C  
HETATM   10  H   UNL     1     -10.349   7.236  74.706  1.00  0.00     0.000 HD 
HETATM   11  O   UNL     1      -9.937   6.573  74.164  1.00  0.00    -0.256 OA 
BRANCH   9  12
HETATM   12  C   UNL     1     -10.256   8.113  72.292  1.00  0.00    -0.348 A  
HETATM   13  C   UNL     1      -9.893   8.990  71.240  1.00  0.00    -0.376 A  
HETATM   14  C   UNL     1      -8.507   9.185  70.783  1.00  0.00    -0.256 C  
HETATM   15  C   UNL     1      -8.234   9.891  69.679  1.00  0.00    -0.178 C  
HETATM   16  C   UNL     1      -9.309  10.529  68.895  1.00  0.00    -0.187 C  
HETATM   17  N   UNL     1     -10.569  10.459  69.412  1.00  0.00    -0.224 N  
HETATM   18  O   UNL     1      -9.070  11.104  67.838  1.00  0.00    -0.143 OA 
HETATM   19  H   UNL     1     -11.312  10.974  68.939  1.00  0.00     0.000 HD 
HETATM   20  C   UNL     1     -10.904   9.716  70.558  1.00  0.00    -0.309 A  
HETATM   21  C   UNL     1     -12.235   9.640  70.981  1.00  0.00    -0.323 A  
HETATM   22  O   UNL     1     -13.246  10.343  70.386  1.00  0.00    -0.493 OA 
HETATM   23  C   UNL     1     -12.590   8.824  72.044  1.00  0.00    -0.447 A  
HETATM   24  H   UNL     1     -14.150  10.291  70.673  1.00  0.00     0.000 HD 
HETATM   25  C   UNL     1     -11.613   8.064  72.684  1.00  0.00    -0.448 A  
ENDBRANCH   9  12
ENDBRANCH   3   9
ENDBRANCH   2   3
TORSDOF 5
ENDMDL
MODEL      200
REMARK 921   NORMALIZED FREE ENERGY PREDICTED BY IDOCK:   -3.83 KCAL/MOL
REMARK 922        TOTAL FREE ENERGY PREDICTED BY IDOCK:   -5.80 KCAL/MOL
REMARK 923 INTER-LIGAND FREE ENERGY PREDICTED BY IDOCK:   -4.66 KCAL/MOL
REMARK 924 INTRA-LIGAND FREE ENERGY PREDICTED BY IDOCK:   -1.14 KCAL/MOL
REMARK 927      BINDING AFFINITY PREDICTED BY RF-SCORE:    0.00 PKD
ROOT
HETATM    1  C   UNL     1     -10.364   3.502  74.143  1.00  0.00    -0.243 C  
HETATM    2  C   UNL     1      -9.162   4.386  73.823  1.00  0.00    -0.106 C  
ENDROOT
BRANCH   2   3
HETATM    3  C   UNL     1      -8.683   4.332  72.347  1.00  0.00    -0.108 C  
BRANCH   3   4
HETATM    4  N   UNL     1      -8.032   5.593  71.908  1.00  0.00    -0.110 NA 
HETATM    5  H   UNL     1      -8.489   6.498  72.020  1.00  0.00     0.000 HD 
BRANCH   4   6
HETATM    6  C   UNL     1      -6.698   5.471  71.306  1.00  0.00    -0.052 C  
HETATM    7  C   UNL     1      -6.654   6.374  70.068  1.00  0.00    -0.048 C  
HETATM    8  C   UNL     1      -6.340   4.039  70.910  1.00  0.00    -0.019 C  
ENDBRANCH   4   6
ENDBRANCH   3   4
BRANCH   3   9
HETATM    9  C   UNL     1      -9.868   3.953  71.386  1.00  0.00    -0.172 C  
HETATM   10  H   UNL     1     -10.353   2.460  70.172  1.00  0.00     0.000 HD 
HETATM   11  O   UNL     1      -9.637   2.690  70.753  1.00  0.00    -0.149 OA 
BRANCH   9  12
HETATM   12  C   UNL     1     -10.259   5.021  70.363  1.00  0.00    -0.324 A  
HETATM   13  C   UNL     1     -10.960   6.218  70.651  1.00  0.00    -0.370 A  
HETATM   14  C   UNL     1     -11.515   6.538  71.977  1.00  0.00    -0.342 C  
HETATM   15  C   UNL     1     -12.018   7.749  72.245  1.00  0.00    -0.356 C  
HETATM   16  C   UNL     1     -12.066   8.802  71.211  1.00  0.00    -0.296 C  
HETATM   17  N   UNL     1     -11.680   8.443  69.953  1.00  0.00    -0.297 N  
HETATM   18  O   UNL     1     -12.447   9.937  71.476  1.00  0.00    -0.353 OA 
HETATM   19  H   UNL     1     -11.796   9.125  69.202  1.00  0.00     0.000 HD 
HETATM   20  C   UNL     1     -11.132   7.189  69.630  1.00  0.00    -0.179 A  
HETATM   21  C   UNL     1     -10.697   6.927  68.327  1.00  0.00    -0.214 A  
HETATM   22  O   UNL     1     -10.866   7.809  67.296  1.00  0.00    -0.489 OA 
HETATM   23  C   UNL     1     -10.057   5.736  68.025  1.00  0.00    -0.198 A  
HETATM   24  H   UNL     1     -10.571   7.631  66.411  1.00  0.00     0.000 HD 
HETATM   25  C   UNL     1      -9.834   4.799  69.033  1.00  0.00    -0.239 A  
ENDBRANCH   9  12
ENDBRANCH   3   9
ENDBRANCH   2   3
TORSDOF 5
ENDMDL
MODEL      201
REMARK 921   NORMALIZED FREE ENERGY PREDICTED BY IDOCK:   -3.81 KCAL/MOL
REMARK 922        TOTAL FREE ENERGY PREDICTED BY IDOCK:   -5.78 KCAL/MOL
REMARK 923 INTER-LIGAND FREE ENERGY PREDICTED BY IDOCK:   -5.17 KCAL/MOL
REMARK 924 INTRA-LIGAND FREE ENERGY PREDICTED BY IDOCK:   -0.61 KCAL/MOL
REMARK 927      BINDING AFFINITY PREDICTED BY RF-SCORE:    0.00 PKD
ROOT
HETATM    1  C   UNL     1      -6.443   9.005  67.663  1.00  0.00    -0.060 C  
HETATM    2  C   UNL     1      -7.859   8.533  67.346  1.00  0.00    -0.098 C  
ENDROOT
BRANCH   2   3
HETATM    3  C   UNL     1      -8.622   7.900  68.542  1.00  0.00    -0.128 C  
BRANCH   3   4
HETATM    4  N   UNL     1      -8.272   6.474  68.757  1.00  0.00    -0.118 NA 
HETATM    5  H   UNL     1      -8.528   5.753  68.083  1.00  0.00     0.000 HD 
BRANCH   4   6
HETATM    6  C   UNL     1      -7.538   6.153  69.988  1.00  0.00    -0.095 C  
HETATM    7  C   UNL     1      -7.759   7.297  70.983  1.00  0.00    -0.089 C  
HETATM    8  C   UNL     1      -6.039   5.949  69.764  1.00  0.00    -0.026 C  
ENDBRANCH   4   6
ENDBRANCH   3   4
BRANCH   3   9
HETATM    9  C   UNL     1     -10.175   8.074  68.371  1.00  0.00    -0.207 C  
HETATM   10  H   UNL     1     -11.494   8.105  66.888  1.00  0.00     0.000 HD 
HETATM   11  O   UNL     1     -10.555   8.001  66.992  1.00  0.00    -0.335 OA 
BRANCH   9  12
HETATM   12  C   UNL     1     -10.784   9.304  69.048  1.00  0.00    -0.189 A  
HETATM   13  C   UNL     1     -10.975  10.568  68.436  1.00  0.00    -0.310 A  
HETATM   14  C   UNL     1     -10.495  10.899  67.084  1.00  0.00    -0.281 C  
HETATM   15  C   UNL     1     -10.846  12.044  66.485  1.00  0.00    -0.314 C  
HETATM   16  C   UNL     1     -11.700  13.034  67.170  1.00  0.00    -0.382 C  
HETATM   17  N   UNL     1     -12.015  12.775  68.472  1.00  0.00    -0.284 N  
HETATM   18  O   UNL     1     -12.092  14.042  66.594  1.00  0.00    -0.428 OA 
HETATM   19  H   UNL     1     -12.522  13.490  68.994  1.00  0.00     0.000 HD 
HETATM   20  C   UNL     1     -11.682  11.580  69.135  1.00  0.00    -0.329 A  
HETATM   21  C   UNL     1     -12.105  11.366  70.450  1.00  0.00    -0.384 A  
HETATM   22  O   UNL     1     -12.759  12.316  71.185  1.00  0.00    -0.353 OA 
HETATM   23  C   UNL     1     -11.875  10.150  71.074  1.00  0.00    -0.475 A  
HETATM   24  H   UNL     1     -13.046  12.171  72.078  1.00  0.00     0.000 HD 
HETATM   25  C   UNL     1     -11.231   9.130  70.377  1.00  0.00    -0.279 A  
ENDBRANCH   9  12
ENDBRANCH   3   9
ENDBRANCH   2   3
TORSDOF 5
ENDMDL
MODEL      202
REMARK 921   NORMALIZED FREE ENERGY PREDICTED BY IDOCK:   -3.81 KCAL/MOL
REMARK 922        TOTAL FREE ENERGY PREDICTED BY IDOCK:   -5.77 KCAL/MOL
REMARK 923 INTER-LIGAND FREE ENERGY PREDICTED BY IDOCK:   -4.86 KCAL/MOL
REMARK 924 INTRA-LIGAND FREE ENERGY PREDICTED BY IDOCK:   -0.91 KCAL/MOL
REMARK 927      BINDING AFFINITY PREDICTED BY RF-SCORE:    0.00 PKD
ROOT
HETATM    1  C   UNL     1     -12.026  12.173  68.708  1.00  0.00    -0.292 C  
HETATM    2  C   UNL     1     -11.355  11.603  67.461  1.00  0.00    -0.364 C  
ENDROOT
BRANCH   2   3
HETATM    3  C   UNL     1      -9.910  11.074  67.678  1.00  0.00    -0.172 C  
BRANCH   3   4
HETATM    4  N   UNL     1      -9.512  11.062  69.108  1.00  0.00    -0.401 NA 
HETATM    5  H   UNL     1      -9.283  11.921  69.607  1.00  0.00     0.000 HD 
BRANCH   4   6
HETATM    6  C   UNL     1      -9.464   9.751  69.768  1.00  0.00    -0.228 C  
HETATM    7  C   UNL     1      -9.747   8.678  68.711  1.00  0.00    -0.171 C  
HETATM    8  C   UNL     1     -10.462   9.616  70.918  1.00  0.00    -0.359 C  
ENDBRANCH   4   6
ENDBRANCH   3   4
BRANCH   3   9
HETATM    9  C   UNL     1      -8.879  11.892  66.818  1.00  0.00    -0.193 C  
HETATM   10  H   UNL     1      -7.240  11.532  65.759  1.00  0.00     0.000 HD 
HETATM   11  O   UNL     1      -7.863  11.038  66.279  1.00  0.00    -0.158 OA 
BRANCH   9  12
HETATM   12  C   UNL     1      -8.266  13.115  67.505  1.00  0.00    -0.183 A  
HETATM   13  C   UNL     1      -8.830  14.415  67.523  1.00  0.00    -0.197 A  
HETATM   14  C   UNL     1     -10.039  14.789  66.771  1.00  0.00    -0.258 C  
HETATM   15  C   UNL     1     -10.628  15.977  66.952  1.00  0.00    -0.300 C  
HETATM   16  C   UNL     1     -10.070  16.972  67.890  1.00  0.00    -0.306 C  
HETATM   17  N   UNL     1      -8.874  16.664  68.468  1.00  0.00    -0.226 N  
HETATM   18  O   UNL     1     -10.653  18.025  68.121  1.00  0.00    -0.378 OA 
HETATM   19  H   UNL     1      -8.421  17.375  69.043  1.00  0.00     0.000 HD 
HETATM   20  C   UNL     1      -8.228  15.424  68.319  1.00  0.00    -0.145 A  
HETATM   21  C   UNL     1      -7.037  15.166  69.004  1.00  0.00    -0.140 A  
HETATM   22  O   UNL     1      -6.393  16.108  69.757  1.00  0.00    -0.190 OA 
HETATM   23  C   UNL     1      -6.451  13.911  68.949  1.00  0.00    -0.098 A  
HETATM   24  H   UNL     1      -5.584  15.933  70.223  1.00  0.00     0.000 HD 
HETATM   25  C   UNL     1      -7.064  12.897  68.215  1.00  0.00    -0.102 A  
ENDBRANCH   9  12
ENDBRANCH   3   9
ENDBRANCH   2   3
TORSDOF 5
ENDMDL
MODEL      203
REMARK 921   NORMALIZED FREE ENERGY PREDICTED BY IDOCK:   -3.81 KCAL/MOL
REMARK 922        TOTAL FREE ENERGY PREDICTED BY IDOCK:   -5.77 KCAL/MOL
REMARK 923 INTER-LIGAND FREE ENERGY PREDICTED BY IDOCK:   -4.96 KCAL/MOL
REMARK 924 INTRA-LIGAND FREE ENERGY PREDICTED BY IDOCK:   -0.81 KCAL/MOL
REMARK 927      BINDING AFFINITY PREDICTED BY RF-SCORE:    0.00 PKD
ROOT
HETATM    1  C   UNL     1     -12.539  15.023  70.379  1.00  0.00    -0.399 C  
HETATM    2  C   UNL     1     -12.410  14.620  68.913  1.00  0.00    -0.069 C  
ENDROOT
BRANCH   2   3
HETATM    3  C   UNL     1     -11.410  13.464  68.637  1.00  0.00    -0.286 C  
BRANCH   3   4
HETATM    4  N   UNL     1     -11.042  12.717  69.866  1.00  0.00    -0.413 NA 
HETATM    5  H   UNL     1     -10.525  13.158  70.626  1.00  0.00     0.000 HD 
BRANCH   4   6
HETATM    6  C   UNL     1     -11.461  11.310  69.932  1.00  0.00    -0.293 C  
HETATM    7  C   UNL     1     -12.040  10.924  68.567  1.00  0.00     0.004 C  
HETATM    8  C   UNL     1     -12.494  11.037  71.025  1.00  0.00    -0.512 C  
ENDBRANCH   4   6
ENDBRANCH   3   4
BRANCH   3   9
HETATM    9  C   UNL     1     -10.125  13.998  67.904  1.00  0.00    -0.237 C  
HETATM   10  H   UNL     1      -9.689  15.286  66.459  1.00  0.00     0.000 HD 
HETATM   11  O   UNL     1     -10.465  14.963  66.902  1.00  0.00    -0.271 OA 
BRANCH   9  12
HETATM   12  C   UNL     1      -9.187  12.926  67.344  1.00  0.00    -0.197 A  
HETATM   13  C   UNL     1      -9.440  12.131  66.199  1.00  0.00    -0.231 A  
HETATM   14  C   UNL     1     -10.711  12.152  65.457  1.00  0.00    -0.321 C  
HETATM   15  C   UNL     1     -10.843  11.513  64.288  1.00  0.00    -0.421 C  
HETATM   16  C   UNL     1      -9.727  10.736  63.713  1.00  0.00    -0.321 C  
HETATM   17  N   UNL     1      -8.608  10.610  64.482  1.00  0.00    -0.293 N  
HETATM   18  O   UNL     1      -9.816  10.221  62.604  1.00  0.00    -0.223 OA 
HETATM   19  H   UNL     1      -7.863   9.997  64.149  1.00  0.00     0.000 HD 
HETATM   20  C   UNL     1      -8.421  11.275  65.707  1.00  0.00    -0.018 A  
HETATM   21  C   UNL     1      -7.213  11.145  66.399  1.00  0.00    -0.094 A  
HETATM   22  O   UNL     1      -6.209  10.310  65.993  1.00  0.00    -0.080 OA 
HETATM   23  C   UNL     1      -6.978  11.881  67.550  1.00  0.00    -0.123 A  
HETATM   24  H   UNL     1      -5.388  10.222  66.463  1.00  0.00     0.000 HD 
HETATM   25  C   UNL     1      -7.951  12.766  68.010  1.00  0.00    -0.160 A  
ENDBRANCH   9  12
ENDBRANCH   3   9
ENDBRANCH   2   3
TORSDOF 5
ENDMDL
MODEL      204
REMARK 921   NORMALIZED FREE ENERGY PREDICTED BY IDOCK:   -3.81 KCAL/MOL
REMARK 922        TOTAL FREE ENERGY PREDICTED BY IDOCK:   -5.77 KCAL/MOL
REMARK 923 INTER-LIGAND FREE ENERGY PREDICTED BY IDOCK:   -4.95 KCAL/MOL
REMARK 924 INTRA-LIGAND FREE ENERGY PREDICTED BY IDOCK:   -0.82 KCAL/MOL
REMARK 927      BINDING AFFINITY PREDICTED BY RF-SCORE:    0.00 PKD
ROOT
HETATM    1  C   UNL     1      -5.514   7.130  68.982  1.00  0.00    -0.018 C  
HETATM    2  C   UNL     1      -7.023   7.242  68.788  1.00  0.00    -0.079 C  
ENDROOT
BRANCH   2   3
HETATM    3  C   UNL     1      -7.875   6.378  69.758  1.00  0.00    -0.114 C  
BRANCH   3   4
HETATM    4  N   UNL     1      -9.254   6.146  69.260  1.00  0.00    -0.132 NA 
HETATM    5  H   UNL     1     -10.033   5.987  69.898  1.00  0.00     0.000 HD 
BRANCH   4   6
HETATM    6  C   UNL     1      -9.439   6.157  67.803  1.00  0.00    -0.115 C  
HETATM    7  C   UNL     1     -10.757   6.876  67.500  1.00  0.00    -0.368 C  
HETATM    8  C   UNL     1      -9.463   4.758  67.185  1.00  0.00    -0.164 C  
ENDBRANCH   4   6
ENDBRANCH   3   4
BRANCH   3   9
HETATM    9  C   UNL     1      -7.901   7.011  71.197  1.00  0.00    -0.099 C  
HETATM   10  H   UNL     1      -7.378   6.489  73.039  1.00  0.00     0.000 HD 
HETATM   11  O   UNL     1      -7.362   6.107  72.170  1.00  0.00    -0.090 OA 
BRANCH   9  12
HETATM   12  C   UNL     1      -9.250   7.571  71.651  1.00  0.00    -0.152 A  
HETATM   13  C   UNL     1      -9.874   8.732  71.131  1.00  0.00    -0.313 A  
HETATM   14  C   UNL     1      -9.238   9.630  70.153  1.00  0.00    -0.287 C  
HETATM   15  C   UNL     1      -9.927  10.616  69.565  1.00  0.00    -0.138 C  
HETATM   16  C   UNL     1     -11.344  10.861  69.898  1.00  0.00    -0.305 C  
HETATM   17  N   UNL     1     -11.874  10.112  70.908  1.00  0.00    -0.345 N  
HETATM   18  O   UNL     1     -12.001  11.706  69.300  1.00  0.00    -0.320 OA 
HETATM   19  H   UNL     1     -12.821  10.330  71.221  1.00  0.00     0.000 HD 
HETATM   20  C   UNL     1     -11.193   9.058  71.542  1.00  0.00    -0.348 A  
HETATM   21  C   UNL     1     -11.836   8.295  72.521  1.00  0.00    -0.373 A  
HETATM   22  O   UNL     1     -13.091   8.582  72.982  1.00  0.00    -0.729 OA 
HETATM   23  C   UNL     1     -11.211   7.188  73.073  1.00  0.00    -0.279 A  
HETATM   24  H   UNL     1     -13.528   8.063  73.647  1.00  0.00     0.000 HD 
HETATM   25  C   UNL     1      -9.938   6.827  72.636  1.00  0.00    -0.186 A  
ENDBRANCH   9  12
ENDBRANCH   3   9
ENDBRANCH   2   3
TORSDOF 5
ENDMDL
MODEL      205
REMARK 921   NORMALIZED FREE ENERGY PREDICTED BY IDOCK:   -3.76 KCAL/MOL
REMARK 922        TOTAL FREE ENERGY PREDICTED BY IDOCK:   -5.71 KCAL/MOL
REMARK 923 INTER-LIGAND FREE ENERGY PREDICTED BY IDOCK:   -4.94 KCAL/MOL
REMARK 924 INTRA-LIGAND FREE ENERGY PREDICTED BY IDOCK:   -0.78 KCAL/MOL
REMARK 927      BINDING AFFINITY PREDICTED BY RF-SCORE:    0.00 PKD
ROOT
HETATM    1  C   UNL     1      -9.709  14.354  68.610  1.00  0.00    -0.216 C  
HETATM    2  C   UNL     1      -9.540  14.243  67.098  1.00  0.00    -0.245 C  
ENDROOT
BRANCH   2   3
HETATM    3  C   UNL     1      -9.640  12.800  66.531  1.00  0.00    -0.257 C  
BRANCH   3   4
HETATM    4  N   UNL     1     -11.025  12.267  66.560  1.00  0.00    -0.266 NA 
HETATM    5  H   UNL     1     -11.373  11.724  67.350  1.00  0.00     0.000 HD 
BRANCH   4   6
HETATM    6  C   UNL     1     -11.869  12.560  65.394  1.00  0.00    -0.428 C  
HETATM    7  C   UNL     1     -10.987  12.493  64.143  1.00  0.00    -0.425 C  
HETATM    8  C   UNL     1     -12.553  13.925  65.469  1.00  0.00    -0.560 C  
ENDBRANCH   4   6
ENDBRANCH   3   4
BRANCH   3   9
HETATM    9  C   UNL     1      -8.654  11.833  67.283  1.00  0.00    -0.162 C  
HETATM   10  H   UNL     1      -6.694  11.598  67.480  1.00  0.00     0.000 HD 
HETATM   11  O   UNL     1      -7.290  12.182  67.026  1.00  0.00    -0.136 OA 
BRANCH   9  12
HETATM   12  C   UNL     1      -8.894  10.338  67.061  1.00  0.00    -0.143 A  
HETATM   13  C   UNL     1      -9.198   9.395  68.074  1.00  0.00    -0.137 A  
HETATM   14  C   UNL     1      -9.205   9.717  69.511  1.00  0.00    -0.214 C  
HETATM   15  C   UNL     1      -9.662   8.842  70.415  1.00  0.00    -0.209 C  
HETATM   16  C   UNL     1     -10.145   7.507  70.010  1.00  0.00    -0.199 C  
HETATM   17  N   UNL     1      -9.997   7.175  68.695  1.00  0.00    -0.155 N  
HETATM   18  O   UNL     1     -10.642   6.737  70.824  1.00  0.00    -0.215 OA 
HETATM   19  H   UNL     1     -10.234   6.224  68.410  1.00  0.00     0.000 HD 
HETATM   20  C   UNL     1      -9.538   8.066  67.709  1.00  0.00    -0.151 A  
HETATM   21  C   UNL     1      -9.482   7.665  66.371  1.00  0.00    -0.161 A  
HETATM   22  O   UNL     1      -9.765   6.391  65.965  1.00  0.00    -0.384 OA 
HETATM   23  C   UNL     1      -9.135   8.569  65.379  1.00  0.00    -0.103 A  
HETATM   24  H   UNL     1      -9.727   6.118  65.056  1.00  0.00     0.000 HD 
HETATM   25  C   UNL     1      -8.853   9.891  65.721  1.00  0.00    -0.171 A  
ENDBRANCH   9  12
ENDBRANCH   3   9
ENDBRANCH   2   3
TORSDOF 5
ENDMDL
MODEL      206
REMARK 921   NORMALIZED FREE ENERGY PREDICTED BY IDOCK:   -3.75 KCAL/MOL
REMARK 922        TOTAL FREE ENERGY PREDICTED BY IDOCK:   -5.70 KCAL/MOL
REMARK 923 INTER-LIGAND FREE ENERGY PREDICTED BY IDOCK:   -4.70 KCAL/MOL
REMARK 924 INTRA-LIGAND FREE ENERGY PREDICTED BY IDOCK:   -1.00 KCAL/MOL
REMARK 927      BINDING AFFINITY PREDICTED BY RF-SCORE:    0.00 PKD
ROOT
HETATM    1  C   UNL     1      -6.252   4.184  66.051  1.00  0.00    -0.032 C  
HETATM    2  C   UNL     1      -6.600   4.941  64.773  1.00  0.00    -0.043 C  
ENDROOT
BRANCH   2   3
HETATM    3  C   UNL     1      -7.938   5.728  64.821  1.00  0.00    -0.124 C  
BRANCH   3   4
HETATM    4  N   UNL     1      -8.937   5.222  63.847  1.00  0.00    -0.351 NA 
HETATM    5  H   UNL     1      -8.940   5.530  62.874  1.00  0.00     0.000 HD 
BRANCH   4   6
HETATM    6  C   UNL     1      -9.921   4.256  64.353  1.00  0.00    -0.083 C  
HETATM    7  C   UNL     1     -10.192   4.584  65.825  1.00  0.00    -0.289 C  
HETATM    8  C   UNL     1      -9.464   2.803  64.226  1.00  0.00    -0.137 C  
ENDBRANCH   4   6
ENDBRANCH   3   4
BRANCH   3   9
HETATM    9  C   UNL     1      -7.690   7.268  64.616  1.00  0.00    -0.116 C  
HETATM   10  H   UNL     1      -6.163   8.532  64.705  1.00  0.00     0.000 HD 
HETATM   11  O   UNL     1      -6.313   7.602  64.828  1.00  0.00    -0.044 OA 
BRANCH   9  12
HETATM   12  C   UNL     1      -8.613   8.198  65.406  1.00  0.00    -0.154 A  
HETATM   13  C   UNL     1      -9.212   9.380  64.905  1.00  0.00    -0.246 A  
HETATM   14  C   UNL     1      -8.923   9.938  63.573  1.00  0.00    -0.277 C  
HETATM   15  C   UNL     1      -9.636  10.957  63.078  1.00  0.00    -0.382 C  
HETATM   16  C   UNL     1     -10.719  11.583  63.862  1.00  0.00    -0.395 C  
HETATM   17  N   UNL     1     -10.876  11.149  65.146  1.00  0.00    -0.210 N  
HETATM   18  O   UNL     1     -11.429  12.459  63.380  1.00  0.00    -0.457 OA 
HETATM   19  H   UNL     1     -11.552  11.633  65.737  1.00  0.00     0.000 HD 
HETATM   20  C   UNL     1     -10.161  10.072  65.701  1.00  0.00    -0.251 A  
HETATM   21  C   UNL     1     -10.434   9.646  67.004  1.00  0.00    -0.232 A  
HETATM   22  O   UNL     1     -11.312  10.292  67.829  1.00  0.00    -0.484 OA 
HETATM   23  C   UNL     1      -9.812   8.520  67.521  1.00  0.00    -0.231 A  
HETATM   24  H   UNL     1     -11.497  10.003  68.715  1.00  0.00     0.000 HD 
HETATM   25  C   UNL     1      -8.920   7.801  66.727  1.00  0.00    -0.163 A  
ENDBRANCH   9  12
ENDBRANCH   3   9
ENDBRANCH   2   3
TORSDOF 5
ENDMDL
MODEL      207
REMARK 921   NORMALIZED FREE ENERGY PREDICTED BY IDOCK:   -3.75 KCAL/MOL
REMARK 922        TOTAL FREE ENERGY PREDICTED BY IDOCK:   -5.70 KCAL/MOL
REMARK 923 INTER-LIGAND FREE ENERGY PREDICTED BY IDOCK:   -4.45 KCAL/MOL
REMARK 924 INTRA-LIGAND FREE ENERGY PREDICTED BY IDOCK:   -1.25 KCAL/MOL
REMARK 927      BINDING AFFINITY PREDICTED BY RF-SCORE:    0.00 PKD
ROOT
HETATM    1  C   UNL     1      -8.581   2.849  65.202  1.00  0.00    -0.104 C  
HETATM    2  C   UNL     1      -8.870   3.202  66.658  1.00  0.00    -0.153 C  
ENDROOT
BRANCH   2   3
HETATM    3  C   UNL     1      -8.912   4.723  66.968  1.00  0.00    -0.111 C  
BRANCH   3   4
HETATM    4  N   UNL     1      -8.082   5.094  68.141  1.00  0.00    -0.094 NA 
HETATM    5  H   UNL     1      -8.283   4.733  69.074  1.00  0.00     0.000 HD 
BRANCH   4   6
HETATM    6  C   UNL     1      -6.957   6.005  67.892  1.00  0.00    -0.072 C  
HETATM    7  C   UNL     1      -7.055   7.162  68.892  1.00  0.00    -0.084 C  
HETATM    8  C   UNL     1      -6.929   6.557  66.467  1.00  0.00    -0.067 C  
ENDBRANCH   4   6
ENDBRANCH   3   4
BRANCH   3   9
HETATM    9  C   UNL     1     -10.394   5.216  67.155  1.00  0.00    -0.192 C  
HETATM   10  H   UNL     1     -12.041   5.364  66.058  1.00  0.00     0.000 HD 
HETATM   11  O   UNL     1     -11.146   5.066  65.946  1.00  0.00    -0.160 OA 
BRANCH   9  12
HETATM   12  C   UNL     1     -10.556   6.622  67.736  1.00  0.00    -0.311 A  
HETATM   13  C   UNL     1     -10.827   6.924  69.094  1.00  0.00    -0.262 A  
HETATM   14  C   UNL     1     -11.110   5.901  70.115  1.00  0.00    -0.395 C  
HETATM   15  C   UNL     1     -11.193   6.220  71.412  1.00  0.00    -0.349 C  
HETATM   16  C   UNL     1     -11.035   7.616  71.867  1.00  0.00    -0.241 C  
HETATM   17  N   UNL     1     -10.917   8.567  70.896  1.00  0.00    -0.243 N  
HETATM   18  O   UNL     1     -11.025   7.899  73.060  1.00  0.00    -0.393 OA 
HETATM   19  H   UNL     1     -10.905   9.546  71.182  1.00  0.00     0.000 HD 
HETATM   20  C   UNL     1     -10.811   8.276  69.524  1.00  0.00    -0.116 A  
HETATM   21  C   UNL     1     -10.622   9.309  68.600  1.00  0.00    -0.187 A  
HETATM   22  O   UNL     1     -10.631  10.630  68.950  1.00  0.00    -0.186 OA 
HETATM   23  C   UNL     1     -10.408   9.024  67.261  1.00  0.00    -0.342 A  
HETATM   24  H   UNL     1     -10.502  11.332  68.323  1.00  0.00     0.000 HD 
HETATM   25  C   UNL     1     -10.367   7.697  66.837  1.00  0.00    -0.388 A  
ENDBRANCH   9  12
ENDBRANCH   3   9
ENDBRANCH   2   3
TORSDOF 5
ENDMDL
MODEL      208
REMARK 921   NORMALIZED FREE ENERGY PREDICTED BY IDOCK:   -3.75 KCAL/MOL
REMARK 922        TOTAL FREE ENERGY PREDICTED BY IDOCK:   -5.69 KCAL/MOL
REMARK 923 INTER-LIGAND FREE ENERGY PREDICTED BY IDOCK:   -4.74 KCAL/MOL
REMARK 924 INTRA-LIGAND FREE ENERGY PREDICTED BY IDOCK:   -0.96 KCAL/MOL
REMARK 927      BINDING AFFINITY PREDICTED BY RF-SCORE:    0.00 PKD
ROOT
HETATM    1  C   UNL     1      -5.808  13.435  70.344  1.00  0.00    -0.162 C  
HETATM    2  C   UNL     1      -6.942  13.340  69.327  1.00  0.00     0.018 C  
ENDROOT
BRANCH   2   3
HETATM    3  C   UNL     1      -6.503  12.939  67.892  1.00  0.00    -0.127 C  
BRANCH   3   4
HETATM    4  N   UNL     1      -6.934  13.920  66.864  1.00  0.00    -0.214 NA 
HETATM    5  H   UNL     1      -6.821  13.736  65.868  1.00  0.00     0.000 HD 
BRANCH   4   6
HETATM    6  C   UNL     1      -7.533  15.168  67.355  1.00  0.00    -0.210 C  
HETATM    7  C   UNL     1      -8.903  15.330  66.687  1.00  0.00    -0.328 C  
HETATM    8  C   UNL     1      -6.676  16.403  67.074  1.00  0.00    -0.239 C  
ENDBRANCH   4   6
ENDBRANCH   3   4
BRANCH   3   9
HETATM    9  C   UNL     1      -7.013  11.495  67.533  1.00  0.00    -0.102 C  
HETATM   10  H   UNL     1      -7.077  10.317  65.938  1.00  0.00     0.000 HD 
HETATM   11  O   UNL     1      -6.769  11.189  66.155  1.00  0.00    -0.106 OA 
BRANCH   9  12
HETATM   12  C   UNL     1      -8.461  11.188  67.920  1.00  0.00    -0.131 A  
HETATM   13  C   UNL     1      -8.865  10.387  69.016  1.00  0.00    -0.176 A  
HETATM   14  C   UNL     1      -7.927   9.638  69.869  1.00  0.00    -0.174 C  
HETATM   15  C   UNL     1      -8.339   9.035  70.991  1.00  0.00    -0.237 C  
HETATM   16  C   UNL     1      -9.756   9.070  71.400  1.00  0.00    -0.299 C  
HETATM   17  N   UNL     1     -10.633   9.644  70.527  1.00  0.00    -0.284 N  
HETATM   18  O   UNL     1     -10.122   8.592  72.469  1.00  0.00    -0.280 OA 
HETATM   19  H   UNL     1     -11.629   9.594  70.742  1.00  0.00     0.000 HD 
HETATM   20  C   UNL     1     -10.243  10.302  69.346  1.00  0.00    -0.235 A  
HETATM   21  C   UNL     1     -11.201  10.926  68.542  1.00  0.00    -0.274 A  
HETATM   22  O   UNL     1     -12.544  10.850  68.789  1.00  0.00    -0.699 OA 
HETATM   23  C   UNL     1     -10.816  11.669  67.436  1.00  0.00    -0.298 A  
HETATM   24  H   UNL     1     -13.195  11.274  68.243  1.00  0.00     0.000 HD 
HETATM   25  C   UNL     1      -9.462  11.804  67.136  1.00  0.00    -0.180 A  
ENDBRANCH   9  12
ENDBRANCH   3   9
ENDBRANCH   2   3
TORSDOF 5
ENDMDL
MODEL      209
REMARK 921   NORMALIZED FREE ENERGY PREDICTED BY IDOCK:   -3.72 KCAL/MOL
REMARK 922        TOTAL FREE ENERGY PREDICTED BY IDOCK:   -5.65 KCAL/MOL
REMARK 923 INTER-LIGAND FREE ENERGY PREDICTED BY IDOCK:   -5.05 KCAL/MOL
REMARK 924 INTRA-LIGAND FREE ENERGY PREDICTED BY IDOCK:   -0.61 KCAL/MOL
REMARK 927      BINDING AFFINITY PREDICTED BY RF-SCORE:    0.00 PKD
ROOT
HETATM    1  C   UNL     1      -7.392   6.022  67.690  1.00  0.00    -0.077 C  
HETATM    2  C   UNL     1      -8.738   5.442  68.113  1.00  0.00    -0.105 C  
ENDROOT
BRANCH   2   3
HETATM    3  C   UNL     1      -9.319   6.025  69.430  1.00  0.00    -0.131 C  
BRANCH   3   4
HETATM    4  N   UNL     1      -9.359   5.029  70.530  1.00  0.00    -0.147 NA 
HETATM    5  H   UNL     1      -9.434   4.029  70.344  1.00  0.00     0.000 HD 
BRANCH   4   6
HETATM    6  C   UNL     1      -9.284   5.555  71.900  1.00  0.00    -0.141 C  
HETATM    7  C   UNL     1      -7.992   5.033  72.537  1.00  0.00    -0.101 C  
HETATM    8  C   UNL     1     -10.481   5.162  72.766  1.00  0.00    -0.261 C  
ENDBRANCH   4   6
ENDBRANCH   3   4
BRANCH   3   9
HETATM    9  C   UNL     1     -10.743   6.647  69.189  1.00  0.00    -0.264 C  
HETATM   10  H   UNL     1     -12.123   6.643  67.763  1.00  0.00     0.000 HD 
HETATM   11  O   UNL     1     -11.263   6.267  67.910  1.00  0.00    -0.323 OA 
BRANCH   9  12
HETATM   12  C   UNL     1     -10.852   8.158  69.404  1.00  0.00    -0.096 A  
HETATM   13  C   UNL     1     -10.624   9.147  68.415  1.00  0.00    -0.217 A  
HETATM   14  C   UNL     1     -10.130   8.847  67.061  1.00  0.00    -0.331 C  
HETATM   15  C   UNL     1     -10.092   9.789  66.111  1.00  0.00    -0.315 C  
HETATM   16  C   UNL     1     -10.514  11.175  66.394  1.00  0.00    -0.260 C  
HETATM   17  N   UNL     1     -10.832  11.467  67.688  1.00  0.00    -0.213 N  
HETATM   18  O   UNL     1     -10.561  12.019  65.506  1.00  0.00    -0.255 OA 
HETATM   19  H   UNL     1     -11.032  12.439  67.926  1.00  0.00     0.000 HD 
HETATM   20  C   UNL     1     -10.900  10.507  68.713  1.00  0.00    -0.231 A  
HETATM   21  C   UNL     1     -11.303  10.880  69.999  1.00  0.00    -0.307 A  
HETATM   22  O   UNL     1     -11.549  12.177  70.354  1.00  0.00    -0.526 OA 
HETATM   23  C   UNL     1     -11.477   9.924  70.987  1.00  0.00    -0.466 A  
HETATM   24  H   UNL     1     -11.822  12.431  71.227  1.00  0.00     0.000 HD 
HETATM   25  C   UNL     1     -11.262   8.579  70.689  1.00  0.00    -0.278 A  
ENDBRANCH   9  12
ENDBRANCH   3   9
ENDBRANCH   2   3
TORSDOF 5
ENDMDL
MODEL      210
REMARK 921   NORMALIZED FREE ENERGY PREDICTED BY IDOCK:   -3.69 KCAL/MOL
REMARK 922        TOTAL FREE ENERGY PREDICTED BY IDOCK:   -5.62 KCAL/MOL
REMARK 923 INTER-LIGAND FREE ENERGY PREDICTED BY IDOCK:   -5.02 KCAL/MOL
REMARK 924 INTRA-LIGAND FREE ENERGY PREDICTED BY IDOCK:   -0.61 KCAL/MOL
REMARK 927      BINDING AFFINITY PREDICTED BY RF-SCORE:    0.00 PKD
ROOT
HETATM    1  C   UNL     1     -11.945  12.156  70.222  1.00  0.00    -0.389 C  
HETATM    2  C   UNL     1     -12.096  10.862  69.429  1.00  0.00    -0.362 C  
ENDROOT
BRANCH   2   3
HETATM    3  C   UNL     1     -10.761  10.206  68.982  1.00  0.00    -0.221 C  
BRANCH   3   4
HETATM    4  N   UNL     1      -9.641  10.494  69.912  1.00  0.00    -0.395 NA 
HETATM    5  H   UNL     1      -9.140  11.383  69.888  1.00  0.00     0.000 HD 
BRANCH   4   6
HETATM    6  C   UNL     1      -9.288   9.437  70.869  1.00  0.00    -0.193 C  
HETATM    7  C   UNL     1      -8.596   8.310  70.095  1.00  0.00    -0.128 C  
HETATM    8  C   UNL     1     -10.494   8.877  71.624  1.00  0.00    -0.408 C  
ENDBRANCH   4   6
ENDBRANCH   3   4
BRANCH   3   9
HETATM    9  C   UNL     1     -10.391  10.632  67.514  1.00  0.00    -0.214 C  
HETATM   10  H   UNL     1     -11.344  11.140  65.850  1.00  0.00     0.000 HD 
HETATM   11  O   UNL     1     -11.567  10.883  66.737  1.00  0.00    -0.254 OA 
BRANCH   9  12
HETATM   12  C   UNL     1      -9.429   9.698  66.776  1.00  0.00    -0.209 A  
HETATM   13  C   UNL     1      -9.594   8.299  66.628  1.00  0.00    -0.299 A  
HETATM   14  C   UNL     1     -10.670   7.532  67.277  1.00  0.00    -0.365 C  
HETATM   15  C   UNL     1     -10.887   6.246  66.973  1.00  0.00    -0.458 C  
HETATM   16  C   UNL     1     -10.034   5.538  65.998  1.00  0.00    -0.035 C  
HETATM   17  N   UNL     1      -8.956   6.222  65.516  1.00  0.00    -0.354 N  
HETATM   18  O   UNL     1     -10.281   4.387  65.655  1.00  0.00    -0.237 OA 
HETATM   19  H   UNL     1      -8.299   5.722  64.918  1.00  0.00     0.000 HD 
HETATM   20  C   UNL     1      -8.699   7.576  65.796  1.00  0.00    -0.118 A  
HETATM   21  C   UNL     1      -7.609   8.221  65.203  1.00  0.00    -0.093 A  
HETATM   22  O   UNL     1      -6.696   7.570  64.422  1.00  0.00    -0.047 OA 
HETATM   23  C   UNL     1      -7.411   9.580  65.387  1.00  0.00    -0.099 A  
HETATM   24  H   UNL     1      -5.955   8.008  64.019  1.00  0.00     0.000 HD 
HETATM   25  C   UNL     1      -8.316  10.310  66.156  1.00  0.00    -0.140 A  
ENDBRANCH   9  12
ENDBRANCH   3   9
ENDBRANCH   2   3
TORSDOF 5
ENDMDL
MODEL      211
REMARK 921   NORMALIZED FREE ENERGY PREDICTED BY IDOCK:   -3.65 KCAL/MOL
REMARK 922        TOTAL FREE ENERGY PREDICTED BY IDOCK:   -5.56 KCAL/MOL
REMARK 923 INTER-LIGAND FREE ENERGY PREDICTED BY IDOCK:   -5.12 KCAL/MOL
REMARK 924 INTRA-LIGAND FREE ENERGY PREDICTED BY IDOCK:   -0.44 KCAL/MOL
REMARK 927      BINDING AFFINITY PREDICTED BY RF-SCORE:    0.00 PKD
ROOT
HETATM    1  C   UNL     1     -10.019   5.909  67.564  1.00  0.00    -0.163 C  
HETATM    2  C   UNL     1     -10.389   7.386  67.665  1.00  0.00    -0.297 C  
ENDROOT
BRANCH   2   3
HETATM    3  C   UNL     1     -10.015   8.065  69.011  1.00  0.00    -0.185 C  
BRANCH   3   4
HETATM    4  N   UNL     1     -11.186   8.672  69.692  1.00  0.00    -0.445 NA 
HETATM    5  H   UNL     1     -11.719   9.430  69.267  1.00  0.00     0.000 HD 
BRANCH   4   6
HETATM    6  C   UNL     1     -11.539   8.126  71.009  1.00  0.00    -0.279 C  
HETATM    7  C   UNL     1     -10.462   8.564  72.007  1.00  0.00    -0.407 C  
HETATM    8  C   UNL     1     -11.662   6.602  71.020  1.00  0.00    -0.415 C  
ENDBRANCH   4   6
ENDBRANCH   3   4
BRANCH   3   9
HETATM    9  C   UNL     1      -8.877   9.130  68.804  1.00  0.00    -0.132 C  
HETATM   10  H   UNL     1      -8.499  10.999  69.351  1.00  0.00     0.000 HD 
HETATM   11  O   UNL     1      -9.187  10.356  69.476  1.00  0.00    -0.194 OA 
BRANCH   9  12
HETATM   12  C   UNL     1      -8.462   9.384  67.353  1.00  0.00    -0.125 A  
HETATM   13  C   UNL     1      -9.121  10.254  66.451  1.00  0.00    -0.174 A  
HETATM   14  C   UNL     1     -10.382  10.949  66.763  1.00  0.00    -0.289 C  
HETATM   15  C   UNL     1     -10.876  11.889  65.948  1.00  0.00    -0.342 C  
HETATM   16  C   UNL     1     -10.193  12.243  64.688  1.00  0.00    -0.285 C  
HETATM   17  N   UNL     1      -9.108  11.491  64.347  1.00  0.00    -0.401 N  
HETATM   18  O   UNL     1     -10.596  13.162  63.983  1.00  0.00    -0.402 OA 
HETATM   19  H   UNL     1      -8.679  11.652  63.436  1.00  0.00     0.000 HD 
HETATM   20  C   UNL     1      -8.546  10.505  65.178  1.00  0.00    -0.180 A  
HETATM   21  C   UNL     1      -7.389   9.828  64.781  1.00  0.00    -0.130 A  
HETATM   22  O   UNL     1      -6.810  10.002  63.555  1.00  0.00    -0.127 OA 
HETATM   23  C   UNL     1      -6.767   8.934  65.639  1.00  0.00    -0.072 A  
HETATM   24  H   UNL     1      -6.024   9.542  63.284  1.00  0.00     0.000 HD 
HETATM   25  C   UNL     1      -7.293   8.723  66.912  1.00  0.00    -0.079 A  
ENDBRANCH   9  12
ENDBRANCH   3   9
ENDBRANCH   2   3
TORSDOF 5
ENDMDL
MODEL      212
REMARK 921   NORMALIZED FREE ENERGY PREDICTED BY IDOCK:   -3.62 KCAL/MOL
REMARK 922        TOTAL FREE ENERGY PREDICTED BY IDOCK:   -5.53 KCAL/MOL
REMARK 923 INTER-LIGAND FREE ENERGY PREDICTED BY IDOCK:   -5.24 KCAL/MOL
REMARK 924 INTRA-LIGAND FREE ENERGY PREDICTED BY IDOCK:   -0.29 KCAL/MOL
REMARK 927      BINDING AFFINITY PREDICTED BY RF-SCORE:    0.00 PKD
ROOT
HETATM    1  C   UNL     1     -12.522   6.825  71.357  1.00  0.00    -0.379 C  
HETATM    2  C   UNL     1     -11.515   6.799  70.211  1.00  0.00    -0.414 C  
ENDROOT
BRANCH   2   3
HETATM    3  C   UNL     1     -10.029   6.677  70.646  1.00  0.00    -0.184 C  
BRANCH   3   4
HETATM    4  N   UNL     1      -9.875   6.439  72.104  1.00  0.00    -0.160 NA 
HETATM    5  H   UNL     1     -10.240   7.095  72.794  1.00  0.00     0.000 HD 
BRANCH   4   6
HETATM    6  C   UNL     1      -9.172   5.213  72.501  1.00  0.00    -0.132 C  
HETATM    7  C   UNL     1      -8.226   5.562  73.655  1.00  0.00    -0.112 C  
HETATM    8  C   UNL     1      -8.378   4.573  71.362  1.00  0.00    -0.104 C  
ENDBRANCH   4   6
ENDBRANCH   3   4
BRANCH   3   9
HETATM    9  C   UNL     1      -9.208   7.942  70.198  1.00  0.00    -0.153 C  
HETATM   10  H   UNL     1      -8.769   9.737  70.920  1.00  0.00     0.000 HD 
HETATM   11  O   UNL     1      -9.265   8.973  71.191  1.00  0.00    -0.231 OA 
BRANCH   9  12
HETATM   12  C   UNL     1      -9.543   8.491  68.810  1.00  0.00    -0.150 A  
HETATM   13  C   UNL     1     -10.320   9.647  68.550  1.00  0.00    -0.231 A  
HETATM   14  C   UNL     1     -11.016  10.414  69.596  1.00  0.00    -0.325 C  
HETATM   15  C   UNL     1     -11.595  11.590  69.325  1.00  0.00    -0.388 C  
HETATM   16  C   UNL     1     -11.587  12.148  67.959  1.00  0.00    -0.348 C  
HETATM   17  N   UNL     1     -11.064  11.359  66.977  1.00  0.00    -0.295 N  
HETATM   18  O   UNL     1     -12.041  13.263  67.725  1.00  0.00    -0.331 OA 
HETATM   19  H   UNL     1     -11.135  11.682  66.012  1.00  0.00     0.000 HD 
HETATM   20  C   UNL     1     -10.433  10.125  67.218  1.00  0.00    -0.256 A  
HETATM   21  C   UNL     1      -9.861   9.411  66.161  1.00  0.00    -0.285 A  
HETATM   22  O   UNL     1      -9.966   9.804  64.855  1.00  0.00    -0.412 OA 
HETATM   23  C   UNL     1      -9.143   8.250  66.403  1.00  0.00    -0.226 A  
HETATM   24  H   UNL     1      -9.577   9.319  64.137  1.00  0.00     0.000 HD 
HETATM   25  C   UNL     1      -8.980   7.802  67.712  1.00  0.00    -0.128 A  
ENDBRANCH   9  12
ENDBRANCH   3   9
ENDBRANCH   2   3
TORSDOF 5
ENDMDL
MODEL      213
REMARK 921   NORMALIZED FREE ENERGY PREDICTED BY IDOCK:   -3.59 KCAL/MOL
REMARK 922        TOTAL FREE ENERGY PREDICTED BY IDOCK:   -5.50 KCAL/MOL
REMARK 923 INTER-LIGAND FREE ENERGY PREDICTED BY IDOCK:   -6.10 KCAL/MOL
REMARK 924 INTRA-LIGAND FREE ENERGY PREDICTED BY IDOCK:    0.60 KCAL/MOL
REMARK 927      BINDING AFFINITY PREDICTED BY RF-SCORE:    0.00 PKD
ROOT
HETATM    1  C   UNL     1     -12.627  13.028  65.495  1.00  0.00    -0.422 C  
HETATM    2  C   UNL     1     -12.017  13.225  66.879  1.00  0.00    -0.430 C  
ENDROOT
BRANCH   2   3
HETATM    3  C   UNL     1     -10.592  12.633  67.058  1.00  0.00    -0.240 C  
BRANCH   3   4
HETATM    4  N   UNL     1     -10.232  12.423  68.483  1.00  0.00    -0.279 NA 
HETATM    5  H   UNL     1      -9.835  13.172  69.051  1.00  0.00     0.000 HD 
BRANCH   4   6
HETATM    6  C   UNL     1     -10.477  11.084  69.035  1.00  0.00    -0.216 C  
HETATM    7  C   UNL     1     -10.681  10.119  67.863  1.00  0.00    -0.317 C  
HETATM    8  C   UNL     1     -11.689  11.025  69.966  1.00  0.00    -0.437 C  
ENDBRANCH   4   6
ENDBRANCH   3   4
BRANCH   3   9
HETATM    9  C   UNL     1      -9.519  13.528  66.338  1.00  0.00    -0.224 C  
HETATM   10  H   UNL     1      -7.574  13.893  66.487  1.00  0.00     0.000 HD 
HETATM   11  O   UNL     1      -8.223  13.352  66.921  1.00  0.00    -0.092 OA 
BRANCH   9  12
HETATM   12  C   UNL     1      -9.871  15.012  66.211  1.00  0.00    -0.307 A  
HETATM   13  C   UNL     1      -9.380  16.047  67.043  1.00  0.00    -0.233 A  
HETATM   14  C   UNL     1      -8.545  15.809  68.233  1.00  0.00    -0.170 C  
HETATM   15  C   UNL     1      -7.966  16.822  68.888  1.00  0.00    -0.237 C  
HETATM   16  C   UNL     1      -8.168  18.221  68.463  1.00  0.00    -0.312 C  
HETATM   17  N   UNL     1      -9.057  18.432  67.450  1.00  0.00    -0.263 N  
HETATM   18  O   UNL     1      -7.572  19.144  69.008  1.00  0.00    -0.345 OA 
HETATM   19  H   UNL     1      -9.286  19.395  67.204  1.00  0.00     0.000 HD 
HETATM   20  C   UNL     1      -9.675  17.398  66.724  1.00  0.00    -0.290 A  
HETATM   21  C   UNL     1     -10.521  17.701  65.653  1.00  0.00    -0.144 A  
HETATM   22  O   UNL     1     -10.869  18.981  65.320  1.00  0.00    -0.540 OA 
HETATM   23  C   UNL     1     -11.048  16.690  64.865  1.00  0.00    -0.137 A  
HETATM   24  H   UNL     1     -11.444  19.187  64.592  1.00  0.00     0.000 HD 
HETATM   25  C   UNL     1     -10.719  15.363  65.136  1.00  0.00    -0.460 A  
ENDBRANCH   9  12
ENDBRANCH   3   9
ENDBRANCH   2   3
TORSDOF 5
ENDMDL
MODEL      214
REMARK 921   NORMALIZED FREE ENERGY PREDICTED BY IDOCK:   -3.59 KCAL/MOL
REMARK 922        TOTAL FREE ENERGY PREDICTED BY IDOCK:   -5.50 KCAL/MOL
REMARK 923 INTER-LIGAND FREE ENERGY PREDICTED BY IDOCK:   -5.10 KCAL/MOL
REMARK 924 INTRA-LIGAND FREE ENERGY PREDICTED BY IDOCK:   -0.40 KCAL/MOL
REMARK 927      BINDING AFFINITY PREDICTED BY RF-SCORE:    0.00 PKD
ROOT
HETATM    1  C   UNL     1      -7.792   5.678  69.091  1.00  0.00    -0.089 C  
HETATM    2  C   UNL     1      -8.602   5.966  70.351  1.00  0.00    -0.135 C  
ENDROOT
BRANCH   2   3
HETATM    3  C   UNL     1      -7.815   6.668  71.491  1.00  0.00    -0.099 C  
BRANCH   3   4
HETATM    4  N   UNL     1      -8.303   6.293  72.842  1.00  0.00    -0.118 NA 
HETATM    5  H   UNL     1      -9.176   6.664  73.217  1.00  0.00     0.000 HD 
BRANCH   4   6
HETATM    6  C   UNL     1      -7.468   5.360  73.610  1.00  0.00    -0.091 C  
HETATM    7  C   UNL     1      -6.115   5.242  72.899  1.00  0.00    -0.031 C  
HETATM    8  C   UNL     1      -8.092   3.973  73.762  1.00  0.00    -0.088 C  
ENDBRANCH   4   6
ENDBRANCH   3   4
BRANCH   3   9
HETATM    9  C   UNL     1      -7.833   8.229  71.305  1.00  0.00    -0.102 C  
HETATM   10  H   UNL     1      -7.707   9.845  72.451  1.00  0.00     0.000 HD 
HETATM   11  O   UNL     1      -7.696   8.901  72.563  1.00  0.00    -0.362 OA 
BRANCH   9  12
HETATM   12  C   UNL     1      -9.012   8.788  70.505  1.00  0.00    -0.203 A  
HETATM   13  C   UNL     1     -10.367   8.772  70.919  1.00  0.00    -0.281 A  
HETATM   14  C   UNL     1     -10.838   8.098  72.140  1.00  0.00    -0.370 C  
HETATM   15  C   UNL     1     -12.093   8.254  72.578  1.00  0.00    -0.400 C  
HETATM   16  C   UNL     1     -13.064   9.081  71.835  1.00  0.00    -0.400 C  
HETATM   17  N   UNL     1     -12.652   9.579  70.634  1.00  0.00    -0.507 N  
HETATM   18  O   UNL     1     -14.188   9.294  72.277  1.00  0.00    -0.371 OA 
HETATM   19  H   UNL     1     -13.336  10.071  70.058  1.00  0.00     0.000 HD 
HETATM   20  C   UNL     1     -11.340   9.454  70.143  1.00  0.00    -0.185 A  
HETATM   21  C   UNL     1     -10.983  10.056  68.932  1.00  0.00    -0.207 A  
HETATM   22  O   UNL     1     -11.883  10.695  68.127  1.00  0.00    -0.748 OA 
HETATM   23  C   UNL     1      -9.668  10.030  68.495  1.00  0.00    -0.164 A  
HETATM   24  H   UNL     1     -11.641  11.104  67.304  1.00  0.00     0.000 HD 
HETATM   25  C   UNL     1      -8.695   9.411  69.277  1.00  0.00    -0.145 A  
ENDBRANCH   9  12
ENDBRANCH   3   9
ENDBRANCH   2   3
TORSDOF 5
ENDMDL
MODEL      215
REMARK 921   NORMALIZED FREE ENERGY PREDICTED BY IDOCK:   -3.58 KCAL/MOL
REMARK 922        TOTAL FREE ENERGY PREDICTED BY IDOCK:   -5.47 KCAL/MOL
REMARK 923 INTER-LIGAND FREE ENERGY PREDICTED BY IDOCK:   -4.46 KCAL/MOL
REMARK 924 INTRA-LIGAND FREE ENERGY PREDICTED BY IDOCK:   -1.01 KCAL/MOL
REMARK 927      BINDING AFFINITY PREDICTED BY RF-SCORE:    0.00 PKD
ROOT
HETATM    1  C   UNL     1     -11.262   4.321  73.586  1.00  0.00    -0.325 C  
HETATM    2  C   UNL     1     -10.242   5.362  73.133  1.00  0.00    -0.216 C  
ENDROOT
BRANCH   2   3
HETATM    3  C   UNL     1     -10.109   5.523  71.594  1.00  0.00    -0.195 C  
BRANCH   3   4
HETATM    4  N   UNL     1      -8.700   5.463  71.130  1.00  0.00    -0.128 NA 
HETATM    5  H   UNL     1      -8.074   6.264  71.216  1.00  0.00     0.000 HD 
BRANCH   4   6
HETATM    6  C   UNL     1      -8.252   4.194  70.542  1.00  0.00    -0.062 C  
HETATM    7  C   UNL     1      -9.468   3.512  69.907  1.00  0.00    -0.254 C  
HETATM    8  C   UNL     1      -7.605   3.251  71.556  1.00  0.00    -0.048 C  
ENDBRANCH   4   6
ENDBRANCH   3   4
BRANCH   3   9
HETATM    9  C   UNL     1     -10.801   6.848  71.107  1.00  0.00    -0.240 C  
HETATM   10  H   UNL     1     -12.632   7.610  71.045  1.00  0.00     0.000 HD 
HETATM   11  O   UNL     1     -12.214   6.809  71.339  1.00  0.00    -0.343 OA 
BRANCH   9  12
HETATM   12  C   UNL     1     -10.488   7.269  69.669  1.00  0.00    -0.239 A  
HETATM   13  C   UNL     1      -9.612   8.317  69.292  1.00  0.00    -0.164 A  
HETATM   14  C   UNL     1      -8.969   9.227  70.255  1.00  0.00    -0.261 C  
HETATM   15  C   UNL     1      -8.021  10.089  69.868  1.00  0.00    -0.184 C  
HETATM   16  C   UNL     1      -7.606  10.183  68.454  1.00  0.00    -0.087 C  
HETATM   17  N   UNL     1      -8.311   9.436  67.557  1.00  0.00    -0.121 N  
HETATM   18  O   UNL     1      -6.680  10.909  68.110  1.00  0.00    -0.062 OA 
HETATM   19  H   UNL     1      -8.107   9.557  66.565  1.00  0.00     0.000 HD 
HETATM   20  C   UNL     1      -9.303   8.507  67.920  1.00  0.00    -0.135 A  
HETATM   21  C   UNL     1      -9.929   7.730  66.941  1.00  0.00    -0.261 A  
HETATM   22  O   UNL     1      -9.697   7.891  65.604  1.00  0.00    -0.346 OA 
HETATM   23  C   UNL     1     -10.828   6.737  67.299  1.00  0.00    -0.443 A  
HETATM   24  H   UNL     1     -10.123   7.363  64.938  1.00  0.00     0.000 HD 
HETATM   25  C   UNL     1     -11.096   6.505  68.647  1.00  0.00    -0.348 A  
ENDBRANCH   9  12
ENDBRANCH   3   9
ENDBRANCH   2   3
TORSDOF 5
ENDMDL
MODEL      216
REMARK 921   NORMALIZED FREE ENERGY PREDICTED BY IDOCK:   -3.58 KCAL/MOL
REMARK 922        TOTAL FREE ENERGY PREDICTED BY IDOCK:   -5.47 KCAL/MOL
REMARK 923 INTER-LIGAND FREE ENERGY PREDICTED BY IDOCK:   -4.49 KCAL/MOL
REMARK 924 INTRA-LIGAND FREE ENERGY PREDICTED BY IDOCK:   -0.98 KCAL/MOL
REMARK 927      BINDING AFFINITY PREDICTED BY RF-SCORE:    0.00 PKD
ROOT
HETATM    1  C   UNL     1      -5.927   7.710  65.749  1.00  0.00    -0.038 C  
HETATM    2  C   UNL     1      -7.093   8.428  66.422  1.00  0.00    -0.071 C  
ENDROOT
BRANCH   2   3
HETATM    3  C   UNL     1      -7.375   7.991  67.886  1.00  0.00    -0.093 C  
BRANCH   3   4
HETATM    4  N   UNL     1      -8.551   7.093  68.001  1.00  0.00    -0.128 NA 
HETATM    5  H   UNL     1      -8.765   6.599  68.867  1.00  0.00     0.000 HD 
BRANCH   4   6
HETATM    6  C   UNL     1      -9.391   6.949  66.805  1.00  0.00    -0.158 C  
HETATM    7  C   UNL     1     -10.820   7.357  67.179  1.00  0.00    -0.340 C  
HETATM    8  C   UNL     1      -9.394   5.531  66.232  1.00  0.00    -0.166 C  
ENDBRANCH   4   6
ENDBRANCH   3   4
BRANCH   3   9
HETATM    9  C   UNL     1      -7.538   9.244  68.823  1.00  0.00    -0.079 C  
HETATM   10  H   UNL     1      -6.384  10.672  69.576  1.00  0.00     0.000 HD 
HETATM   11  O   UNL     1      -6.286   9.915  69.010  1.00  0.00    -0.041 OA 
BRANCH   9  12
HETATM   12  C   UNL     1      -8.232   8.985  70.161  1.00  0.00    -0.140 A  
HETATM   13  C   UNL     1      -9.557   9.366  70.487  1.00  0.00    -0.330 A  
HETATM   14  C   UNL     1     -10.411  10.179  69.605  1.00  0.00    -0.282 C  
HETATM   15  C   UNL     1     -11.708  10.369  69.877  1.00  0.00    -0.341 C  
HETATM   16  C   UNL     1     -12.324   9.799  71.091  1.00  0.00    -0.359 C  
HETATM   17  N   UNL     1     -11.487   9.172  71.967  1.00  0.00    -0.344 N  
HETATM   18  O   UNL     1     -13.528   9.900  71.300  1.00  0.00    -0.367 OA 
HETATM   19  H   UNL     1     -11.873   8.856  72.857  1.00  0.00     0.000 HD 
HETATM   20  C   UNL     1     -10.124   8.936  71.715  1.00  0.00    -0.337 A  
HETATM   21  C   UNL     1      -9.353   8.223  72.637  1.00  0.00    -0.280 A  
HETATM   22  O   UNL     1      -9.834   7.813  73.850  1.00  0.00    -0.355 OA 
HETATM   23  C   UNL     1      -8.038   7.891  72.348  1.00  0.00    -0.167 A  
HETATM   24  H   UNL     1      -9.310   7.329  74.477  1.00  0.00     0.000 HD 
HETATM   25  C   UNL     1      -7.489   8.261  71.122  1.00  0.00    -0.076 A  
ENDBRANCH   9  12
ENDBRANCH   3   9
ENDBRANCH   2   3
TORSDOF 5
ENDMDL
MODEL      217
REMARK 921   NORMALIZED FREE ENERGY PREDICTED BY IDOCK:   -3.57 KCAL/MOL
REMARK 922        TOTAL FREE ENERGY PREDICTED BY IDOCK:   -5.46 KCAL/MOL
REMARK 923 INTER-LIGAND FREE ENERGY PREDICTED BY IDOCK:   -4.72 KCAL/MOL
REMARK 924 INTRA-LIGAND FREE ENERGY PREDICTED BY IDOCK:   -0.75 KCAL/MOL
REMARK 927      BINDING AFFINITY PREDICTED BY RF-SCORE:    0.00 PKD
ROOT
HETATM    1  C   UNL     1     -11.490  14.836  66.634  1.00  0.00    -0.339 C  
HETATM    2  C   UNL     1     -10.704  14.424  67.875  1.00  0.00    -0.246 C  
ENDROOT
BRANCH   2   3
HETATM    3  C   UNL     1      -9.867  13.125  67.720  1.00  0.00    -0.228 C  
BRANCH   3   4
HETATM    4  N   UNL     1      -9.811  12.326  68.970  1.00  0.00    -0.406 NA 
HETATM    5  H   UNL     1      -9.342  12.672  69.807  1.00  0.00     0.000 HD 
BRANCH   4   6
HETATM    6  C   UNL     1     -10.465  11.010  68.941  1.00  0.00    -0.204 C  
HETATM    7  C   UNL     1     -11.591  11.019  69.980  1.00  0.00    -0.427 C  
HETATM    8  C   UNL     1      -9.508   9.853  69.229  1.00  0.00    -0.218 C  
ENDBRANCH   4   6
ENDBRANCH   3   4
BRANCH   3   9
HETATM    9  C   UNL     1      -8.419  13.450  67.201  1.00  0.00    -0.170 C  
HETATM   10  H   UNL     1      -6.734  12.465  66.840  1.00  0.00     0.000 HD 
HETATM   11  O   UNL     1      -7.610  12.269  67.153  1.00  0.00    -0.150 OA 
BRANCH   9  12
HETATM   12  C   UNL     1      -7.694  14.587  67.925  1.00  0.00    -0.147 A  
HETATM   13  C   UNL     1      -7.652  15.937  67.497  1.00  0.00    -0.186 A  
HETATM   14  C   UNL     1      -8.210  16.404  66.217  1.00  0.00    -0.343 C  
HETATM   15  C   UNL     1      -8.297  17.710  65.933  1.00  0.00     0.015 C  
HETATM   16  C   UNL     1      -7.808  18.731  66.880  1.00  0.00    -0.242 C  
HETATM   17  N   UNL     1      -7.166  18.277  67.994  1.00  0.00    -0.231 N  
HETATM   18  O   UNL     1      -7.964  19.928  66.662  1.00  0.00    -0.289 OA 
HETATM   19  H   UNL     1      -6.734  18.963  68.614  1.00  0.00     0.000 HD 
HETATM   20  C   UNL     1      -7.064  16.917  68.339  1.00  0.00    -0.187 A  
HETATM   21  C   UNL     1      -6.449  16.541  69.537  1.00  0.00    -0.223 A  
HETATM   22  O   UNL     1      -5.837  17.434  70.371  1.00  0.00    -0.206 OA 
HETATM   23  C   UNL     1      -6.441  15.214  69.937  1.00  0.00    -0.171 A  
HETATM   24  H   UNL     1      -5.419  17.179  71.185  1.00  0.00     0.000 HD 
HETATM   25  C   UNL     1      -7.064  14.252  69.144  1.00  0.00    -0.117 A  
ENDBRANCH   9  12
ENDBRANCH   3   9
ENDBRANCH   2   3
TORSDOF 5
ENDMDL
MODEL      218
REMARK 921   NORMALIZED FREE ENERGY PREDICTED BY IDOCK:   -3.56 KCAL/MOL
REMARK 922        TOTAL FREE ENERGY PREDICTED BY IDOCK:   -5.45 KCAL/MOL
REMARK 923 INTER-LIGAND FREE ENERGY PREDICTED BY IDOCK:   -4.42 KCAL/MOL
REMARK 924 INTRA-LIGAND FREE ENERGY PREDICTED BY IDOCK:   -1.03 KCAL/MOL
REMARK 927      BINDING AFFINITY PREDICTED BY RF-SCORE:    0.00 PKD
ROOT
HETATM    1  C   UNL     1      -9.757   3.298  72.230  1.00  0.00    -0.223 C  
HETATM    2  C   UNL     1      -9.787   4.142  70.959  1.00  0.00    -0.247 C  
ENDROOT
BRANCH   2   3
HETATM    3  C   UNL     1      -9.276   5.600  71.127  1.00  0.00    -0.149 C  
BRANCH   3   4
HETATM    4  N   UNL     1      -8.769   5.876  72.495  1.00  0.00    -0.124 NA 
HETATM    5  H   UNL     1      -7.998   5.343  72.897  1.00  0.00     0.000 HD 
BRANCH   4   6
HETATM    6  C   UNL     1      -9.432   6.954  73.239  1.00  0.00    -0.156 C  
HETATM    7  C   UNL     1      -8.355   7.940  73.705  1.00  0.00    -0.282 C  
HETATM    8  C   UNL     1     -10.230   6.457  74.445  1.00  0.00    -0.343 C  
ENDBRANCH   4   6
ENDBRANCH   3   4
BRANCH   3   9
HETATM    9  C   UNL     1     -10.390   6.634  70.727  1.00  0.00    -0.202 C  
HETATM   10  H   UNL     1     -12.370   6.684  70.604  1.00  0.00     0.000 HD 
HETATM   11  O   UNL     1     -11.697   6.059  70.846  1.00  0.00    -0.207 OA 
BRANCH   9  12
HETATM   12  C   UNL     1     -10.207   7.312  69.368  1.00  0.00    -0.193 A  
HETATM   13  C   UNL     1      -9.383   8.437  69.116  1.00  0.00    -0.151 A  
HETATM   14  C   UNL     1      -8.677   9.183  70.171  1.00  0.00    -0.196 C  
HETATM   15  C   UNL     1      -7.780  10.130  69.870  1.00  0.00    -0.171 C  
HETATM   16  C   UNL     1      -7.486  10.485  68.467  1.00  0.00    -0.091 C  
HETATM   17  N   UNL     1      -8.252   9.886  67.510  1.00  0.00    -0.114 N  
HETATM   18  O   UNL     1      -6.605  11.290  68.187  1.00  0.00    -0.056 OA 
HETATM   19  H   UNL     1      -8.134  10.188  66.543  1.00  0.00     0.000 HD 
HETATM   20  C   UNL     1      -9.194   8.877  67.780  1.00  0.00    -0.141 A  
HETATM   21  C   UNL     1      -9.887   8.266  66.730  1.00  0.00    -0.263 A  
HETATM   22  O   UNL     1      -9.771   8.669  65.429  1.00  0.00    -0.405 OA 
HETATM   23  C   UNL     1     -10.735   7.198  66.975  1.00  0.00    -0.420 A  
HETATM   24  H   UNL     1     -10.242   8.254  64.716  1.00  0.00     0.000 HD 
HETATM   25  C   UNL     1     -10.885   6.723  68.277  1.00  0.00    -0.290 A  
ENDBRANCH   9  12
ENDBRANCH   3   9
ENDBRANCH   2   3
TORSDOF 5
ENDMDL
MODEL      219
REMARK 921   NORMALIZED FREE ENERGY PREDICTED BY IDOCK:   -3.54 KCAL/MOL
REMARK 922        TOTAL FREE ENERGY PREDICTED BY IDOCK:   -5.43 KCAL/MOL
REMARK 923 INTER-LIGAND FREE ENERGY PREDICTED BY IDOCK:   -4.56 KCAL/MOL
REMARK 924 INTRA-LIGAND FREE ENERGY PREDICTED BY IDOCK:   -0.87 KCAL/MOL
REMARK 927      BINDING AFFINITY PREDICTED BY RF-SCORE:    0.00 PKD
ROOT
HETATM    1  C   UNL     1     -10.548   9.186  71.518  1.00  0.00    -0.428 C  
HETATM    2  C   UNL     1      -9.298   9.275  70.647  1.00  0.00    -0.329 C  
ENDROOT
BRANCH   2   3
HETATM    3  C   UNL     1      -9.274   8.305  69.434  1.00  0.00    -0.155 C  
BRANCH   3   4
HETATM    4  N   UNL     1      -8.845   6.933  69.805  1.00  0.00    -0.141 NA 
HETATM    5  H   UNL     1      -7.886   6.730  70.087  1.00  0.00     0.000 HD 
BRANCH   4   6
HETATM    6  C   UNL     1      -9.870   5.882  69.746  1.00  0.00    -0.169 C  
HETATM    7  C   UNL     1     -11.049   6.417  68.927  1.00  0.00    -0.420 C  
HETATM    8  C   UNL     1     -10.361   5.438  71.124  1.00  0.00    -0.304 C  
ENDBRANCH   4   6
ENDBRANCH   3   4
BRANCH   3   9
HETATM    9  C   UNL     1      -8.376   8.876  68.277  1.00  0.00    -0.125 C  
HETATM   10  H   UNL     1      -6.560   8.566  67.540  1.00  0.00     0.000 HD 
HETATM   11  O   UNL     1      -7.103   8.221  68.239  1.00  0.00    -0.078 OA 
BRANCH   9  12
HETATM   12  C   UNL     1      -8.215  10.398  68.253  1.00  0.00    -0.114 A  
HETATM   13  C   UNL     1      -9.219  11.324  67.875  1.00  0.00    -0.157 A  
HETATM   14  C   UNL     1     -10.531  10.928  67.335  1.00  0.00    -0.263 C  
HETATM   15  C   UNL     1     -11.505  11.827  67.152  1.00  0.00    -0.366 C  
HETATM   16  C   UNL     1     -11.293  13.256  67.455  1.00  0.00    -0.303 C  
HETATM   17  N   UNL     1     -10.030  13.625  67.817  1.00  0.00    -0.230 N  
HETATM   18  O   UNL     1     -12.208  14.067  67.370  1.00  0.00    -0.384 OA 
HETATM   19  H   UNL     1      -9.835  14.619  67.936  1.00  0.00     0.000 HD 
HETATM   20  C   UNL     1      -8.981  12.713  68.035  1.00  0.00    -0.200 A  
HETATM   21  C   UNL     1      -7.734  13.170  68.474  1.00  0.00    -0.117 A  
HETATM   22  O   UNL     1      -7.436  14.497  68.614  1.00  0.00    -0.114 OA 
HETATM   23  C   UNL     1      -6.729  12.272  68.795  1.00  0.00    -0.089 A  
HETATM   24  H   UNL     1      -6.589  14.808  68.911  1.00  0.00     0.000 HD 
HETATM   25  C   UNL     1      -6.971  10.903  68.694  1.00  0.00    -0.073 A  
ENDBRANCH   9  12
ENDBRANCH   3   9
ENDBRANCH   2   3
TORSDOF 5
ENDMDL
MODEL      220
REMARK 921   NORMALIZED FREE ENERGY PREDICTED BY IDOCK:   -3.54 KCAL/MOL
REMARK 922        TOTAL FREE ENERGY PREDICTED BY IDOCK:   -5.42 KCAL/MOL
REMARK 923 INTER-LIGAND FREE ENERGY PREDICTED BY IDOCK:   -5.14 KCAL/MOL
REMARK 924 INTRA-LIGAND FREE ENERGY PREDICTED BY IDOCK:   -0.28 KCAL/MOL
REMARK 927      BINDING AFFINITY PREDICTED BY RF-SCORE:    0.00 PKD
ROOT
HETATM    1  C   UNL     1     -12.447  13.760  65.561  1.00  0.00    -0.548 C  
HETATM    2  C   UNL     1     -11.789  13.833  66.936  1.00  0.00    -0.447 C  
ENDROOT
BRANCH   2   3
HETATM    3  C   UNL     1     -10.638  12.816  67.166  1.00  0.00    -0.237 C  
BRANCH   3   4
HETATM    4  N   UNL     1     -10.376  12.561  68.605  1.00  0.00    -0.332 NA 
HETATM    5  H   UNL     1      -9.940  13.264  69.203  1.00  0.00     0.000 HD 
BRANCH   4   6
HETATM    6  C   UNL     1     -10.778  11.248  69.126  1.00  0.00    -0.207 C  
HETATM    7  C   UNL     1     -11.140  10.357  67.934  1.00  0.00    -0.363 C  
HETATM    8  C   UNL     1     -11.959  11.316  70.095  1.00  0.00    -0.452 C  
ENDBRANCH   4   6
ENDBRANCH   3   4
BRANCH   3   9
HETATM    9  C   UNL     1      -9.325  13.280  66.435  1.00  0.00    -0.174 C  
HETATM   10  H   UNL     1      -7.469  12.622  66.194  1.00  0.00     0.000 HD 
HETATM   11  O   UNL     1      -8.262  12.342  66.636  1.00  0.00    -0.085 OA 
BRANCH   9  12
HETATM   12  C   UNL     1      -8.868  14.709  66.738  1.00  0.00    -0.269 A  
HETATM   13  C   UNL     1      -8.018  15.090  67.805  1.00  0.00    -0.155 A  
HETATM   14  C   UNL     1      -7.553  14.161  68.849  1.00  0.00    -0.098 C  
HETATM   15  C   UNL     1      -6.619  14.525  69.736  1.00  0.00    -0.158 C  
HETATM   16  C   UNL     1      -6.042  15.884  69.723  1.00  0.00    -0.169 C  
HETATM   17  N   UNL     1      -6.587  16.773  68.844  1.00  0.00    -0.177 N  
HETATM   18  O   UNL     1      -5.128  16.193  70.479  1.00  0.00    -0.160 OA 
HETATM   19  H   UNL     1      -6.272  17.742  68.884  1.00  0.00     0.000 HD 
HETATM   20  C   UNL     1      -7.557  16.430  67.884  1.00  0.00    -0.148 A  
HETATM   21  C   UNL     1      -8.012  17.388  66.973  1.00  0.00    -0.215 A  
HETATM   22  O   UNL     1      -7.630  18.700  67.021  1.00  0.00    -0.220 OA 
HETATM   23  C   UNL     1      -8.885  17.033  65.957  1.00  0.00    -0.170 A  
HETATM   24  H   UNL     1      -7.939  19.351  66.402  1.00  0.00     0.000 HD 
HETATM   25  C   UNL     1      -9.300  15.708  65.837  1.00  0.00    -0.357 A  
ENDBRANCH   9  12
ENDBRANCH   3   9
ENDBRANCH   2   3
TORSDOF 5
ENDMDL
MODEL      221
REMARK 921   NORMALIZED FREE ENERGY PREDICTED BY IDOCK:   -3.50 KCAL/MOL
REMARK 922        TOTAL FREE ENERGY PREDICTED BY IDOCK:   -5.37 KCAL/MOL
REMARK 923 INTER-LIGAND FREE ENERGY PREDICTED BY IDOCK:   -4.41 KCAL/MOL
REMARK 924 INTRA-LIGAND FREE ENERGY PREDICTED BY IDOCK:   -0.96 KCAL/MOL
REMARK 927      BINDING AFFINITY PREDICTED BY RF-SCORE:    0.00 PKD
ROOT
HETATM    1  C   UNL     1      -7.303   4.218  66.858  1.00  0.00    -0.077 C  
HETATM    2  C   UNL     1      -8.531   3.666  67.578  1.00  0.00    -0.104 C  
ENDROOT
BRANCH   2   3
HETATM    3  C   UNL     1      -9.072   4.557  68.729  1.00  0.00    -0.120 C  
BRANCH   3   4
HETATM    4  N   UNL     1      -9.391   3.780  69.954  1.00  0.00    -0.161 NA 
HETATM    5  H   UNL     1      -9.676   2.802  69.908  1.00  0.00     0.000 HD 
BRANCH   4   6
HETATM    6  C   UNL     1      -9.276   4.491  71.234  1.00  0.00    -0.140 C  
HETATM    7  C   UNL     1      -7.804   4.467  71.658  1.00  0.00    -0.091 C  
HETATM    8  C   UNL     1     -10.140   3.887  72.342  1.00  0.00    -0.237 C  
ENDBRANCH   4   6
ENDBRANCH   3   4
BRANCH   3   9
HETATM    9  C   UNL     1     -10.319   5.389  68.256  1.00  0.00    -0.146 C  
HETATM   10  H   UNL     1     -11.311   5.714  66.568  1.00  0.00     0.000 HD 
HETATM   11  O   UNL     1     -10.557   5.212  66.855  1.00  0.00    -0.245 OA 
BRANCH   9  12
HETATM   12  C   UNL     1     -10.307   6.872  68.632  1.00  0.00    -0.200 A  
HETATM   13  C   UNL     1     -11.106   7.471  69.637  1.00  0.00    -0.099 A  
HETATM   14  C   UNL     1     -12.152   6.752  70.383  1.00  0.00    -0.270 C  
HETATM   15  C   UNL     1     -12.761   7.310  71.436  1.00  0.00    -0.427 C  
HETATM   16  C   UNL     1     -12.430   8.681  71.872  1.00  0.00    -0.357 C  
HETATM   17  N   UNL     1     -11.564   9.382  71.085  1.00  0.00    -0.316 N  
HETATM   18  O   UNL     1     -12.924   9.162  72.886  1.00  0.00    -0.294 OA 
HETATM   19  H   UNL     1     -11.396  10.362  71.311  1.00  0.00     0.000 HD 
HETATM   20  C   UNL     1     -10.890   8.831  69.979  1.00  0.00    -0.223 A  
HETATM   21  C   UNL     1      -9.965   9.601  69.268  1.00  0.00    -0.191 A  
HETATM   22  O   UNL     1      -9.741  10.924  69.529  1.00  0.00    -0.425 OA 
HETATM   23  C   UNL     1      -9.217   9.035  68.247  1.00  0.00    -0.139 A  
HETATM   24  H   UNL     1      -9.112  11.447  69.045  1.00  0.00     0.000 HD 
HETATM   25  C   UNL     1      -9.381   7.685  67.940  1.00  0.00    -0.146 A  
ENDBRANCH   9  12
ENDBRANCH   3   9
ENDBRANCH   2   3
TORSDOF 5
ENDMDL
MODEL      222
REMARK 921   NORMALIZED FREE ENERGY PREDICTED BY IDOCK:   -3.49 KCAL/MOL
REMARK 922        TOTAL FREE ENERGY PREDICTED BY IDOCK:   -5.36 KCAL/MOL
REMARK 923 INTER-LIGAND FREE ENERGY PREDICTED BY IDOCK:   -4.47 KCAL/MOL
REMARK 924 INTRA-LIGAND FREE ENERGY PREDICTED BY IDOCK:   -0.89 KCAL/MOL
REMARK 927      BINDING AFFINITY PREDICTED BY RF-SCORE:    0.00 PKD
ROOT
HETATM    1  C   UNL     1      -9.743   9.235  67.446  1.00  0.00    -0.208 C  
HETATM    2  C   UNL     1      -9.891   9.226  65.927  1.00  0.00    -0.335 C  
ENDROOT
BRANCH   2   3
HETATM    3  C   UNL     1      -9.999  10.629  65.270  1.00  0.00    -0.294 C  
BRANCH   3   4
HETATM    4  N   UNL     1      -8.687  11.152  64.813  1.00  0.00    -0.376 NA 
HETATM    5  H   UNL     1      -8.561  12.131  64.557  1.00  0.00     0.000 HD 
BRANCH   4   6
HETATM    6  C   UNL     1      -7.580  10.189  64.747  1.00  0.00    -0.139 C  
HETATM    7  C   UNL     1      -6.461  10.692  65.666  1.00  0.00    -0.090 C  
HETATM    8  C   UNL     1      -7.033   9.989  63.334  1.00  0.00    -0.131 C  
ENDBRANCH   4   6
ENDBRANCH   3   4
BRANCH   3   9
HETATM    9  C   UNL     1     -10.699  11.650  66.240  1.00  0.00    -0.272 C  
HETATM   10  H   UNL     1     -12.464  12.541  66.407  1.00  0.00     0.000 HD 
HETATM   11  O   UNL     1     -12.041  11.924  65.822  1.00  0.00    -0.451 OA 
BRANCH   9  12
HETATM   12  C   UNL     1      -9.928  12.944  66.509  1.00  0.00    -0.259 A  
HETATM   13  C   UNL     1      -8.869  13.091  67.438  1.00  0.00    -0.203 A  
HETATM   14  C   UNL     1      -8.445  12.029  68.366  1.00  0.00    -0.147 C  
HETATM   15  C   UNL     1      -7.335  12.154  69.104  1.00  0.00     0.069 C  
HETATM   16  C   UNL     1      -6.510  13.377  69.040  1.00  0.00    -0.105 C  
HETATM   17  N   UNL     1      -6.995  14.405  68.285  1.00  0.00    -0.101 N  
HETATM   18  O   UNL     1      -5.449  13.460  69.649  1.00  0.00    -0.085 OA 
HETATM   19  H   UNL     1      -6.492  15.292  68.304  1.00  0.00     0.000 HD 
HETATM   20  C   UNL     1      -8.146  14.312  67.483  1.00  0.00    -0.187 A  
HETATM   21  C   UNL     1      -8.534  15.392  66.685  1.00  0.00    -0.260 A  
HETATM   22  O   UNL     1      -7.899  16.602  66.711  1.00  0.00    -0.199 OA 
HETATM   23  C   UNL     1      -9.603  15.272  65.811  1.00  0.00    -0.359 A  
HETATM   24  H   UNL     1      -8.163  17.336  66.169  1.00  0.00     0.000 HD 
HETATM   25  C   UNL     1     -10.284  14.060  65.718  1.00  0.00    -0.343 A  
ENDBRANCH   9  12
ENDBRANCH   3   9
ENDBRANCH   2   3
TORSDOF 5
ENDMDL
MODEL      223
REMARK 921   NORMALIZED FREE ENERGY PREDICTED BY IDOCK:   -3.49 KCAL/MOL
REMARK 922        TOTAL FREE ENERGY PREDICTED BY IDOCK:   -5.36 KCAL/MOL
REMARK 923 INTER-LIGAND FREE ENERGY PREDICTED BY IDOCK:   -4.41 KCAL/MOL
REMARK 924 INTRA-LIGAND FREE ENERGY PREDICTED BY IDOCK:   -0.95 KCAL/MOL
REMARK 927      BINDING AFFINITY PREDICTED BY RF-SCORE:    0.00 PKD
ROOT
HETATM    1  C   UNL     1     -12.205   9.312  72.097  1.00  0.00    -0.377 C  
HETATM    2  C   UNL     1     -11.190   8.811  71.074  1.00  0.00    -0.329 C  
ENDROOT
BRANCH   2   3
HETATM    3  C   UNL     1     -10.367   7.571  71.520  1.00  0.00    -0.196 C  
BRANCH   3   4
HETATM    4  N   UNL     1      -9.047   7.485  70.846  1.00  0.00    -0.152 NA 
HETATM    5  H   UNL     1      -8.968   7.426  69.831  1.00  0.00     0.000 HD 
BRANCH   4   6
HETATM    6  C   UNL     1      -7.862   7.490  71.713  1.00  0.00    -0.086 C  
HETATM    7  C   UNL     1      -7.064   6.212  71.432  1.00  0.00    -0.078 C  
HETATM    8  C   UNL     1      -8.200   7.568  73.202  1.00  0.00    -0.158 C  
ENDBRANCH   4   6
ENDBRANCH   3   4
BRANCH   3   9
HETATM    9  C   UNL     1     -11.188   6.247  71.309  1.00  0.00    -0.297 C  
HETATM   10  H   UNL     1     -12.218   4.966  72.420  1.00  0.00     0.000 HD 
HETATM   11  O   UNL     1     -11.721   5.766  72.548  1.00  0.00    -0.309 OA 
BRANCH   9  12
HETATM   12  C   UNL     1     -10.466   5.133  70.548  1.00  0.00    -0.278 A  
HETATM   13  C   UNL     1     -10.334   5.052  69.140  1.00  0.00    -0.174 A  
HETATM   14  C   UNL     1     -10.989   5.982  68.205  1.00  0.00    -0.340 C  
HETATM   15  C   UNL     1     -10.700   5.971  66.898  1.00  0.00    -0.407 C  
HETATM   16  C   UNL     1      -9.738   5.001  66.337  1.00  0.00    -0.182 C  
HETATM   17  N   UNL     1      -9.251   4.056  67.192  1.00  0.00    -0.151 N  
HETATM   18  O   UNL     1      -9.408   5.043  65.157  1.00  0.00    -0.140 OA 
HETATM   19  H   UNL     1      -8.662   3.318  66.807  1.00  0.00     0.000 HD 
HETATM   20  C   UNL     1      -9.515   4.040  68.574  1.00  0.00    -0.151 A  
HETATM   21  C   UNL     1      -8.919   3.075  69.391  1.00  0.00    -0.113 A  
HETATM   22  O   UNL     1      -8.149   2.058  68.899  1.00  0.00    -0.048 OA 
HETATM   23  C   UNL     1      -9.086   3.117  70.766  1.00  0.00    -0.186 A  
HETATM   24  H   UNL     1      -7.744   1.402  69.454  1.00  0.00     0.000 HD 
HETATM   25  C   UNL     1      -9.843   4.139  71.336  1.00  0.00    -0.254 A  
ENDBRANCH   9  12
ENDBRANCH   3   9
ENDBRANCH   2   3
TORSDOF 5
ENDMDL
MODEL      224
REMARK 921   NORMALIZED FREE ENERGY PREDICTED BY IDOCK:   -3.46 KCAL/MOL
REMARK 922        TOTAL FREE ENERGY PREDICTED BY IDOCK:   -5.33 KCAL/MOL
REMARK 923 INTER-LIGAND FREE ENERGY PREDICTED BY IDOCK:   -4.36 KCAL/MOL
REMARK 924 INTRA-LIGAND FREE ENERGY PREDICTED BY IDOCK:   -0.97 KCAL/MOL
REMARK 927      BINDING AFFINITY PREDICTED BY RF-SCORE:    0.00 PKD
ROOT
HETATM    1  C   UNL     1      -9.578   4.047  71.486  1.00  0.00    -0.237 C  
HETATM    2  C   UNL     1     -10.167   4.873  70.346  1.00  0.00    -0.292 C  
ENDROOT
BRANCH   2   3
HETATM    3  C   UNL     1      -9.805   6.384  70.376  1.00  0.00    -0.169 C  
BRANCH   3   4
HETATM    4  N   UNL     1     -10.998   7.262  70.281  1.00  0.00    -0.256 NA 
HETATM    5  H   UNL     1     -11.421   7.493  69.382  1.00  0.00     0.000 HD 
BRANCH   4   6
HETATM    6  C   UNL     1     -11.538   7.780  71.544  1.00  0.00    -0.270 C  
HETATM    7  C   UNL     1     -12.435   8.979  71.219  1.00  0.00    -0.346 C  
HETATM    8  C   UNL     1     -10.455   8.203  72.538  1.00  0.00    -0.409 C  
ENDBRANCH   4   6
ENDBRANCH   3   4
BRANCH   3   9
HETATM    9  C   UNL     1      -8.763   6.733  69.251  1.00  0.00    -0.135 C  
HETATM   10  H   UNL     1      -6.926   6.192  68.733  1.00  0.00     0.000 HD 
HETATM   11  O   UNL     1      -7.555   5.981  69.413  1.00  0.00    -0.092 OA 
BRANCH   9  12
HETATM   12  C   UNL     1      -8.467   8.222  69.062  1.00  0.00    -0.131 A  
HETATM   13  C   UNL     1      -8.860   9.003  67.948  1.00  0.00    -0.129 A  
HETATM   14  C   UNL     1      -9.514   8.446  66.752  1.00  0.00    -0.255 C  
HETATM   15  C   UNL     1     -10.018   9.242  65.802  1.00  0.00    -0.215 C  
HETATM   16  C   UNL     1      -9.910  10.711  65.900  1.00  0.00    -0.243 C  
HETATM   17  N   UNL     1      -9.177  11.203  66.940  1.00  0.00    -0.166 N  
HETATM   18  O   UNL     1     -10.444  11.445  65.076  1.00  0.00    -0.277 OA 
HETATM   19  H   UNL     1      -9.006  12.209  66.974  1.00  0.00     0.000 HD 
HETATM   20  C   UNL     1      -8.643  10.406  67.968  1.00  0.00    -0.123 A  
HETATM   21  C   UNL     1      -7.963  10.999  69.036  1.00  0.00    -0.114 A  
HETATM   22  O   UNL     1      -7.694  12.339  69.093  1.00  0.00    -0.331 OA 
HETATM   23  C   UNL     1      -7.529  10.234  70.106  1.00  0.00    -0.084 A  
HETATM   24  H   UNL     1      -7.232  12.742  69.819  1.00  0.00     0.000 HD 
HETATM   25  C   UNL     1      -7.786   8.864  70.122  1.00  0.00    -0.084 A  
ENDBRANCH   9  12
ENDBRANCH   3   9
ENDBRANCH   2   3
TORSDOF 5
ENDMDL
MODEL      225
REMARK 921   NORMALIZED FREE ENERGY PREDICTED BY IDOCK:   -3.46 KCAL/MOL
REMARK 922        TOTAL FREE ENERGY PREDICTED BY IDOCK:   -5.32 KCAL/MOL
REMARK 923 INTER-LIGAND FREE ENERGY PREDICTED BY IDOCK:   -4.68 KCAL/MOL
REMARK 924 INTRA-LIGAND FREE ENERGY PREDICTED BY IDOCK:   -0.64 KCAL/MOL
REMARK 927      BINDING AFFINITY PREDICTED BY RF-SCORE:    0.00 PKD
ROOT
HETATM    1  C   UNL     1     -10.038   2.854  71.855  1.00  0.00    -0.154 C  
HETATM    2  C   UNL     1     -10.007   4.340  71.509  1.00  0.00    -0.243 C  
ENDROOT
BRANCH   2   3
HETATM    3  C   UNL     1      -8.616   5.017  71.645  1.00  0.00    -0.128 C  
BRANCH   3   4
HETATM    4  N   UNL     1      -8.679   6.323  72.348  1.00  0.00    -0.122 NA 
HETATM    5  H   UNL     1      -7.890   6.969  72.349  1.00  0.00     0.000 HD 
BRANCH   4   6
HETATM    6  C   UNL     1      -9.934   6.638  73.043  1.00  0.00    -0.174 C  
HETATM    7  C   UNL     1     -10.310   8.086  72.708  1.00  0.00    -0.408 C  
HETATM    8  C   UNL     1      -9.847   6.468  74.560  1.00  0.00    -0.355 C  
ENDBRANCH   4   6
ENDBRANCH   3   4
BRANCH   3   9
HETATM    9  C   UNL     1      -7.929   5.174  70.239  1.00  0.00    -0.082 C  
HETATM   10  H   UNL     1      -6.605   6.375  69.379  1.00  0.00     0.000 HD 
HETATM   11  O   UNL     1      -7.020   6.280  70.228  1.00  0.00    -0.058 OA 
BRANCH   9  12
HETATM   12  C   UNL     1      -8.878   5.225  69.040  1.00  0.00    -0.111 A  
HETATM   13  C   UNL     1      -9.532   6.387  68.559  1.00  0.00    -0.120 A  
HETATM   14  C   UNL     1      -9.474   7.693  69.236  1.00  0.00    -0.158 C  
HETATM   15  C   UNL     1      -9.964   8.796  68.657  1.00  0.00    -0.197 C  
HETATM   16  C   UNL     1     -10.612   8.740  67.332  1.00  0.00    -0.233 C  
HETATM   17  N   UNL     1     -10.784   7.502  66.786  1.00  0.00    -0.477 N  
HETATM   18  O   UNL     1     -10.985   9.760  66.762  1.00  0.00    -0.074 OA 
HETATM   19  H   UNL     1     -11.315   7.429  65.918  1.00  0.00     0.000 HD 
HETATM   20  C   UNL     1     -10.272   6.319  67.351  1.00  0.00    -0.180 A  
HETATM   21  C   UNL     1     -10.434   5.098  66.689  1.00  0.00    -0.275 A  
HETATM   22  O   UNL     1     -11.165   4.966  65.541  1.00  0.00    -0.850 OA 
HETATM   23  C   UNL     1      -9.840   3.947  67.182  1.00  0.00    -0.094 A  
HETATM   24  H   UNL     1     -11.275   4.137  65.091  1.00  0.00     0.000 HD 
HETATM   25  C   UNL     1      -9.065   4.013  68.338  1.00  0.00    -0.186 A  
ENDBRANCH   9  12
ENDBRANCH   3   9
ENDBRANCH   2   3
TORSDOF 5
ENDMDL
MODEL      226
REMARK 921   NORMALIZED FREE ENERGY PREDICTED BY IDOCK:   -3.45 KCAL/MOL
REMARK 922        TOTAL FREE ENERGY PREDICTED BY IDOCK:   -5.31 KCAL/MOL
REMARK 923 INTER-LIGAND FREE ENERGY PREDICTED BY IDOCK:   -4.80 KCAL/MOL
REMARK 924 INTRA-LIGAND FREE ENERGY PREDICTED BY IDOCK:   -0.51 KCAL/MOL
REMARK 927      BINDING AFFINITY PREDICTED BY RF-SCORE:    0.00 PKD
ROOT
HETATM    1  C   UNL     1      -7.641   4.508  70.406  1.00  0.00    -0.053 C  
HETATM    2  C   UNL     1      -8.971   4.975  70.990  1.00  0.00    -0.162 C  
ENDROOT
BRANCH   2   3
HETATM    3  C   UNL     1      -8.991   5.125  72.536  1.00  0.00    -0.130 C  
BRANCH   3   4
HETATM    4  N   UNL     1     -10.292   4.733  73.134  1.00  0.00    -0.168 NA 
HETATM    5  H   UNL     1     -11.151   5.245  72.930  1.00  0.00     0.000 HD 
BRANCH   4   6
HETATM    6  C   UNL     1     -10.282   3.571  74.033  1.00  0.00    -0.153 C  
HETATM    7  C   UNL     1      -8.827   3.126  74.214  1.00  0.00    -0.084 C  
HETATM    8  C   UNL     1     -11.118   2.400  73.518  1.00  0.00    -0.312 C  
ENDBRANCH   4   6
ENDBRANCH   3   4
BRANCH   3   9
HETATM    9  C   UNL     1      -8.599   6.586  72.963  1.00  0.00    -0.118 C  
HETATM   10  H   UNL     1      -8.886   7.788  74.516  1.00  0.00     0.000 HD 
HETATM   11  O   UNL     1      -9.123   6.905  74.258  1.00  0.00    -0.179 OA 
BRANCH   9  12
HETATM   12  C   UNL     1      -8.926   7.684  71.949  1.00  0.00    -0.149 A  
HETATM   13  C   UNL     1     -10.190   8.302  71.786  1.00  0.00    -0.297 A  
HETATM   14  C   UNL     1     -11.403   7.878  72.505  1.00  0.00    -0.449 C  
HETATM   15  C   UNL     1     -12.531   8.596  72.448  1.00  0.00    -0.428 C  
HETATM   16  C   UNL     1     -12.612   9.826  71.635  1.00  0.00    -0.416 C  
HETATM   17  N   UNL     1     -11.527  10.124  70.864  1.00  0.00    -0.351 N  
HETATM   18  O   UNL     1     -13.615  10.531  71.647  1.00  0.00    -0.225 OA 
HETATM   19  H   UNL     1     -11.596  10.913  70.221  1.00  0.00     0.000 HD 
HETATM   20  C   UNL     1     -10.318   9.407  70.905  1.00  0.00    -0.310 A  
HETATM   21  C   UNL     1      -9.229   9.823  70.132  1.00  0.00    -0.208 A  
HETATM   22  O   UNL     1      -9.302  10.857  69.241  1.00  0.00    -0.377 OA 
HETATM   23  C   UNL     1      -8.002   9.189  70.247  1.00  0.00    -0.139 A  
HETATM   24  H   UNL     1      -8.562  11.140  68.716  1.00  0.00     0.000 HD 
HETATM   25  C   UNL     1      -7.852   8.138  71.151  1.00  0.00    -0.096 A  
ENDBRANCH   9  12
ENDBRANCH   3   9
ENDBRANCH   2   3
TORSDOF 5
ENDMDL
MODEL      227
REMARK 921   NORMALIZED FREE ENERGY PREDICTED BY IDOCK:   -3.45 KCAL/MOL
REMARK 922        TOTAL FREE ENERGY PREDICTED BY IDOCK:   -5.31 KCAL/MOL
REMARK 923 INTER-LIGAND FREE ENERGY PREDICTED BY IDOCK:   -4.55 KCAL/MOL
REMARK 924 INTRA-LIGAND FREE ENERGY PREDICTED BY IDOCK:   -0.76 KCAL/MOL
REMARK 927      BINDING AFFINITY PREDICTED BY RF-SCORE:    0.00 PKD
ROOT
HETATM    1  C   UNL     1      -9.932  14.066  68.546  1.00  0.00    -0.230 C  
HETATM    2  C   UNL     1      -9.952  14.363  67.050  1.00  0.00    -0.257 C  
ENDROOT
BRANCH   2   3
HETATM    3  C   UNL     1      -9.326  13.259  66.154  1.00  0.00    -0.064 C  
BRANCH   3   4
HETATM    4  N   UNL     1     -10.346  12.396  65.508  1.00  0.00    -0.266 NA 
HETATM    5  H   UNL     1     -10.962  11.794  66.055  1.00  0.00     0.000 HD 
BRANCH   4   6
HETATM    6  C   UNL     1     -10.427  12.454  64.042  1.00  0.00    -0.416 C  
HETATM    7  C   UNL     1     -11.883  12.737  63.659  1.00  0.00    -0.603 C  
HETATM    8  C   UNL     1      -9.956  11.170  63.359  1.00  0.00    -0.430 C  
ENDBRANCH   4   6
ENDBRANCH   3   4
BRANCH   3   9
HETATM    9  C   UNL     1      -8.298  12.392  66.969  1.00  0.00    -0.157 C  
HETATM   10  H   UNL     1      -6.467  12.596  67.707  1.00  0.00     0.000 HD 
HETATM   11  O   UNL     1      -7.089  13.120  67.215  1.00  0.00    -0.135 OA 
BRANCH   9  12
HETATM   12  C   UNL     1      -8.001  11.004  66.397  1.00  0.00    -0.161 A  
HETATM   13  C   UNL     1      -8.779   9.841  66.620  1.00  0.00    -0.142 A  
HETATM   14  C   UNL     1      -9.925   9.791  67.542  1.00  0.00    -0.230 C  
HETATM   15  C   UNL     1     -10.730   8.723  67.592  1.00  0.00    -0.206 C  
HETATM   16  C   UNL     1     -10.480   7.539  66.747  1.00  0.00    -0.249 C  
HETATM   17  N   UNL     1      -9.335   7.545  66.006  1.00  0.00    -0.388 N  
HETATM   18  O   UNL     1     -11.262   6.594  66.728  1.00  0.00    -0.333 OA 
HETATM   19  H   UNL     1      -9.091   6.699  65.490  1.00  0.00     0.000 HD 
HETATM   20  C   UNL     1      -8.470   8.650  65.912  1.00  0.00    -0.146 A  
HETATM   21  C   UNL     1      -7.352   8.597  65.073  1.00  0.00    -0.086 A  
HETATM   22  O   UNL     1      -6.986   7.469  64.394  1.00  0.00    -0.053 OA 
HETATM   23  C   UNL     1      -6.556   9.717  64.891  1.00  0.00    -0.108 A  
HETATM   24  H   UNL     1      -6.226   7.433  63.824  1.00  0.00     0.000 HD 
HETATM   25  C   UNL     1      -6.883  10.907  65.538  1.00  0.00     0.109 A  
ENDBRANCH   9  12
ENDBRANCH   3   9
ENDBRANCH   2   3
TORSDOF 5
ENDMDL
MODEL      228
REMARK 921   NORMALIZED FREE ENERGY PREDICTED BY IDOCK:   -3.45 KCAL/MOL
REMARK 922        TOTAL FREE ENERGY PREDICTED BY IDOCK:   -5.30 KCAL/MOL
REMARK 923 INTER-LIGAND FREE ENERGY PREDICTED BY IDOCK:   -4.12 KCAL/MOL
REMARK 924 INTRA-LIGAND FREE ENERGY PREDICTED BY IDOCK:   -1.18 KCAL/MOL
REMARK 927      BINDING AFFINITY PREDICTED BY RF-SCORE:    0.00 PKD
ROOT
HETATM    1  C   UNL     1      -9.243   4.192  64.783  1.00  0.00    -0.154 C  
HETATM    2  C   UNL     1      -8.402   5.410  65.156  1.00  0.00    -0.144 C  
ENDROOT
BRANCH   2   3
HETATM    3  C   UNL     1      -9.002   6.301  66.279  1.00  0.00    -0.155 C  
BRANCH   3   4
HETATM    4  N   UNL     1     -10.367   5.877  66.680  1.00  0.00    -0.300 NA 
HETATM    5  H   UNL     1     -11.128   5.814  66.004  1.00  0.00     0.000 HD 
BRANCH   4   6
HETATM    6  C   UNL     1     -10.566   5.554  68.099  1.00  0.00    -0.134 C  
HETATM    7  C   UNL     1     -11.146   6.792  68.790  1.00  0.00    -0.234 C  
HETATM    8  C   UNL     1      -9.283   5.122  68.808  1.00  0.00    -0.152 C  
ENDBRANCH   4   6
ENDBRANCH   3   4
BRANCH   3   9
HETATM    9  C   UNL     1      -8.989   7.816  65.858  1.00  0.00    -0.113 C  
HETATM   10  H   UNL     1      -8.215   8.930  64.410  1.00  0.00     0.000 HD 
HETATM   11  O   UNL     1      -8.224   8.015  64.664  1.00  0.00    -0.148 OA 
BRANCH   9  12
HETATM   12  C   UNL     1      -8.575   8.803  66.952  1.00  0.00    -0.120 A  
HETATM   13  C   UNL     1      -9.389   9.839  67.474  1.00  0.00    -0.152 A  
HETATM   14  C   UNL     1     -10.719  10.178  66.940  1.00  0.00    -0.231 C  
HETATM   15  C   UNL     1     -11.519  11.047  67.570  1.00  0.00    -0.266 C  
HETATM   16  C   UNL     1     -11.086  11.723  68.809  1.00  0.00    -0.241 C  
HETATM   17  N   UNL     1      -9.800  11.506  69.209  1.00  0.00    -0.403 N  
HETATM   18  O   UNL     1     -11.847  12.453  69.434  1.00  0.00    -0.301 OA 
HETATM   19  H   UNL     1      -9.448  12.037  70.005  1.00  0.00     0.000 HD 
HETATM   20  C   UNL     1      -8.931  10.591  68.586  1.00  0.00    -0.162 A  
HETATM   21  C   UNL     1      -7.650  10.377  69.104  1.00  0.00    -0.117 A  
HETATM   22  O   UNL     1      -7.142  11.095  70.151  1.00  0.00    -0.441 OA 
HETATM   23  C   UNL     1      -6.827   9.401  68.564  1.00  0.00    -0.062 A  
HETATM   24  H   UNL     1      -6.271  10.950  70.502  1.00  0.00     0.000 HD 
HETATM   25  C   UNL     1      -7.289   8.619  67.507  1.00  0.00    -0.089 A  
ENDBRANCH   9  12
ENDBRANCH   3   9
ENDBRANCH   2   3
TORSDOF 5
ENDMDL
MODEL      229
REMARK 921   NORMALIZED FREE ENERGY PREDICTED BY IDOCK:   -3.44 KCAL/MOL
REMARK 922        TOTAL FREE ENERGY PREDICTED BY IDOCK:   -5.30 KCAL/MOL
REMARK 923 INTER-LIGAND FREE ENERGY PREDICTED BY IDOCK:   -4.76 KCAL/MOL
REMARK 924 INTRA-LIGAND FREE ENERGY PREDICTED BY IDOCK:   -0.54 KCAL/MOL
REMARK 927      BINDING AFFINITY PREDICTED BY RF-SCORE:    0.00 PKD
ROOT
HETATM    1  C   UNL     1     -11.811  13.076  70.442  1.00  0.00    -0.245 C  
HETATM    2  C   UNL     1     -11.849  13.851  69.129  1.00  0.00    -0.401 C  
ENDROOT
BRANCH   2   3
HETATM    3  C   UNL     1     -10.737  13.474  68.112  1.00  0.00    -0.252 C  
BRANCH   3   4
HETATM    4  N   UNL     1     -10.060  14.663  67.534  1.00  0.00    -0.224 NA 
HETATM    5  H   UNL     1      -9.044  14.731  67.490  1.00  0.00     0.000 HD 
BRANCH   4   6
HETATM    6  C   UNL     1     -10.928  15.735  67.030  1.00  0.00    -0.221 C  
HETATM    7  C   UNL     1     -10.595  15.956  65.550  1.00  0.00    -0.419 C  
HETATM    8  C   UNL     1     -10.772  17.051  67.794  1.00  0.00    -0.318 C  
ENDBRANCH   4   6
ENDBRANCH   3   4
BRANCH   3   9
HETATM    9  C   UNL     1     -11.307  12.550  66.975  1.00  0.00    -0.328 C  
HETATM   10  H   UNL     1     -12.325  10.852  66.837  1.00  0.00     0.000 HD 
HETATM   11  O   UNL     1     -11.981  11.412  67.523  1.00  0.00    -0.626 OA 
BRANCH   9  12
HETATM   12  C   UNL     1     -10.305  12.132  65.896  1.00  0.00    -0.286 A  
HETATM   13  C   UNL     1      -9.033  11.555  66.135  1.00  0.00    -0.201 A  
HETATM   14  C   UNL     1      -8.453  11.389  67.478  1.00  0.00    -0.137 C  
HETATM   15  C   UNL     1      -7.329  10.687  67.666  1.00  0.00    -0.090 C  
HETATM   16  C   UNL     1      -6.609  10.080  66.529  1.00  0.00    -0.074 C  
HETATM   17  N   UNL     1      -7.081  10.365  65.282  1.00  0.00    -0.229 N  
HETATM   18  O   UNL     1      -5.627   9.367  66.706  1.00  0.00    -0.045 OA 
HETATM   19  H   UNL     1      -6.544  10.038  64.479  1.00  0.00     0.000 HD 
HETATM   20  C   UNL     1      -8.265  11.084  65.039  1.00  0.00     0.184 A  
HETATM   21  C   UNL     1      -8.715  11.271  63.728  1.00  0.00     0.260 A  
HETATM   22  O   UNL     1      -8.003  10.870  62.633  1.00  0.00    -0.326 OA 
HETATM   23  C   UNL     1      -9.935  11.883  63.484  1.00  0.00    -0.422 A  
HETATM   24  H   UNL     1      -8.309  10.998  61.742  1.00  0.00     0.000 HD 
HETATM   25  C   UNL     1     -10.723  12.299  64.556  1.00  0.00    -0.358 A  
ENDBRANCH   9  12
ENDBRANCH   3   9
ENDBRANCH   2   3
TORSDOF 5
ENDMDL
MODEL      230
REMARK 921   NORMALIZED FREE ENERGY PREDICTED BY IDOCK:   -3.43 KCAL/MOL
REMARK 922        TOTAL FREE ENERGY PREDICTED BY IDOCK:   -5.29 KCAL/MOL
REMARK 923 INTER-LIGAND FREE ENERGY PREDICTED BY IDOCK:   -4.71 KCAL/MOL
REMARK 924 INTRA-LIGAND FREE ENERGY PREDICTED BY IDOCK:   -0.57 KCAL/MOL
REMARK 927      BINDING AFFINITY PREDICTED BY RF-SCORE:    0.00 PKD
ROOT
HETATM    1  C   UNL     1     -10.803   9.443  68.240  1.00  0.00    -0.163 C  
HETATM    2  C   UNL     1     -10.316  10.207  67.012  1.00  0.00    -0.303 C  
ENDROOT
BRANCH   2   3
HETATM    3  C   UNL     1     -10.771  11.690  66.940  1.00  0.00    -0.257 C  
BRANCH   3   4
HETATM    4  N   UNL     1     -12.076  11.858  66.253  1.00  0.00    -0.438 NA 
HETATM    5  H   UNL     1     -12.920  11.393  66.587  1.00  0.00     0.000 HD 
BRANCH   4   6
HETATM    6  C   UNL     1     -12.092  12.727  65.069  1.00  0.00    -0.441 C  
HETATM    7  C   UNL     1     -13.069  13.876  65.338  1.00  0.00    -0.236 C  
HETATM    8  C   UNL     1     -12.496  11.998  63.787  1.00  0.00    -0.594 C  
ENDBRANCH   4   6
ENDBRANCH   3   4
BRANCH   3   9
HETATM    9  C   UNL     1      -9.667  12.583  66.264  1.00  0.00    -0.254 C  
HETATM   10  H   UNL     1      -7.846  12.346  65.511  1.00  0.00     0.000 HD 
HETATM   11  O   UNL     1      -8.514  11.807  65.919  1.00  0.00     0.018 OA 
BRANCH   9  12
HETATM   12  C   UNL     1      -9.273  13.846  67.033  1.00  0.00    -0.257 A  
HETATM   13  C   UNL     1      -8.324  13.906  68.084  1.00  0.00    -0.163 A  
HETATM   14  C   UNL     1      -7.670  12.719  68.659  1.00  0.00    -0.064 C  
HETATM   15  C   UNL     1      -6.659  12.838  69.529  1.00  0.00    -0.031 C  
HETATM   16  C   UNL     1      -6.183  14.163  69.970  1.00  0.00    -0.151 C  
HETATM   17  N   UNL     1      -6.893  15.245  69.538  1.00  0.00    -0.167 N  
HETATM   18  O   UNL     1      -5.204  14.277  70.700  1.00  0.00    -0.103 OA 
HETATM   19  H   UNL     1      -6.643  16.162  69.907  1.00  0.00     0.000 HD 
HETATM   20  C   UNL     1      -7.950  15.168  68.613  1.00  0.00    -0.151 A  
HETATM   21  C   UNL     1      -8.580  16.335  68.170  1.00  0.00    -0.183 A  
HETATM   22  O   UNL     1      -8.287  17.574  68.667  1.00  0.00    -0.272 OA 
HETATM   23  C   UNL     1      -9.548  16.279  67.179  1.00  0.00    -0.238 A  
HETATM   24  H   UNL     1      -8.715  18.367  68.366  1.00  0.00     0.000 HD 
HETATM   25  C   UNL     1      -9.883  15.050  66.613  1.00  0.00    -0.266 A  
ENDBRANCH   9  12
ENDBRANCH   3   9
ENDBRANCH   2   3
TORSDOF 5
ENDMDL
MODEL      231
REMARK 921   NORMALIZED FREE ENERGY PREDICTED BY IDOCK:   -3.42 KCAL/MOL
REMARK 922        TOTAL FREE ENERGY PREDICTED BY IDOCK:   -5.27 KCAL/MOL
REMARK 923 INTER-LIGAND FREE ENERGY PREDICTED BY IDOCK:   -5.48 KCAL/MOL
REMARK 924 INTRA-LIGAND FREE ENERGY PREDICTED BY IDOCK:    0.21 KCAL/MOL
REMARK 927      BINDING AFFINITY PREDICTED BY RF-SCORE:    0.00 PKD
ROOT
HETATM    1  C   UNL     1      -7.646  19.750  69.319  1.00  0.00    -0.158 C  
HETATM    2  C   UNL     1      -7.653  18.460  68.504  1.00  0.00    -0.319 C  
ENDROOT
BRANCH   2   3
HETATM    3  C   UNL     1      -8.072  18.625  67.017  1.00  0.00    -0.252 C  
BRANCH   3   4
HETATM    4  N   UNL     1      -7.742  19.967  66.474  1.00  0.00    -0.282 NA 
HETATM    5  H   UNL     1      -8.417  20.731  66.490  1.00  0.00     0.000 HD 
BRANCH   4   6
HETATM    6  C   UNL     1      -6.395  20.139  65.914  1.00  0.00    -0.211 C  
HETATM    7  C   UNL     1      -6.529  20.279  64.394  1.00  0.00    -0.235 C  
HETATM    8  C   UNL     1      -5.450  18.982  66.242  1.00  0.00    -0.175 C  
ENDBRANCH   4   6
ENDBRANCH   3   4
BRANCH   3   9
HETATM    9  C   UNL     1      -9.600  18.306  66.826  1.00  0.00    -0.299 C  
HETATM   10  H   UNL     1     -11.232  18.217  67.951  1.00  0.00     0.000 HD 
HETATM   11  O   UNL     1     -10.309  18.410  68.066  1.00  0.00    -0.366 OA 
BRANCH   9  12
HETATM   12  C   UNL     1      -9.918  16.989  66.115  1.00  0.00    -0.314 A  
HETATM   13  C   UNL     1      -9.418  15.716  66.483  1.00  0.00    -0.300 A  
HETATM   14  C   UNL     1      -8.417  15.508  67.542  1.00  0.00    -0.188 C  
HETATM   15  C   UNL     1      -8.102  14.279  67.969  1.00  0.00    -0.145 C  
HETATM   16  C   UNL     1      -8.723  13.081  67.370  1.00  0.00    -0.205 C  
HETATM   17  N   UNL     1      -9.538  13.285  66.295  1.00  0.00    -0.370 N  
HETATM   18  O   UNL     1      -8.501  11.960  67.815  1.00  0.00    -0.139 OA 
HETATM   19  H   UNL     1      -9.901  12.468  65.805  1.00  0.00     0.000 HD 
HETATM   20  C   UNL     1      -9.908  14.558  65.824  1.00  0.00    -0.314 A  
HETATM   21  C   UNL     1     -10.805  14.679  64.759  1.00  0.00    -0.385 A  
HETATM   22  O   UNL     1     -11.284  13.602  64.065  1.00  0.00    -0.565 OA 
HETATM   23  C   UNL     1     -11.259  15.926  64.359  1.00  0.00    -0.242 A  
HETATM   24  H   UNL     1     -11.893  13.684  63.341  1.00  0.00     0.000 HD 
HETATM   25  C   UNL     1     -10.826  17.065  65.035  1.00  0.00    -0.017 A  
ENDBRANCH   9  12
ENDBRANCH   3   9
ENDBRANCH   2   3
TORSDOF 5
ENDMDL
MODEL      232
REMARK 921   NORMALIZED FREE ENERGY PREDICTED BY IDOCK:   -3.41 KCAL/MOL
REMARK 922        TOTAL FREE ENERGY PREDICTED BY IDOCK:   -5.26 KCAL/MOL
REMARK 923 INTER-LIGAND FREE ENERGY PREDICTED BY IDOCK:   -4.87 KCAL/MOL
REMARK 924 INTRA-LIGAND FREE ENERGY PREDICTED BY IDOCK:   -0.39 KCAL/MOL
REMARK 927      BINDING AFFINITY PREDICTED BY RF-SCORE:    0.00 PKD
ROOT
HETATM    1  C   UNL     1      -7.642   7.567  71.238  1.00  0.00    -0.081 C  
HETATM    2  C   UNL     1      -8.856   8.125  71.975  1.00  0.00    -0.233 C  
ENDROOT
BRANCH   2   3
HETATM    3  C   UNL     1     -10.070   7.161  72.063  1.00  0.00    -0.177 C  
BRANCH   3   4
HETATM    4  N   UNL     1      -9.712   5.756  71.748  1.00  0.00    -0.156 NA 
HETATM    5  H   UNL     1      -9.290   5.498  70.855  1.00  0.00     0.000 HD 
BRANCH   4   6
HETATM    6  C   UNL     1      -9.993   4.754  72.784  1.00  0.00    -0.163 C  
HETATM    7  C   UNL     1     -10.520   5.489  74.022  1.00  0.00    -0.308 C  
HETATM    8  C   UNL     1      -8.772   3.916  73.165  1.00  0.00    -0.094 C  
ENDBRANCH   4   6
ENDBRANCH   3   4
BRANCH   3   9
HETATM    9  C   UNL     1     -11.247   7.656  71.145  1.00  0.00    -0.261 C  
HETATM   10  H   UNL     1     -13.045   7.022  70.596  1.00  0.00     0.000 HD 
HETATM   11  O   UNL     1     -12.334   6.723  71.150  1.00  0.00    -0.371 OA 
BRANCH   9  12
HETATM   12  C   UNL     1     -10.856   8.042  69.717  1.00  0.00    -0.194 A  
HETATM   13  C   UNL     1     -10.571   7.132  68.669  1.00  0.00    -0.217 A  
HETATM   14  C   UNL     1     -10.497   5.673  68.854  1.00  0.00    -0.310 C  
HETATM   15  C   UNL     1     -10.393   4.846  67.807  1.00  0.00    -0.067 C  
HETATM   16  C   UNL     1     -10.315   5.365  66.428  1.00  0.00    -0.247 C  
HETATM   17  N   UNL     1     -10.241   6.720  66.287  1.00  0.00    -0.437 N  
HETATM   18  O   UNL     1     -10.306   4.609  65.463  1.00  0.00    -0.235 OA 
HETATM   19  H   UNL     1     -10.089   7.098  65.351  1.00  0.00     0.000 HD 
HETATM   20  C   UNL     1     -10.361   7.626  67.355  1.00  0.00    -0.277 A  
HETATM   21  C   UNL     1     -10.344   9.003  67.113  1.00  0.00    -0.272 A  
HETATM   22  O   UNL     1     -10.113   9.538  65.877  1.00  0.00    -0.294 OA 
HETATM   23  C   UNL     1     -10.571   9.902  68.144  1.00  0.00    -0.270 A  
HETATM   24  H   UNL     1     -10.101  10.473  65.712  1.00  0.00     0.000 HD 
HETATM   25  C   UNL     1     -10.832   9.425  69.428  1.00  0.00    -0.208 A  
ENDBRANCH   9  12
ENDBRANCH   3   9
ENDBRANCH   2   3
TORSDOF 5
ENDMDL
MODEL      233
REMARK 921   NORMALIZED FREE ENERGY PREDICTED BY IDOCK:   -3.40 KCAL/MOL
REMARK 922        TOTAL FREE ENERGY PREDICTED BY IDOCK:   -5.24 KCAL/MOL
REMARK 923 INTER-LIGAND FREE ENERGY PREDICTED BY IDOCK:   -5.04 KCAL/MOL
REMARK 924 INTRA-LIGAND FREE ENERGY PREDICTED BY IDOCK:   -0.20 KCAL/MOL
REMARK 927      BINDING AFFINITY PREDICTED BY RF-SCORE:    0.00 PKD
ROOT
HETATM    1  C   UNL     1     -11.160   6.614  72.586  1.00  0.00    -0.291 C  
HETATM    2  C   UNL     1     -11.568   8.083  72.535  1.00  0.00    -0.464 C  
ENDROOT
BRANCH   2   3
HETATM    3  C   UNL     1     -10.892   8.913  71.409  1.00  0.00    -0.307 C  
BRANCH   3   4
HETATM    4  N   UNL     1      -9.533   9.381  71.778  1.00  0.00    -0.176 NA 
HETATM    5  H   UNL     1      -9.376  10.302  72.187  1.00  0.00     0.000 HD 
BRANCH   4   6
HETATM    6  C   UNL     1      -8.424   8.451  71.526  1.00  0.00    -0.157 C  
HETATM    7  C   UNL     1      -7.836   8.038  72.879  1.00  0.00    -0.190 C  
HETATM    8  C   UNL     1      -7.323   9.046  70.647  1.00  0.00    -0.099 C  
ENDBRANCH   4   6
ENDBRANCH   3   4
BRANCH   3   9
HETATM    9  C   UNL     1     -11.801  10.123  70.982  1.00  0.00    -0.383 C  
HETATM   10  H   UNL     1     -13.727  10.463  70.643  1.00  0.00     0.000 HD 
HETATM   11  O   UNL     1     -13.177   9.732  70.901  1.00  0.00    -0.315 OA 
BRANCH   9  12
HETATM   12  C   UNL     1     -11.363  10.867  69.719  1.00  0.00    -0.374 A  
HETATM   13  C   UNL     1     -10.774  10.272  68.577  1.00  0.00    -0.262 A  
HETATM   14  C   UNL     1     -10.394   8.851  68.503  1.00  0.00    -0.229 C  
HETATM   15  C   UNL     1     -10.001   8.297  67.350  1.00  0.00    -0.271 C  
HETATM   16  C   UNL     1      -9.901   9.097  66.113  1.00  0.00    -0.293 C  
HETATM   17  N   UNL     1     -10.118  10.438  66.232  1.00  0.00    -0.224 N  
HETATM   18  O   UNL     1      -9.623   8.575  65.039  1.00  0.00     0.420 OA 
HETATM   19  H   UNL     1      -9.959  11.025  65.412  1.00  0.00     0.000 HD 
HETATM   20  C   UNL     1     -10.548  11.060  67.418  1.00  0.00    -0.237 A  
HETATM   21  C   UNL     1     -10.815  12.432  67.435  1.00  0.00    -0.238 A  
HETATM   22  O   UNL     1     -10.584  13.247  66.362  1.00  0.00    -0.279 OA 
HETATM   23  C   UNL     1     -11.342  13.033  68.567  1.00  0.00    -0.323 A  
HETATM   24  H   UNL     1     -10.765  14.180  66.373  1.00  0.00     0.000 HD 
HETATM   25  C   UNL     1     -11.620  12.257  69.691  1.00  0.00    -0.348 A  
ENDBRANCH   9  12
ENDBRANCH   3   9
ENDBRANCH   2   3
TORSDOF 5
ENDMDL
MODEL      234
REMARK 921   NORMALIZED FREE ENERGY PREDICTED BY IDOCK:   -3.39 KCAL/MOL
REMARK 922        TOTAL FREE ENERGY PREDICTED BY IDOCK:   -5.23 KCAL/MOL
REMARK 923 INTER-LIGAND FREE ENERGY PREDICTED BY IDOCK:   -4.77 KCAL/MOL
REMARK 924 INTRA-LIGAND FREE ENERGY PREDICTED BY IDOCK:   -0.46 KCAL/MOL
REMARK 927      BINDING AFFINITY PREDICTED BY RF-SCORE:    0.00 PKD
ROOT
HETATM    1  C   UNL     1     -12.203  12.909  71.049  1.00  0.00    -0.211 C  
HETATM    2  C   UNL     1     -11.904  13.859  69.893  1.00  0.00    -0.394 C  
ENDROOT
BRANCH   2   3
HETATM    3  C   UNL     1     -10.729  13.425  68.975  1.00  0.00    -0.127 C  
BRANCH   3   4
HETATM    4  N   UNL     1     -10.081  14.572  68.291  1.00  0.00    -0.226 NA 
HETATM    5  H   UNL     1      -9.070  14.706  68.311  1.00  0.00     0.000 HD 
BRANCH   4   6
HETATM    6  C   UNL     1     -10.968  15.505  67.582  1.00  0.00    -0.315 C  
HETATM    7  C   UNL     1     -10.833  15.236  66.080  1.00  0.00    -0.331 C  
HETATM    8  C   UNL     1     -10.659  16.974  67.872  1.00  0.00    -0.365 C  
ENDBRANCH   4   6
ENDBRANCH   3   4
BRANCH   3   9
HETATM    9  C   UNL     1     -11.201  12.348  67.931  1.00  0.00    -0.266 C  
HETATM   10  H   UNL     1     -12.782  11.186  67.635  1.00  0.00     0.000 HD 
HETATM   11  O   UNL     1     -12.496  11.837  68.265  1.00  0.00    -0.201 OA 
BRANCH   9  12
HETATM   12  C   UNL     1     -10.213  11.213  67.657  1.00  0.00    -0.208 A  
HETATM   13  C   UNL     1      -9.934  10.656  66.384  1.00  0.00    -0.273 A  
HETATM   14  C   UNL     1     -10.660  11.024  65.157  1.00  0.00    -0.295 C  
HETATM   15  C   UNL     1     -10.251  10.599  63.955  1.00  0.00    -0.334 C  
HETATM   16  C   UNL     1      -9.074   9.719  63.816  1.00  0.00    -0.230 C  
HETATM   17  N   UNL     1      -8.502   9.273  64.972  1.00  0.00    -0.153 N  
HETATM   18  O   UNL     1      -8.647   9.398  62.713  1.00  0.00    -0.192 OA 
HETATM   19  H   UNL     1      -7.750   8.587  64.902  1.00  0.00     0.000 HD 
HETATM   20  C   UNL     1      -8.889   9.704  66.253  1.00  0.00    -0.151 A  
HETATM   21  C   UNL     1      -8.203   9.250  67.384  1.00  0.00    -0.117 A  
HETATM   22  O   UNL     1      -7.212   8.310  67.324  1.00  0.00    -0.081 OA 
HETATM   23  C   UNL     1      -8.505   9.752  68.640  1.00  0.00    -0.116 A  
HETATM   24  H   UNL     1      -6.745   8.001  68.091  1.00  0.00     0.000 HD 
HETATM   25  C   UNL     1      -9.492  10.728  68.771  1.00  0.00    -0.187 A  
ENDBRANCH   9  12
ENDBRANCH   3   9
ENDBRANCH   2   3
TORSDOF 5
ENDMDL
MODEL      235
REMARK 921   NORMALIZED FREE ENERGY PREDICTED BY IDOCK:   -3.39 KCAL/MOL
REMARK 922        TOTAL FREE ENERGY PREDICTED BY IDOCK:   -5.23 KCAL/MOL
REMARK 923 INTER-LIGAND FREE ENERGY PREDICTED BY IDOCK:   -4.39 KCAL/MOL
REMARK 924 INTRA-LIGAND FREE ENERGY PREDICTED BY IDOCK:   -0.84 KCAL/MOL
REMARK 927      BINDING AFFINITY PREDICTED BY RF-SCORE:    0.00 PKD
ROOT
HETATM    1  C   UNL     1     -10.300  12.522  66.178  1.00  0.00    -0.274 C  
HETATM    2  C   UNL     1      -9.385  11.568  66.940  1.00  0.00    -0.189 C  
ENDROOT
BRANCH   2   3
HETATM    3  C   UNL     1      -9.900  11.145  68.343  1.00  0.00    -0.185 C  
BRANCH   3   4
HETATM    4  N   UNL     1     -10.330  12.301  69.169  1.00  0.00    -0.426 NA 
HETATM    5  H   UNL     1      -9.661  12.985  69.521  1.00  0.00     0.000 HD 
BRANCH   4   6
HETATM    6  C   UNL     1     -11.767  12.411  69.453  1.00  0.00    -0.322 C  
HETATM    7  C   UNL     1     -12.080  13.881  69.749  1.00  0.00    -0.404 C  
HETATM    8  C   UNL     1     -12.221  11.542  70.626  1.00  0.00    -0.473 C  
ENDBRANCH   4   6
ENDBRANCH   3   4
BRANCH   3   9
HETATM    9  C   UNL     1      -8.822  10.288  69.101  1.00  0.00    -0.176 C  
HETATM   10  H   UNL     1      -7.044   9.494  68.718  1.00  0.00     0.000 HD 
HETATM   11  O   UNL     1      -7.696  10.011  68.260  1.00  0.00    -0.084 OA 
BRANCH   9  12
HETATM   12  C   UNL     1      -9.339   9.013  69.771  1.00  0.00    -0.176 A  
HETATM   13  C   UNL     1      -8.743   8.369  70.883  1.00  0.00    -0.178 A  
HETATM   14  C   UNL     1      -7.461   8.786  71.475  1.00  0.00    -0.116 C  
HETATM   15  C   UNL     1      -7.023   8.258  72.624  1.00  0.00    -0.115 C  
HETATM   16  C   UNL     1      -7.794   7.213  73.327  1.00  0.00    -0.096 C  
HETATM   17  N   UNL     1      -8.904   6.739  72.692  1.00  0.00    -0.123 N  
HETATM   18  O   UNL     1      -7.439   6.789  74.421  1.00  0.00    -0.097 OA 
HETATM   19  H   UNL     1      -9.397   5.950  73.111  1.00  0.00     0.000 HD 
HETATM   20  C   UNL     1      -9.408   7.274  71.493  1.00  0.00    -0.148 A  
HETATM   21  C   UNL     1     -10.594   6.774  70.945  1.00  0.00    -0.220 A  
HETATM   22  O   UNL     1     -11.259   5.700  71.468  1.00  0.00    -0.220 OA 
HETATM   23  C   UNL     1     -11.156   7.366  69.825  1.00  0.00    -0.169 A  
HETATM   24  H   UNL     1     -12.065   5.361  71.096  1.00  0.00     0.000 HD 
HETATM   25  C   UNL     1     -10.539   8.477  69.252  1.00  0.00    -0.193 A  
ENDBRANCH   9  12
ENDBRANCH   3   9
ENDBRANCH   2   3
TORSDOF 5
ENDMDL
MODEL      236
REMARK 921   NORMALIZED FREE ENERGY PREDICTED BY IDOCK:   -3.39 KCAL/MOL
REMARK 922        TOTAL FREE ENERGY PREDICTED BY IDOCK:   -5.23 KCAL/MOL
REMARK 923 INTER-LIGAND FREE ENERGY PREDICTED BY IDOCK:   -4.69 KCAL/MOL
REMARK 924 INTRA-LIGAND FREE ENERGY PREDICTED BY IDOCK:   -0.54 KCAL/MOL
REMARK 927      BINDING AFFINITY PREDICTED BY RF-SCORE:    0.00 PKD
ROOT
HETATM    1  C   UNL     1      -8.833   4.949  65.861  1.00  0.00    -0.130 C  
HETATM    2  C   UNL     1      -8.077   5.480  67.075  1.00  0.00    -0.101 C  
ENDROOT
BRANCH   2   3
HETATM    3  C   UNL     1      -8.877   6.472  67.963  1.00  0.00    -0.114 C  
BRANCH   3   4
HETATM    4  N   UNL     1      -8.105   6.938  69.142  1.00  0.00    -0.119 NA 
HETATM    5  H   UNL     1      -7.733   6.284  69.831  1.00  0.00     0.000 HD 
BRANCH   4   6
HETATM    6  C   UNL     1      -7.901   8.387  69.268  1.00  0.00    -0.104 C  
HETATM    7  C   UNL     1      -8.466   9.055  68.009  1.00  0.00    -0.125 C  
HETATM    8  C   UNL     1      -6.435   8.780  69.445  1.00  0.00    -0.045 C  
ENDBRANCH   4   6
ENDBRANCH   3   4
BRANCH   3   9
HETATM    9  C   UNL     1     -10.249   5.847  68.407  1.00  0.00    -0.191 C  
HETATM   10  H   UNL     1     -12.173   6.077  67.979  1.00  0.00     0.000 HD 
HETATM   11  O   UNL     1     -11.344   6.455  67.711  1.00  0.00    -0.266 OA 
BRANCH   9  12
HETATM   12  C   UNL     1     -10.505   5.811  69.915  1.00  0.00    -0.360 A  
HETATM   13  C   UNL     1     -11.083   6.858  70.675  1.00  0.00    -0.322 A  
HETATM   14  C   UNL     1     -11.409   8.183  70.122  1.00  0.00    -0.071 C  
HETATM   15  C   UNL     1     -12.107   9.078  70.831  1.00  0.00    -0.247 C  
HETATM   16  C   UNL     1     -12.549   8.784  72.209  1.00  0.00    -0.394 C  
HETATM   17  N   UNL     1     -12.115   7.612  72.755  1.00  0.00    -0.588 N  
HETATM   18  O   UNL     1     -13.260   9.567  72.829  1.00  0.00    -0.247 OA 
HETATM   19  H   UNL     1     -12.325   7.432  73.737  1.00  0.00     0.000 HD 
HETATM   20  C   UNL     1     -11.394   6.636  72.042  1.00  0.00    -0.280 A  
HETATM   21  C   UNL     1     -11.048   5.430  72.659  1.00  0.00    -0.278 A  
HETATM   22  O   UNL     1     -11.291   5.174  73.979  1.00  0.00    -0.394 OA 
HETATM   23  C   UNL     1     -10.434   4.420  71.934  1.00  0.00    -0.101 A  
HETATM   24  H   UNL     1     -11.056   4.354  74.398  1.00  0.00     0.000 HD 
HETATM   25  C   UNL     1     -10.175   4.607  70.577  1.00  0.00    -0.211 A  
ENDBRANCH   9  12
ENDBRANCH   3   9
ENDBRANCH   2   3
TORSDOF 5
ENDMDL
MODEL      237
REMARK 921   NORMALIZED FREE ENERGY PREDICTED BY IDOCK:   -3.37 KCAL/MOL
REMARK 922        TOTAL FREE ENERGY PREDICTED BY IDOCK:   -5.20 KCAL/MOL
REMARK 923 INTER-LIGAND FREE ENERGY PREDICTED BY IDOCK:   -4.25 KCAL/MOL
REMARK 924 INTRA-LIGAND FREE ENERGY PREDICTED BY IDOCK:   -0.95 KCAL/MOL
REMARK 927      BINDING AFFINITY PREDICTED BY RF-SCORE:    0.00 PKD
ROOT
HETATM    1  C   UNL     1      -8.009   4.129  65.045  1.00  0.00    -0.093 C  
HETATM    2  C   UNL     1      -8.492   3.868  66.469  1.00  0.00    -0.105 C  
ENDROOT
BRANCH   2   3
HETATM    3  C   UNL     1      -8.688   5.140  67.339  1.00  0.00    -0.103 C  
BRANCH   3   4
HETATM    4  N   UNL     1      -7.873   5.118  68.579  1.00  0.00    -0.079 NA 
HETATM    5  H   UNL     1      -8.104   4.504  69.360  1.00  0.00     0.000 HD 
BRANCH   4   6
HETATM    6  C   UNL     1      -6.718   6.024  68.627  1.00  0.00    -0.061 C  
HETATM    7  C   UNL     1      -6.910   6.975  69.813  1.00  0.00    -0.050 C  
HETATM    8  C   UNL     1      -6.530   6.834  67.343  1.00  0.00    -0.049 C  
ENDBRANCH   4   6
ENDBRANCH   3   4
BRANCH   3   9
HETATM    9  C   UNL     1     -10.208   5.362  67.673  1.00  0.00    -0.186 C  
HETATM   10  H   UNL     1     -11.891   5.721  66.685  1.00  0.00     0.000 HD 
HETATM   11  O   UNL     1     -10.972   5.587  66.483  1.00  0.00    -0.250 OA 
BRANCH   9  12
HETATM   12  C   UNL     1     -10.505   6.427  68.731  1.00  0.00    -0.260 A  
HETATM   13  C   UNL     1     -10.499   7.827  68.512  1.00  0.00    -0.202 A  
HETATM   14  C   UNL     1     -10.083   8.451  67.245  1.00  0.00    -0.321 C  
HETATM   15  C   UNL     1     -10.255   9.761  67.027  1.00  0.00    -0.292 C  
HETATM   16  C   UNL     1     -10.839  10.636  68.063  1.00  0.00    -0.261 C  
HETATM   17  N   UNL     1     -11.085  10.068  69.278  1.00  0.00    -0.307 N  
HETATM   18  O   UNL     1     -11.076  11.818  67.837  1.00  0.00    -0.215 OA 
HETATM   19  H   UNL     1     -11.396  10.675  70.038  1.00  0.00     0.000 HD 
HETATM   20  C   UNL     1     -10.934   8.696  69.546  1.00  0.00    -0.055 A  
HETATM   21  C   UNL     1     -11.275   8.184  70.801  1.00  0.00    -0.261 A  
HETATM   22  O   UNL     1     -11.667   8.975  71.845  1.00  0.00    -0.346 OA 
HETATM   23  C   UNL     1     -11.233   6.819  71.040  1.00  0.00    -0.335 A  
HETATM   24  H   UNL     1     -11.899   8.627  72.698  1.00  0.00     0.000 HD 
HETATM   25  C   UNL     1     -10.861   5.952  70.014  1.00  0.00    -0.421 A  
ENDBRANCH   9  12
ENDBRANCH   3   9
ENDBRANCH   2   3
TORSDOF 5
ENDMDL
MODEL      238
REMARK 921   NORMALIZED FREE ENERGY PREDICTED BY IDOCK:   -3.34 KCAL/MOL
REMARK 922        TOTAL FREE ENERGY PREDICTED BY IDOCK:   -5.17 KCAL/MOL
REMARK 923 INTER-LIGAND FREE ENERGY PREDICTED BY IDOCK:   -4.37 KCAL/MOL
REMARK 924 INTRA-LIGAND FREE ENERGY PREDICTED BY IDOCK:   -0.80 KCAL/MOL
REMARK 927      BINDING AFFINITY PREDICTED BY RF-SCORE:    0.00 PKD
ROOT
HETATM    1  C   UNL     1      -8.377   3.353  71.824  1.00  0.00    -0.075 C  
HETATM    2  C   UNL     1      -9.481   4.257  71.284  1.00  0.00    -0.229 C  
ENDROOT
BRANCH   2   3
HETATM    3  C   UNL     1      -9.233   5.779  71.472  1.00  0.00    -0.146 C  
BRANCH   3   4
HETATM    4  N   UNL     1     -10.473   6.583  71.341  1.00  0.00    -0.210 NA 
HETATM    5  H   UNL     1     -11.136   6.426  70.581  1.00  0.00     0.000 HD 
BRANCH   4   6
HETATM    6  C   UNL     1     -10.700   7.617  72.360  1.00  0.00    -0.280 C  
HETATM    7  C   UNL     1     -10.497   6.976  73.737  1.00  0.00    -0.392 C  
HETATM    8  C   UNL     1     -12.091   8.246  72.285  1.00  0.00    -0.439 C  
ENDBRANCH   4   6
ENDBRANCH   3   4
BRANCH   3   9
HETATM    9  C   UNL     1      -8.128   6.293  70.478  1.00  0.00    -0.113 C  
HETATM   10  H   UNL     1      -6.543   7.486  70.536  1.00  0.00     0.000 HD 
HETATM   11  O   UNL     1      -7.211   7.175  71.136  1.00  0.00    -0.071 OA 
BRANCH   9  12
HETATM   12  C   UNL     1      -8.642   6.902  69.172  1.00  0.00    -0.128 A  
HETATM   13  C   UNL     1      -9.091   6.170  68.045  1.00  0.00    -0.114 A  
HETATM   14  C   UNL     1      -9.009   4.704  67.940  1.00  0.00    -0.128 C  
HETATM   15  C   UNL     1      -9.599   4.046  66.934  1.00  0.00    -0.232 C  
HETATM   16  C   UNL     1     -10.327   4.769  65.873  1.00  0.00    -0.270 C  
HETATM   17  N   UNL     1     -10.271   6.131  65.909  1.00  0.00    -0.268 N  
HETATM   18  O   UNL     1     -10.939   4.166  64.998  1.00  0.00    -0.209 OA 
HETATM   19  H   UNL     1     -10.683   6.650  65.133  1.00  0.00     0.000 HD 
HETATM   20  C   UNL     1      -9.677   6.862  66.953  1.00  0.00    -0.171 A  
HETATM   21  C   UNL     1      -9.724   8.260  66.947  1.00  0.00    -0.225 A  
HETATM   22  O   UNL     1     -10.244   8.981  65.908  1.00  0.00    -0.381 OA 
HETATM   23  C   UNL     1      -9.239   8.985  68.024  1.00  0.00    -0.143 A  
HETATM   24  H   UNL     1     -10.276   9.931  65.904  1.00  0.00     0.000 HD 
HETATM   25  C   UNL     1      -8.712   8.313  69.125  1.00  0.00    -0.143 A  
ENDBRANCH   9  12
ENDBRANCH   3   9
ENDBRANCH   2   3
TORSDOF 5
ENDMDL
MODEL      239
REMARK 921   NORMALIZED FREE ENERGY PREDICTED BY IDOCK:   -3.33 KCAL/MOL
REMARK 922        TOTAL FREE ENERGY PREDICTED BY IDOCK:   -5.16 KCAL/MOL
REMARK 923 INTER-LIGAND FREE ENERGY PREDICTED BY IDOCK:   -4.75 KCAL/MOL
REMARK 924 INTRA-LIGAND FREE ENERGY PREDICTED BY IDOCK:   -0.41 KCAL/MOL
REMARK 927      BINDING AFFINITY PREDICTED BY RF-SCORE:    0.00 PKD
ROOT
HETATM    1  C   UNL     1      -6.776   7.294  66.965  1.00  0.00    -0.068 C  
HETATM    2  C   UNL     1      -7.670   7.565  68.171  1.00  0.00    -0.120 C  
ENDROOT
BRANCH   2   3
HETATM    3  C   UNL     1      -6.925   8.058  69.442  1.00  0.00    -0.055 C  
BRANCH   3   4
HETATM    4  N   UNL     1      -7.129   7.163  70.610  1.00  0.00    -0.065 NA 
HETATM    5  H   UNL     1      -8.049   7.034  71.031  1.00  0.00     0.000 HD 
BRANCH   4   6
HETATM    6  C   UNL     1      -5.940   6.473  71.127  1.00  0.00    -0.028 C  
HETATM    7  C   UNL     1      -6.118   4.972  70.878  1.00  0.00    -0.018 C  
HETATM    8  C   UNL     1      -5.696   6.721  72.616  1.00  0.00    -0.038 C  
ENDBRANCH   4   6
ENDBRANCH   3   4
BRANCH   3   9
HETATM    9  C   UNL     1      -7.332   9.535  69.794  1.00  0.00    -0.092 C  
HETATM   10  H   UNL     1      -7.479  10.670  71.415  1.00  0.00     0.000 HD 
HETATM   11  O   UNL     1      -7.233   9.778  71.202  1.00  0.00    -0.327 OA 
BRANCH   9  12
HETATM   12  C   UNL     1      -8.684   9.998  69.247  1.00  0.00    -0.182 A  
HETATM   13  C   UNL     1      -9.939   9.781  69.868  1.00  0.00    -0.282 A  
HETATM   14  C   UNL     1     -10.118   8.966  71.081  1.00  0.00    -0.341 C  
HETATM   15  C   UNL     1     -11.291   8.930  71.726  1.00  0.00    -0.431 C  
HETATM   16  C   UNL     1     -12.460   9.680  71.227  1.00  0.00    -0.355 C  
HETATM   17  N   UNL     1     -12.316  10.312  70.027  1.00  0.00    -0.517 N  
HETATM   18  O   UNL     1     -13.510   9.717  71.860  1.00  0.00    -0.402 OA 
HETATM   19  H   UNL     1     -13.138  10.755  69.615  1.00  0.00     0.000 HD 
HETATM   20  C   UNL     1     -11.100  10.390  69.324  1.00  0.00    -0.253 A  
HETATM   21  C   UNL     1     -11.023  11.118  68.133  1.00  0.00    -0.238 A  
HETATM   22  O   UNL     1     -12.113  11.697  67.543  1.00  0.00    -0.611 OA 
HETATM   23  C   UNL     1      -9.807  11.291  67.491  1.00  0.00    -0.195 A  
HETATM   24  H   UNL     1     -12.060  12.192  66.734  1.00  0.00     0.000 HD 
HETATM   25  C   UNL     1      -8.652  10.744  68.047  1.00  0.00    -0.128 A  
ENDBRANCH   9  12
ENDBRANCH   3   9
ENDBRANCH   2   3
TORSDOF 5
ENDMDL
MODEL      240
REMARK 921   NORMALIZED FREE ENERGY PREDICTED BY IDOCK:   -3.33 KCAL/MOL
REMARK 922        TOTAL FREE ENERGY PREDICTED BY IDOCK:   -5.15 KCAL/MOL
REMARK 923 INTER-LIGAND FREE ENERGY PREDICTED BY IDOCK:   -4.23 KCAL/MOL
REMARK 924 INTRA-LIGAND FREE ENERGY PREDICTED BY IDOCK:   -0.92 KCAL/MOL
REMARK 927      BINDING AFFINITY PREDICTED BY RF-SCORE:    0.00 PKD
ROOT
HETATM    1  C   UNL     1      -8.390  11.085  68.253  1.00  0.00    -0.133 C  
HETATM    2  C   UNL     1      -9.822  10.648  68.546  1.00  0.00    -0.175 C  
ENDROOT
BRANCH   2   3
HETATM    3  C   UNL     1     -10.018   9.117  68.716  1.00  0.00    -0.176 C  
BRANCH   3   4
HETATM    4  N   UNL     1     -10.927   8.538  67.696  1.00  0.00    -0.481 NA 
HETATM    5  H   UNL     1     -11.877   8.885  67.567  1.00  0.00     0.000 HD 
BRANCH   4   6
HETATM    6  C   UNL     1     -10.390   7.440  66.881  1.00  0.00    -0.296 C  
HETATM    7  C   UNL     1     -10.837   6.118  67.514  1.00  0.00    -0.422 C  
HETATM    8  C   UNL     1      -8.866   7.463  66.761  1.00  0.00    -0.148 C  
ENDBRANCH   4   6
ENDBRANCH   3   4
BRANCH   3   9
HETATM    9  C   UNL     1     -10.517   8.773  70.167  1.00  0.00    -0.213 C  
HETATM   10  H   UNL     1     -11.518   9.673  71.626  1.00  0.00     0.000 HD 
HETATM   11  O   UNL     1     -11.216   9.880  70.749  1.00  0.00    -0.303 OA 
BRANCH   9  12
HETATM   12  C   UNL     1      -9.454   8.227  71.122  1.00  0.00    -0.206 A  
HETATM   13  C   UNL     1      -9.599   7.083  71.946  1.00  0.00    -0.159 A  
HETATM   14  C   UNL     1     -10.857   6.329  72.078  1.00  0.00    -0.286 C  
HETATM   15  C   UNL     1     -10.900   5.162  72.732  1.00  0.00    -0.314 C  
HETATM   16  C   UNL     1      -9.695   4.601  73.374  1.00  0.00    -0.132 C  
HETATM   17  N   UNL     1      -8.576   5.380  73.363  1.00  0.00    -0.116 N  
HETATM   18  O   UNL     1      -9.711   3.493  73.899  1.00  0.00    -0.101 OA 
HETATM   19  H   UNL     1      -7.760   5.057  73.884  1.00  0.00     0.000 HD 
HETATM   20  C   UNL     1      -8.481   6.604  72.677  1.00  0.00    -0.123 A  
HETATM   21  C   UNL     1      -7.272   7.307  72.660  1.00  0.00    -0.068 A  
HETATM   22  O   UNL     1      -6.173   6.914  73.371  1.00  0.00    -0.061 OA 
HETATM   23  C   UNL     1      -7.138   8.457  71.897  1.00  0.00    -0.103 A  
HETATM   24  H   UNL     1      -5.352   7.392  73.359  1.00  0.00     0.000 HD 
HETATM   25  C   UNL     1      -8.214   8.905  71.132  1.00  0.00    -0.218 A  
ENDBRANCH   9  12
ENDBRANCH   3   9
ENDBRANCH   2   3
TORSDOF 5
ENDMDL
MODEL      241
REMARK 921   NORMALIZED FREE ENERGY PREDICTED BY IDOCK:   -3.33 KCAL/MOL
REMARK 922        TOTAL FREE ENERGY PREDICTED BY IDOCK:   -5.15 KCAL/MOL
REMARK 923 INTER-LIGAND FREE ENERGY PREDICTED BY IDOCK:   -4.65 KCAL/MOL
REMARK 924 INTRA-LIGAND FREE ENERGY PREDICTED BY IDOCK:   -0.49 KCAL/MOL
REMARK 927      BINDING AFFINITY PREDICTED BY RF-SCORE:    0.00 PKD
ROOT
HETATM    1  C   UNL     1      -7.671  10.009  64.770  1.00  0.00    -0.142 C  
HETATM    2  C   UNL     1      -9.181   9.836  64.640  1.00  0.00    -0.312 C  
ENDROOT
BRANCH   2   3
HETATM    3  C   UNL     1      -9.892   9.300  65.914  1.00  0.00    -0.265 C  
BRANCH   3   4
HETATM    4  N   UNL     1     -10.320  10.386  66.831  1.00  0.00    -0.231 NA 
HETATM    5  H   UNL     1     -10.670  10.188  67.769  1.00  0.00     0.000 HD 
BRANCH   4   6
HETATM    6  C   UNL     1     -10.216  11.760  66.322  1.00  0.00    -0.221 C  
HETATM    7  C   UNL     1      -9.317  12.552  67.278  1.00  0.00    -0.190 C  
HETATM    8  C   UNL     1     -11.568  12.461  66.188  1.00  0.00    -0.452 C  
ENDBRANCH   4   6
ENDBRANCH   3   4
BRANCH   3   9
HETATM    9  C   UNL     1      -8.984   8.260  66.667  1.00  0.00    -0.150 C  
HETATM   10  H   UNL     1      -8.841   6.288  66.834  1.00  0.00     0.000 HD 
HETATM   11  O   UNL     1      -9.389   6.917  66.379  1.00  0.00    -0.169 OA 
BRANCH   9  12
HETATM   12  C   UNL     1      -8.832   8.481  68.173  1.00  0.00    -0.142 A  
HETATM   13  C   UNL     1      -9.663   7.920  69.174  1.00  0.00    -0.162 A  
HETATM   14  C   UNL     1     -10.873   7.134  68.882  1.00  0.00    -0.160 C  
HETATM   15  C   UNL     1     -11.529   6.484  69.851  1.00  0.00    -0.467 C  
HETATM   16  C   UNL     1     -11.083   6.557  71.256  1.00  0.00    -0.273 C  
HETATM   17  N   UNL     1     -10.049   7.403  71.528  1.00  0.00    -0.185 N  
HETATM   18  O   UNL     1     -11.630   5.895  72.132  1.00  0.00    -0.296 OA 
HETATM   19  H   UNL     1      -9.787   7.544  72.504  1.00  0.00     0.000 HD 
HETATM   20  C   UNL     1      -9.322   8.093  70.541  1.00  0.00    -0.155 A  
HETATM   21  C   UNL     1      -8.229   8.887  70.901  1.00  0.00    -0.175 A  
HETATM   22  O   UNL     1      -7.874   9.118  72.201  1.00  0.00    -0.311 OA 
HETATM   23  C   UNL     1      -7.442   9.483  69.928  1.00  0.00    -0.113 A  
HETATM   24  H   UNL     1      -7.132   9.658  72.445  1.00  0.00     0.000 HD 
HETATM   25  C   UNL     1      -7.736   9.274  68.582  1.00  0.00    -0.085 A  
ENDBRANCH   9  12
ENDBRANCH   3   9
ENDBRANCH   2   3
TORSDOF 5
ENDMDL
MODEL      242
REMARK 921   NORMALIZED FREE ENERGY PREDICTED BY IDOCK:   -3.30 KCAL/MOL
REMARK 922        TOTAL FREE ENERGY PREDICTED BY IDOCK:   -5.12 KCAL/MOL
REMARK 923 INTER-LIGAND FREE ENERGY PREDICTED BY IDOCK:   -4.70 KCAL/MOL
REMARK 924 INTRA-LIGAND FREE ENERGY PREDICTED BY IDOCK:   -0.42 KCAL/MOL
REMARK 927      BINDING AFFINITY PREDICTED BY RF-SCORE:    0.00 PKD
ROOT
HETATM    1  C   UNL     1     -12.340  12.813  70.864  1.00  0.00    -0.356 C  
HETATM    2  C   UNL     1     -11.703  13.444  69.630  1.00  0.00    -0.375 C  
ENDROOT
BRANCH   2   3
HETATM    3  C   UNL     1     -10.573  12.604  68.973  1.00  0.00    -0.041 C  
BRANCH   3   4
HETATM    4  N   UNL     1      -9.506  13.445  68.376  1.00  0.00    -0.289 NA 
HETATM    5  H   UNL     1      -8.521  13.193  68.451  1.00  0.00     0.000 HD 
BRANCH   4   6
HETATM    6  C   UNL     1      -9.940  14.658  67.670  1.00  0.00    -0.227 C  
HETATM    7  C   UNL     1      -9.467  14.554  66.216  1.00  0.00    -0.310 C  
HETATM    8  C   UNL     1      -9.403  15.947  68.294  1.00  0.00    -0.194 C  
ENDBRANCH   4   6
ENDBRANCH   3   4
BRANCH   3   9
HETATM    9  C   UNL     1     -11.161  11.609  67.907  1.00  0.00    -0.269 C  
HETATM   10  H   UNL     1     -12.713  10.384  67.743  1.00  0.00     0.000 HD 
HETATM   11  O   UNL     1     -12.358  10.985  68.386  1.00  0.00    -0.528 OA 
BRANCH   9  12
HETATM   12  C   UNL     1     -10.180  10.573  67.355  1.00  0.00    -0.253 A  
HETATM   13  C   UNL     1      -9.506   9.590  68.121  1.00  0.00    -0.145 A  
HETATM   14  C   UNL     1      -9.575   9.513  69.590  1.00  0.00    -0.216 C  
HETATM   15  C   UNL     1      -9.062   8.471  70.255  1.00  0.00    -0.158 C  
HETATM   16  C   UNL     1      -8.380   7.372  69.544  1.00  0.00    -0.132 C  
HETATM   17  N   UNL     1      -8.200   7.530  68.201  1.00  0.00    -0.124 N  
HETATM   18  O   UNL     1      -7.985   6.377  70.140  1.00  0.00    -0.108 OA 
HETATM   19  H   UNL     1      -7.646   6.831  67.705  1.00  0.00     0.000 HD 
HETATM   20  C   UNL     1      -8.734   8.600  67.460  1.00  0.00    -0.135 A  
HETATM   21  C   UNL     1      -8.561   8.649  66.073  1.00  0.00    -0.155 A  
HETATM   22  O   UNL     1      -7.801   7.744  65.387  1.00  0.00    -0.099 OA 
HETATM   23  C   UNL     1      -9.175   9.639  65.322  1.00  0.00    -0.295 A  
HETATM   24  H   UNL     1      -7.683   7.777  64.445  1.00  0.00     0.000 HD 
HETATM   25  C   UNL     1      -9.981  10.583  65.956  1.00  0.00    -0.295 A  
ENDBRANCH   9  12
ENDBRANCH   3   9
ENDBRANCH   2   3
TORSDOF 5
ENDMDL
MODEL      243
REMARK 921   NORMALIZED FREE ENERGY PREDICTED BY IDOCK:   -3.27 KCAL/MOL
REMARK 922        TOTAL FREE ENERGY PREDICTED BY IDOCK:   -5.08 KCAL/MOL
REMARK 923 INTER-LIGAND FREE ENERGY PREDICTED BY IDOCK:   -5.57 KCAL/MOL
REMARK 924 INTRA-LIGAND FREE ENERGY PREDICTED BY IDOCK:    0.49 KCAL/MOL
REMARK 927      BINDING AFFINITY PREDICTED BY RF-SCORE:    0.00 PKD
ROOT
HETATM    1  C   UNL     1      -7.527  10.298  64.270  1.00  0.00    -0.072 C  
HETATM    2  C   UNL     1      -8.986   9.912  64.045  1.00  0.00    -0.276 C  
ENDROOT
BRANCH   2   3
HETATM    3  C   UNL     1      -9.841   9.800  65.336  1.00  0.00    -0.295 C  
BRANCH   3   4
HETATM    4  N   UNL     1     -10.647  11.018  65.599  1.00  0.00    -0.231 NA 
HETATM    5  H   UNL     1     -11.155  11.146  66.474  1.00  0.00     0.000 HD 
BRANCH   4   6
HETATM    6  C   UNL     1     -10.677  12.032  64.535  1.00  0.00    -0.312 C  
HETATM    7  C   UNL     1     -10.496  13.407  65.187  1.00  0.00    -0.358 C  
HETATM    8  C   UNL     1     -11.969  12.015  63.719  1.00  0.00    -0.588 C  
ENDBRANCH   4   6
ENDBRANCH   3   4
BRANCH   3   9
HETATM    9  C   UNL     1      -8.941   9.449  66.577  1.00  0.00    -0.148 C  
HETATM   10  H   UNL     1      -7.163   8.635  66.916  1.00  0.00     0.000 HD 
HETATM   11  O   UNL     1      -7.708   8.847  66.167  1.00  0.00    -0.096 OA 
BRANCH   9  12
HETATM   12  C   UNL     1      -9.618   8.628  67.676  1.00  0.00    -0.190 A  
HETATM   13  C   UNL     1     -10.326   9.161  68.782  1.00  0.00    -0.235 A  
HETATM   14  C   UNL     1     -10.402  10.601  69.083  1.00  0.00    -0.242 C  
HETATM   15  C   UNL     1     -11.219  11.068  70.035  1.00  0.00    -0.303 C  
HETATM   16  C   UNL     1     -12.052  10.155  70.842  1.00  0.00    -0.356 C  
HETATM   17  N   UNL     1     -11.862   8.818  70.647  1.00  0.00    -0.457 N  
HETATM   18  O   UNL     1     -12.863  10.585  71.655  1.00  0.00    -0.412 OA 
HETATM   19  H   UNL     1     -12.355   8.169  71.260  1.00  0.00     0.000 HD 
HETATM   20  C   UNL     1     -11.028   8.284  69.649  1.00  0.00    -0.086 A  
HETATM   21  C   UNL     1     -10.944   6.900  69.471  1.00  0.00    -0.250 A  
HETATM   22  O   UNL     1     -11.569   6.005  70.295  1.00  0.00    -0.294 OA 
HETATM   23  C   UNL     1     -10.210   6.368  68.422  1.00  0.00    -0.198 A  
HETATM   24  H   UNL     1     -11.513   5.065  70.174  1.00  0.00     0.000 HD 
HETATM   25  C   UNL     1      -9.563   7.223  67.532  1.00  0.00    -0.171 A  
ENDBRANCH   9  12
ENDBRANCH   3   9
ENDBRANCH   2   3
TORSDOF 5
ENDMDL
MODEL      244
REMARK 921   NORMALIZED FREE ENERGY PREDICTED BY IDOCK:   -3.26 KCAL/MOL
REMARK 922        TOTAL FREE ENERGY PREDICTED BY IDOCK:   -5.06 KCAL/MOL
REMARK 923 INTER-LIGAND FREE ENERGY PREDICTED BY IDOCK:   -4.44 KCAL/MOL
REMARK 924 INTRA-LIGAND FREE ENERGY PREDICTED BY IDOCK:   -0.62 KCAL/MOL
REMARK 927      BINDING AFFINITY PREDICTED BY RF-SCORE:    0.00 PKD
ROOT
HETATM    1  C   UNL     1     -12.212  10.082  71.383  1.00  0.00    -0.510 C  
HETATM    2  C   UNL     1     -11.266   8.895  71.535  1.00  0.00    -0.396 C  
ENDROOT
BRANCH   2   3
HETATM    3  C   UNL     1     -10.876   8.193  70.205  1.00  0.00    -0.244 C  
BRANCH   3   4
HETATM    4  N   UNL     1     -11.389   8.905  69.008  1.00  0.00    -0.264 NA 
HETATM    5  H   UNL     1     -12.382   9.105  68.889  1.00  0.00     0.000 HD 
BRANCH   4   6
HETATM    6  C   UNL     1     -10.395   9.307  68.004  1.00  0.00    -0.221 C  
HETATM    7  C   UNL     1     -10.839  10.648  67.410  1.00  0.00    -0.353 C  
HETATM    8  C   UNL     1     -10.218   8.283  66.883  1.00  0.00    -0.388 C  
ENDBRANCH   4   6
ENDBRANCH   3   4
BRANCH   3   9
HETATM    9  C   UNL     1     -11.345   6.692  70.205  1.00  0.00    -0.374 C  
HETATM   10  H   UNL     1     -12.185   5.417  71.473  1.00  0.00     0.000 HD 
HETATM   11  O   UNL     1     -11.901   6.324  71.472  1.00  0.00    -0.306 OA 
BRANCH   9  12
HETATM   12  C   UNL     1     -10.303   5.672  69.741  1.00  0.00    -0.352 A  
HETATM   13  C   UNL     1      -9.235   5.173  70.527  1.00  0.00    -0.191 A  
HETATM   14  C   UNL     1      -8.914   5.670  71.875  1.00  0.00    -0.144 C  
HETATM   15  C   UNL     1      -8.007   5.055  72.644  1.00  0.00    -0.098 C  
HETATM   16  C   UNL     1      -7.268   3.873  72.156  1.00  0.00    -0.052 C  
HETATM   17  N   UNL     1      -7.474   3.516  70.856  1.00  0.00    -0.037 N  
HETATM   18  O   UNL     1      -6.500   3.258  72.887  1.00  0.00    -0.016 OA 
HETATM   19  H   UNL     1      -6.903   2.764  70.468  1.00  0.00     0.000 HD 
HETATM   20  C   UNL     1      -8.427   4.123  70.018  1.00  0.00    -0.064 A  
HETATM   21  C   UNL     1      -8.623   3.648  68.718  1.00  0.00    -0.086 A  
HETATM   22  O   UNL     1      -7.854   2.663  68.163  1.00  0.00    -0.058 OA 
HETATM   23  C   UNL     1      -9.633   4.167  67.924  1.00  0.00    -0.203 A  
HETATM   24  H   UNL     1      -7.987   2.340  67.279  1.00  0.00     0.000 HD 
HETATM   25  C   UNL     1     -10.467   5.161  68.434  1.00  0.00    -0.084 A  
ENDBRANCH   9  12
ENDBRANCH   3   9
ENDBRANCH   2   3
TORSDOF 5
ENDMDL
MODEL      245
REMARK 921   NORMALIZED FREE ENERGY PREDICTED BY IDOCK:   -3.26 KCAL/MOL
REMARK 922        TOTAL FREE ENERGY PREDICTED BY IDOCK:   -5.06 KCAL/MOL
REMARK 923 INTER-LIGAND FREE ENERGY PREDICTED BY IDOCK:   -5.47 KCAL/MOL
REMARK 924 INTRA-LIGAND FREE ENERGY PREDICTED BY IDOCK:    0.41 KCAL/MOL
REMARK 927      BINDING AFFINITY PREDICTED BY RF-SCORE:    0.00 PKD
ROOT
HETATM    1  C   UNL     1      -9.872   9.282  67.927  1.00  0.00    -0.200 C  
HETATM    2  C   UNL     1     -10.158   9.283  66.429  1.00  0.00    -0.337 C  
ENDROOT
BRANCH   2   3
HETATM    3  C   UNL     1     -10.102  10.680  65.752  1.00  0.00    -0.266 C  
BRANCH   3   4
HETATM    4  N   UNL     1      -8.729  11.243  65.709  1.00  0.00    -0.323 NA 
HETATM    5  H   UNL     1      -8.539  12.209  65.973  1.00  0.00     0.000 HD 
BRANCH   4   6
HETATM    6  C   UNL     1      -7.659  10.339  65.267  1.00  0.00    -0.143 C  
HETATM    7  C   UNL     1      -6.334  10.863  65.831  1.00  0.00    -0.072 C  
HETATM    8  C   UNL     1      -7.559  10.217  63.746  1.00  0.00    -0.133 C  
ENDBRANCH   4   6
ENDBRANCH   3   4
BRANCH   3   9
HETATM    9  C   UNL     1     -11.094  11.681  66.450  1.00  0.00    -0.291 C  
HETATM   10  H   UNL     1     -12.781  12.626  66.004  1.00  0.00     0.000 HD 
HETATM   11  O   UNL     1     -12.182  12.021  65.582  1.00  0.00    -0.503 OA 
BRANCH   9  12
HETATM   12  C   UNL     1     -10.455  12.935  67.052  1.00  0.00    -0.244 A  
HETATM   13  C   UNL     1     -10.852  13.559  68.260  1.00  0.00    -0.277 A  
HETATM   14  C   UNL     1     -12.027  13.143  69.045  1.00  0.00    -0.329 C  
HETATM   15  C   UNL     1     -12.264  13.649  70.261  1.00  0.00    -0.423 C  
HETATM   16  C   UNL     1     -11.373  14.669  70.850  1.00  0.00    -0.095 C  
HETATM   17  N   UNL     1     -10.374  15.145  70.053  1.00  0.00    -0.468 N  
HETATM   18  O   UNL     1     -11.538  15.071  71.997  1.00  0.00    -0.395 OA 
HETATM   19  H   UNL     1      -9.807  15.918  70.402  1.00  0.00     0.000 HD 
HETATM   20  C   UNL     1     -10.080  14.632  68.776  1.00  0.00    -0.235 A  
HETATM   21  C   UNL     1      -8.993  15.132  68.053  1.00  0.00    -0.172 A  
HETATM   22  O   UNL     1      -8.235  16.185  68.483  1.00  0.00    -0.168 OA 
HETATM   23  C   UNL     1      -8.630  14.559  66.844  1.00  0.00    -0.207 A  
HETATM   24  H   UNL     1      -7.496  16.525  67.991  1.00  0.00     0.000 HD 
HETATM   25  C   UNL     1      -9.348  13.469  66.355  1.00  0.00    -0.191 A  
ENDBRANCH   9  12
ENDBRANCH   3   9
ENDBRANCH   2   3
TORSDOF 5
ENDMDL
MODEL      246
REMARK 921   NORMALIZED FREE ENERGY PREDICTED BY IDOCK:   -3.24 KCAL/MOL
REMARK 922        TOTAL FREE ENERGY PREDICTED BY IDOCK:   -5.03 KCAL/MOL
REMARK 923 INTER-LIGAND FREE ENERGY PREDICTED BY IDOCK:   -4.42 KCAL/MOL
REMARK 924 INTRA-LIGAND FREE ENERGY PREDICTED BY IDOCK:   -0.62 KCAL/MOL
REMARK 927      BINDING AFFINITY PREDICTED BY RF-SCORE:    0.00 PKD
ROOT
HETATM    1  C   UNL     1     -12.717   7.545  71.053  1.00  0.00    -0.201 C  
HETATM    2  C   UNL     1     -11.460   7.016  70.370  1.00  0.00    -0.355 C  
ENDROOT
BRANCH   2   3
HETATM    3  C   UNL     1     -10.167   7.090  71.228  1.00  0.00    -0.190 C  
BRANCH   3   4
HETATM    4  N   UNL     1     -10.436   7.455  72.641  1.00  0.00    -0.232 NA 
HETATM    5  H   UNL     1     -10.596   8.422  72.923  1.00  0.00     0.000 HD 
BRANCH   4   6
HETATM    6  C   UNL     1     -10.460   6.355  73.613  1.00  0.00    -0.295 C  
HETATM    7  C   UNL     1      -9.274   6.537  74.565  1.00  0.00    -0.228 C  
HETATM    8  C   UNL     1     -10.391   4.972  72.965  1.00  0.00    -0.233 C  
ENDBRANCH   4   6
ENDBRANCH   3   4
BRANCH   3   9
HETATM    9  C   UNL     1      -9.124   8.077  70.586  1.00  0.00    -0.153 C  
HETATM   10  H   UNL     1      -8.379   9.876  70.968  1.00  0.00     0.000 HD 
HETATM   11  O   UNL     1      -9.009   9.279  71.355  1.00  0.00    -0.311 OA 
BRANCH   9  12
HETATM   12  C   UNL     1      -9.332   8.388  69.102  1.00  0.00    -0.151 A  
HETATM   13  C   UNL     1      -9.053   7.504  68.031  1.00  0.00    -0.131 A  
HETATM   14  C   UNL     1      -8.404   6.194  68.203  1.00  0.00    -0.114 C  
HETATM   15  C   UNL     1      -8.314   5.325  67.189  1.00  0.00    -0.107 C  
HETATM   16  C   UNL     1      -8.834   5.660  65.849  1.00  0.00    -0.152 C  
HETATM   17  N   UNL     1      -9.301   6.929  65.672  1.00  0.00    -0.364 N  
HETATM   18  O   UNL     1      -8.830   4.835  64.941  1.00  0.00    -0.147 OA 
HETATM   19  H   UNL     1      -9.575   7.214  64.731  1.00  0.00     0.000 HD 
HETATM   20  C   UNL     1      -9.427   7.868  66.711  1.00  0.00    -0.201 A  
HETATM   21  C   UNL     1      -9.982   9.126  66.456  1.00  0.00    -0.288 A  
HETATM   22  O   UNL     1     -10.330   9.545  65.202  1.00  0.00    -0.135 OA 
HETATM   23  C   UNL     1     -10.211  10.017  67.493  1.00  0.00    -0.260 A  
HETATM   24  H   UNL     1     -10.707  10.400  65.029  1.00  0.00     0.000 HD 
HETATM   25  C   UNL     1      -9.897   9.648  68.800  1.00  0.00    -0.173 A  
ENDBRANCH   9  12
ENDBRANCH   3   9
ENDBRANCH   2   3
TORSDOF 5
ENDMDL
MODEL      247
REMARK 921   NORMALIZED FREE ENERGY PREDICTED BY IDOCK:   -3.24 KCAL/MOL
REMARK 922        TOTAL FREE ENERGY PREDICTED BY IDOCK:   -5.03 KCAL/MOL
REMARK 923 INTER-LIGAND FREE ENERGY PREDICTED BY IDOCK:   -4.82 KCAL/MOL
REMARK 924 INTRA-LIGAND FREE ENERGY PREDICTED BY IDOCK:   -0.21 KCAL/MOL
REMARK 927      BINDING AFFINITY PREDICTED BY RF-SCORE:    0.00 PKD
ROOT
HETATM    1  C   UNL     1      -7.590   7.543  69.830  1.00  0.00    -0.094 C  
HETATM    2  C   UNL     1      -8.329   8.543  68.946  1.00  0.00    -0.118 C  
ENDROOT
BRANCH   2   3
HETATM    3  C   UNL     1      -9.865   8.607  69.169  1.00  0.00    -0.185 C  
BRANCH   3   4
HETATM    4  N   UNL     1     -10.340   7.623  70.174  1.00  0.00    -0.212 NA 
HETATM    5  H   UNL     1     -10.077   6.639  70.125  1.00  0.00     0.000 HD 
BRANCH   4   6
HETATM    6  C   UNL     1     -11.206   8.137  71.242  1.00  0.00    -0.260 C  
HETATM    7  C   UNL     1     -10.331   8.417  72.468  1.00  0.00    -0.371 C  
HETATM    8  C   UNL     1     -12.333   7.176  71.624  1.00  0.00    -0.398 C  
ENDBRANCH   4   6
ENDBRANCH   3   4
BRANCH   3   9
HETATM    9  C   UNL     1     -10.636   8.433  67.810  1.00  0.00    -0.171 C  
HETATM   10  H   UNL     1     -11.206   6.946  66.626  1.00  0.00     0.000 HD 
HETATM   11  O   UNL     1     -10.739   7.051  67.447  1.00  0.00    -0.261 OA 
BRANCH   9  12
HETATM   12  C   UNL     1     -10.119   9.275  66.642  1.00  0.00    -0.341 A  
HETATM   13  C   UNL     1      -9.239   8.821  65.628  1.00  0.00    -0.244 A  
HETATM   14  C   UNL     1      -8.605   7.492  65.635  1.00  0.00    -0.131 C  
HETATM   15  C   UNL     1      -7.919   7.045  64.576  1.00  0.00    -0.104 C  
HETATM   16  C   UNL     1      -7.744   7.881  63.372  1.00  0.00    -0.140 C  
HETATM   17  N   UNL     1      -8.214   9.159  63.439  1.00  0.00    -0.168 N  
HETATM   18  O   UNL     1      -7.190   7.444  62.369  1.00  0.00    -0.076 OA 
HETATM   19  H   UNL     1      -8.019   9.785  62.658  1.00  0.00     0.000 HD 
HETATM   20  C   UNL     1      -8.953   9.665  64.524  1.00  0.00    -0.235 A  
HETATM   21  C   UNL     1      -9.460  10.968  64.482  1.00  0.00    -0.233 A  
HETATM   22  O   UNL     1      -9.190  11.838  63.462  1.00  0.00    -0.510 OA 
HETATM   23  C   UNL     1     -10.280  11.437  65.496  1.00  0.00    -0.312 A  
HETATM   24  H   UNL     1      -9.534  12.723  63.433  1.00  0.00     0.000 HD 
HETATM   25  C   UNL     1     -10.611  10.597  66.557  1.00  0.00    -0.257 A  
ENDBRANCH   9  12
ENDBRANCH   3   9
ENDBRANCH   2   3
TORSDOF 5
ENDMDL
MODEL      248
REMARK 921   NORMALIZED FREE ENERGY PREDICTED BY IDOCK:   -3.23 KCAL/MOL
REMARK 922        TOTAL FREE ENERGY PREDICTED BY IDOCK:   -5.03 KCAL/MOL
REMARK 923 INTER-LIGAND FREE ENERGY PREDICTED BY IDOCK:   -4.39 KCAL/MOL
REMARK 924 INTRA-LIGAND FREE ENERGY PREDICTED BY IDOCK:   -0.64 KCAL/MOL
REMARK 927      BINDING AFFINITY PREDICTED BY RF-SCORE:    0.00 PKD
ROOT
HETATM    1  C   UNL     1     -10.709   8.943  71.322  1.00  0.00    -0.357 C  
HETATM    2  C   UNL     1     -11.036   9.241  69.862  1.00  0.00    -0.200 C  
ENDROOT
BRANCH   2   3
HETATM    3  C   UNL     1     -10.521   8.186  68.845  1.00  0.00    -0.185 C  
BRANCH   3   4
HETATM    4  N   UNL     1     -10.617   6.797  69.362  1.00  0.00    -0.219 NA 
HETATM    5  H   UNL     1     -11.517   6.362  69.563  1.00  0.00     0.000 HD 
BRANCH   4   6
HETATM    6  C   UNL     1      -9.352   6.081  69.567  1.00  0.00    -0.136 C  
HETATM    7  C   UNL     1      -9.391   4.800  68.727  1.00  0.00    -0.187 C  
HETATM    8  C   UNL     1      -9.087   5.728  71.031  1.00  0.00    -0.157 C  
ENDBRANCH   4   6
ENDBRANCH   3   4
BRANCH   3   9
HETATM    9  C   UNL     1      -9.051   8.512  68.394  1.00  0.00    -0.139 C  
HETATM   10  H   UNL     1      -7.708   9.942  68.693  1.00  0.00     0.000 HD 
HETATM   11  O   UNL     1      -8.596   9.744  68.966  1.00  0.00    -0.130 OA 
BRANCH   9  12
HETATM   12  C   UNL     1      -8.797   8.476  66.886  1.00  0.00    -0.153 A  
HETATM   13  C   UNL     1      -9.279   9.422  65.948  1.00  0.00    -0.269 A  
HETATM   14  C   UNL     1     -10.201  10.516  66.296  1.00  0.00    -0.296 C  
HETATM   15  C   UNL     1     -10.494  11.482  65.417  1.00  0.00    -0.333 C  
HETATM   16  C   UNL     1      -9.929  11.471  64.053  1.00  0.00    -0.303 C  
HETATM   17  N   UNL     1      -9.193  10.376  63.704  1.00  0.00    -0.253 N  
HETATM   18  O   UNL     1     -10.126  12.397  63.275  1.00  0.00    -0.398 OA 
HETATM   19  H   UNL     1      -8.874  10.300  62.737  1.00  0.00     0.000 HD 
HETATM   20  C   UNL     1      -8.848   9.347  64.598  1.00  0.00    -0.200 A  
HETATM   21  C   UNL     1      -8.031   8.294  64.175  1.00  0.00    -0.148 A  
HETATM   22  O   UNL     1      -7.613   8.151  62.881  1.00  0.00    -0.109 OA 
HETATM   23  C   UNL     1      -7.597   7.335  65.076  1.00  0.00    -0.107 A  
HETATM   24  H   UNL     1      -7.058   7.436  62.594  1.00  0.00     0.000 HD 
HETATM   25  C   UNL     1      -7.969   7.430  66.416  1.00  0.00    -0.108 A  
ENDBRANCH   9  12
ENDBRANCH   3   9
ENDBRANCH   2   3
TORSDOF 5
ENDMDL
MODEL      249
REMARK 921   NORMALIZED FREE ENERGY PREDICTED BY IDOCK:   -3.23 KCAL/MOL
REMARK 922        TOTAL FREE ENERGY PREDICTED BY IDOCK:   -5.02 KCAL/MOL
REMARK 923 INTER-LIGAND FREE ENERGY PREDICTED BY IDOCK:   -4.71 KCAL/MOL
REMARK 924 INTRA-LIGAND FREE ENERGY PREDICTED BY IDOCK:   -0.31 KCAL/MOL
REMARK 927      BINDING AFFINITY PREDICTED BY RF-SCORE:    0.00 PKD
ROOT
HETATM    1  C   UNL     1     -10.909   7.216  73.412  1.00  0.00    -0.360 C  
HETATM    2  C   UNL     1     -10.323   8.334  72.555  1.00  0.00    -0.401 C  
ENDROOT
BRANCH   2   3
HETATM    3  C   UNL     1     -10.531   8.166  71.025  1.00  0.00    -0.201 C  
BRANCH   3   4
HETATM    4  N   UNL     1     -11.952   8.308  70.619  1.00  0.00    -0.485 NA 
HETATM    5  H   UNL     1     -12.359   7.731  69.883  1.00  0.00     0.000 HD 
BRANCH   4   6
HETATM    6  C   UNL     1     -12.744   9.319  71.332  1.00  0.00    -0.330 C  
HETATM    7  C   UNL     1     -14.172   8.784  71.480  1.00  0.00    -0.364 C  
HETATM    8  C   UNL     1     -12.773  10.674  70.625  1.00  0.00    -0.445 C  
ENDBRANCH   4   6
ENDBRANCH   3   4
BRANCH   3   9
HETATM    9  C   UNL     1      -9.943   6.795  70.527  1.00  0.00    -0.183 C  
HETATM   10  H   UNL     1      -8.383   5.636  70.925  1.00  0.00     0.000 HD 
HETATM   11  O   UNL     1      -8.738   6.464  71.226  1.00  0.00    -0.134 OA 
BRANCH   9  12
HETATM   12  C   UNL     1      -9.758   6.664  69.013  1.00  0.00    -0.142 A  
HETATM   13  C   UNL     1      -8.854   7.421  68.228  1.00  0.00    -0.128 A  
HETATM   14  C   UNL     1      -8.048   8.534  68.758  1.00  0.00    -0.120 C  
HETATM   15  C   UNL     1      -7.087   9.106  68.022  1.00  0.00    -0.078 C  
HETATM   16  C   UNL     1      -6.821   8.667  66.638  1.00  0.00    -0.069 C  
HETATM   17  N   UNL     1      -7.671   7.736  66.117  1.00  0.00    -0.087 N  
HETATM   18  O   UNL     1      -5.888   9.130  65.992  1.00  0.00    -0.049 OA 
HETATM   19  H   UNL     1      -7.567   7.489  65.132  1.00  0.00     0.000 HD 
HETATM   20  C   UNL     1      -8.682   7.098  66.857  1.00  0.00    -0.126 A  
HETATM   21  C   UNL     1      -9.465   6.103  66.263  1.00  0.00    -0.113 A  
HETATM   22  O   UNL     1      -9.368   5.771  64.940  1.00  0.00    -0.336 OA 
HETATM   23  C   UNL     1     -10.389   5.393  67.013  1.00  0.00    -0.299 A  
HETATM   24  H   UNL     1      -9.900   5.096  64.536  1.00  0.00     0.000 HD 
HETATM   25  C   UNL     1     -10.526   5.665  68.373  1.00  0.00    -0.263 A  
ENDBRANCH   9  12
ENDBRANCH   3   9
ENDBRANCH   2   3
TORSDOF 5
ENDMDL
MODEL      250
REMARK 921   NORMALIZED FREE ENERGY PREDICTED BY IDOCK:   -3.20 KCAL/MOL
REMARK 922        TOTAL FREE ENERGY PREDICTED BY IDOCK:   -4.98 KCAL/MOL
REMARK 923 INTER-LIGAND FREE ENERGY PREDICTED BY IDOCK:   -4.33 KCAL/MOL
REMARK 924 INTRA-LIGAND FREE ENERGY PREDICTED BY IDOCK:   -0.65 KCAL/MOL
REMARK 927      BINDING AFFINITY PREDICTED BY RF-SCORE:    0.00 PKD
ROOT
HETATM    1  C   UNL     1      -8.949   6.801  72.817  1.00  0.00    -0.139 C  
HETATM    2  C   UNL     1      -8.506   8.173  72.318  1.00  0.00    -0.227 C  
ENDROOT
BRANCH   2   3
HETATM    3  C   UNL     1      -9.220   8.664  71.029  1.00  0.00    -0.203 C  
BRANCH   3   4
HETATM    4  N   UNL     1     -10.673   8.362  71.027  1.00  0.00    -0.217 NA 
HETATM    5  H   UNL     1     -11.053   7.562  70.520  1.00  0.00     0.000 HD 
BRANCH   4   6
HETATM    6  C   UNL     1     -11.537   9.271  71.791  1.00  0.00    -0.388 C  
HETATM    7  C   UNL     1     -12.835   8.526  72.120  1.00  0.00    -0.413 C  
HETATM    8  C   UNL     1     -11.862  10.566  71.047  1.00  0.00    -0.438 C  
ENDBRANCH   4   6
ENDBRANCH   3   4
BRANCH   3   9
HETATM    9  C   UNL     1      -8.527   8.078  69.745  1.00  0.00    -0.127 C  
HETATM   10  H   UNL     1      -7.085   6.783  69.319  1.00  0.00     0.000 HD 
HETATM   11  O   UNL     1      -7.504   7.138  70.094  1.00  0.00    -0.085 OA 
BRANCH   9  12
HETATM   12  C   UNL     1      -8.010   9.110  68.741  1.00  0.00    -0.100 A  
HETATM   13  C   UNL     1      -8.793   9.762  67.757  1.00  0.00    -0.129 A  
HETATM   14  C   UNL     1     -10.205   9.437  67.492  1.00  0.00    -0.288 C  
HETATM   15  C   UNL     1     -10.949  10.191  66.674  1.00  0.00     0.007 C  
HETATM   16  C   UNL     1     -10.374  11.360  65.980  1.00  0.00    -0.249 C  
HETATM   17  N   UNL     1      -9.032  11.560  66.124  1.00  0.00    -0.226 N  
HETATM   18  O   UNL     1     -11.072  12.102  65.298  1.00  0.00    -0.303 OA 
HETATM   19  H   UNL     1      -8.595  12.303  65.578  1.00  0.00     0.000 HD 
HETATM   20  C   UNL     1      -8.216  10.803  66.984  1.00  0.00    -0.126 A  
HETATM   21  C   UNL     1      -6.862  11.121  67.126  1.00  0.00    -0.107 A  
HETATM   22  O   UNL     1      -6.244  12.089  66.386  1.00  0.00    -0.477 OA 
HETATM   23  C   UNL     1      -6.076  10.451  68.051  1.00  0.00    -0.047 A  
HETATM   24  H   UNL     1      -5.323  12.305  66.482  1.00  0.00     0.000 HD 
HETATM   25  C   UNL     1      -6.646   9.464  68.853  1.00  0.00    -0.047 A  
ENDBRANCH   9  12
ENDBRANCH   3   9
ENDBRANCH   2   3
TORSDOF 5
ENDMDL
MODEL      251
REMARK 921   NORMALIZED FREE ENERGY PREDICTED BY IDOCK:   -3.18 KCAL/MOL
REMARK 922        TOTAL FREE ENERGY PREDICTED BY IDOCK:   -4.96 KCAL/MOL
REMARK 923 INTER-LIGAND FREE ENERGY PREDICTED BY IDOCK:   -4.61 KCAL/MOL
REMARK 924 INTRA-LIGAND FREE ENERGY PREDICTED BY IDOCK:   -0.35 KCAL/MOL
REMARK 927      BINDING AFFINITY PREDICTED BY RF-SCORE:    0.00 PKD
ROOT
HETATM    1  C   UNL     1      -7.950  10.908  63.143  1.00  0.00     0.148 C  
HETATM    2  C   UNL     1      -9.298  10.195  63.087  1.00  0.00    -0.333 C  
ENDROOT
BRANCH   2   3
HETATM    3  C   UNL     1      -9.999  10.009  64.461  1.00  0.00    -0.081 C  
BRANCH   3   4
HETATM    4  N   UNL     1     -10.875  11.153  64.818  1.00  0.00    -0.256 NA 
HETATM    5  H   UNL     1     -11.214  11.290  65.770  1.00  0.00     0.000 HD 
BRANCH   4   6
HETATM    6  C   UNL     1     -11.229  12.077  63.732  1.00  0.00    -0.440 C  
HETATM    7  C   UNL     1     -10.843  13.493  64.172  1.00  0.00    -0.250 C  
HETATM    8  C   UNL     1     -12.712  12.040  63.365  1.00  0.00    -0.527 C  
ENDBRANCH   4   6
ENDBRANCH   3   4
BRANCH   3   9
HETATM    9  C   UNL     1      -8.945   9.738  65.596  1.00  0.00    -0.163 C  
HETATM   10  H   UNL     1      -7.666   8.307  66.100  1.00  0.00     0.000 HD 
HETATM   11  O   UNL     1      -8.303   8.471  65.414  1.00  0.00    -0.138 OA 
BRANCH   9  12
HETATM   12  C   UNL     1      -9.459   9.897  67.028  1.00  0.00    -0.196 A  
HETATM   13  C   UNL     1      -9.657  11.130  67.698  1.00  0.00    -0.180 A  
HETATM   14  C   UNL     1      -9.276  12.435  67.132  1.00  0.00    -0.199 C  
HETATM   15  C   UNL     1      -9.637  13.580  67.724  1.00  0.00    -0.219 C  
HETATM   16  C   UNL     1     -10.402  13.578  68.987  1.00  0.00    -0.005 C  
HETATM   17  N   UNL     1     -10.621  12.365  69.569  1.00  0.00    -0.338 N  
HETATM   18  O   UNL     1     -10.807  14.623  69.486  1.00  0.00    -0.245 OA 
HETATM   19  H   UNL     1     -11.062  12.346  70.489  1.00  0.00     0.000 HD 
HETATM   20  C   UNL     1     -10.274  11.138  68.976  1.00  0.00    -0.176 A  
HETATM   21  C   UNL     1     -10.598   9.935  69.611  1.00  0.00    -0.250 A  
HETATM   22  O   UNL     1     -11.162   9.879  70.855  1.00  0.00    -0.315 OA 
HETATM   23  C   UNL     1     -10.359   8.722  68.984  1.00  0.00    -0.227 A  
HETATM   24  H   UNL     1     -11.381   9.062  71.286  1.00  0.00     0.000 HD 
HETATM   25  C   UNL     1      -9.804   8.705  67.705  1.00  0.00    -0.218 A  
ENDBRANCH   9  12
ENDBRANCH   3   9
ENDBRANCH   2   3
TORSDOF 5
ENDMDL
MODEL      252
REMARK 921   NORMALIZED FREE ENERGY PREDICTED BY IDOCK:   -3.18 KCAL/MOL
REMARK 922        TOTAL FREE ENERGY PREDICTED BY IDOCK:   -4.96 KCAL/MOL
REMARK 923 INTER-LIGAND FREE ENERGY PREDICTED BY IDOCK:   -4.68 KCAL/MOL
REMARK 924 INTRA-LIGAND FREE ENERGY PREDICTED BY IDOCK:   -0.27 KCAL/MOL
REMARK 927      BINDING AFFINITY PREDICTED BY RF-SCORE:    0.00 PKD
ROOT
HETATM    1  C   UNL     1     -10.457  12.880  65.843  1.00  0.00    -0.294 C  
HETATM    2  C   UNL     1      -9.463  11.851  66.374  1.00  0.00    -0.238 C  
ENDROOT
BRANCH   2   3
HETATM    3  C   UNL     1      -9.885  11.154  67.696  1.00  0.00    -0.174 C  
BRANCH   3   4
HETATM    4  N   UNL     1     -10.253  12.119  68.763  1.00  0.00    -0.381 NA 
HETATM    5  H   UNL     1      -9.560  12.732  69.192  1.00  0.00     0.000 HD 
BRANCH   4   6
HETATM    6  C   UNL     1     -11.664  12.147  69.168  1.00  0.00    -0.328 C  
HETATM    7  C   UNL     1     -11.991  13.567  69.645  1.00  0.00    -0.397 C  
HETATM    8  C   UNL     1     -11.998  11.144  70.273  1.00  0.00    -0.460 C  
ENDBRANCH   4   6
ENDBRANCH   3   4
BRANCH   3   9
HETATM    9  C   UNL     1      -8.762  10.173  68.195  1.00  0.00    -0.122 C  
HETATM   10  H   UNL     1      -7.239   9.168  67.415  1.00  0.00     0.000 HD 
HETATM   11  O   UNL     1      -7.918   9.760  67.114  1.00  0.00    -0.102 OA 
BRANCH   9  12
HETATM   12  C   UNL     1      -9.246   8.970  69.009  1.00  0.00    -0.140 A  
HETATM   13  C   UNL     1      -9.572   7.698  68.479  1.00  0.00    -0.149 A  
HETATM   14  C   UNL     1      -9.600   7.398  67.038  1.00  0.00    -0.221 C  
HETATM   15  C   UNL     1      -9.747   6.144  66.592  1.00  0.00    -0.196 C  
HETATM   16  C   UNL     1      -9.918   5.016  67.529  1.00  0.00    -0.167 C  
HETATM   17  N   UNL     1     -10.032   5.330  68.852  1.00  0.00    -0.168 N  
HETATM   18  O   UNL     1      -9.967   3.858  67.129  1.00  0.00    -0.134 OA 
HETATM   19  H   UNL     1     -10.248   4.578  69.507  1.00  0.00     0.000 HD 
HETATM   20  C   UNL     1      -9.870   6.630  69.365  1.00  0.00    -0.151 A  
HETATM   21  C   UNL     1      -9.934   6.853  70.744  1.00  0.00    -0.190 A  
HETATM   22  O   UNL     1     -10.250   5.872  71.642  1.00  0.00    -0.192 OA 
HETATM   23  C   UNL     1      -9.667   8.109  71.266  1.00  0.00    -0.207 A  
HETATM   24  H   UNL     1     -10.294   6.024  72.578  1.00  0.00     0.000 HD 
HETATM   25  C   UNL     1      -9.319   9.151  70.409  1.00  0.00    -0.272 A  
ENDBRANCH   9  12
ENDBRANCH   3   9
ENDBRANCH   2   3
TORSDOF 5
ENDMDL
MODEL      253
REMARK 921   NORMALIZED FREE ENERGY PREDICTED BY IDOCK:   -3.17 KCAL/MOL
REMARK 922        TOTAL FREE ENERGY PREDICTED BY IDOCK:   -4.94 KCAL/MOL
REMARK 923 INTER-LIGAND FREE ENERGY PREDICTED BY IDOCK:   -4.61 KCAL/MOL
REMARK 924 INTRA-LIGAND FREE ENERGY PREDICTED BY IDOCK:   -0.33 KCAL/MOL
REMARK 927      BINDING AFFINITY PREDICTED BY RF-SCORE:    0.00 PKD
ROOT
HETATM    1  C   UNL     1      -7.029   8.874  71.152  1.00  0.00    -0.089 C  
HETATM    2  C   UNL     1      -8.322   9.445  70.578  1.00  0.00    -0.233 C  
ENDROOT
BRANCH   2   3
HETATM    3  C   UNL     1      -9.465   8.412  70.379  1.00  0.00    -0.168 C  
BRANCH   3   4
HETATM    4  N   UNL     1      -9.104   7.334  69.425  1.00  0.00    -0.143 NA 
HETATM    5  H   UNL     1      -8.964   7.523  68.432  1.00  0.00     0.000 HD 
BRANCH   4   6
HETATM    6  C   UNL     1      -8.958   5.982  69.981  1.00  0.00    -0.146 C  
HETATM    7  C   UNL     1      -9.029   4.984  68.821  1.00  0.00    -0.126 C  
HETATM    8  C   UNL     1     -10.023   5.637  71.022  1.00  0.00    -0.248 C  
ENDBRANCH   4   6
ENDBRANCH   3   4
BRANCH   3   9
HETATM    9  C   UNL     1     -10.795   9.125  69.939  1.00  0.00    -0.228 C  
HETATM   10  H   UNL     1     -12.657   8.608  69.489  1.00  0.00     0.000 HD 
HETATM   11  O   UNL     1     -11.853   8.178  69.755  1.00  0.00     0.386 OA 
BRANCH   9  12
HETATM   12  C   UNL     1     -10.677  10.062  68.735  1.00  0.00    -0.250 A  
HETATM   13  C   UNL     1     -11.093  11.416  68.705  1.00  0.00    -0.290 A  
HETATM   14  C   UNL     1     -11.812  12.073  69.809  1.00  0.00    -0.401 C  
HETATM   15  C   UNL     1     -12.033  13.393  69.805  1.00  0.00    -0.396 C  
HETATM   16  C   UNL     1     -11.592  14.238  68.677  1.00  0.00    -0.317 C  
HETATM   17  N   UNL     1     -11.058  13.593  67.601  1.00  0.00    -0.266 N  
HETATM   18  O   UNL     1     -11.717  15.457  68.710  1.00  0.00    -0.341 OA 
HETATM   19  H   UNL     1     -10.836  14.145  66.772  1.00  0.00     0.000 HD 
HETATM   20  C   UNL     1     -10.793  12.212  67.568  1.00  0.00    -0.243 A  
HETATM   21  C   UNL     1     -10.178  11.642  66.450  1.00  0.00    -0.221 A  
HETATM   22  O   UNL     1      -9.896  12.349  65.314  1.00  0.00    -0.364 OA 
HETATM   23  C   UNL     1      -9.815  10.304  66.452  1.00  0.00    -0.272 A  
HETATM   24  H   UNL     1      -9.478  11.962  64.554  1.00  0.00     0.000 HD 
HETATM   25  C   UNL     1     -10.055   9.528  67.584  1.00  0.00    -0.254 A  
ENDBRANCH   9  12
ENDBRANCH   3   9
ENDBRANCH   2   3
TORSDOF 5
ENDMDL
MODEL      254
REMARK 921   NORMALIZED FREE ENERGY PREDICTED BY IDOCK:   -3.15 KCAL/MOL
REMARK 922        TOTAL FREE ENERGY PREDICTED BY IDOCK:   -4.92 KCAL/MOL
REMARK 923 INTER-LIGAND FREE ENERGY PREDICTED BY IDOCK:   -4.77 KCAL/MOL
REMARK 924 INTRA-LIGAND FREE ENERGY PREDICTED BY IDOCK:   -0.15 KCAL/MOL
REMARK 927      BINDING AFFINITY PREDICTED BY RF-SCORE:    0.00 PKD
ROOT
HETATM    1  C   UNL     1      -9.289  13.742  68.303  1.00  0.00    -0.209 C  
HETATM    2  C   UNL     1      -9.043  13.469  66.822  1.00  0.00    -0.223 C  
ENDROOT
BRANCH   2   3
HETATM    3  C   UNL     1      -9.378  12.026  66.356  1.00  0.00    -0.228 C  
BRANCH   3   4
HETATM    4  N   UNL     1     -10.838  11.760  66.318  1.00  0.00    -0.271 NA 
HETATM    5  H   UNL     1     -11.372  11.581  67.168  1.00  0.00     0.000 HD 
BRANCH   4   6
HETATM    6  C   UNL     1     -11.476  11.770  64.994  1.00  0.00    -0.188 C  
HETATM    7  C   UNL     1     -10.377  11.947  63.941  1.00  0.00    -0.426 C  
HETATM    8  C   UNL     1     -12.523  12.872  64.835  1.00  0.00    -0.540 C  
ENDBRANCH   4   6
ENDBRANCH   3   4
BRANCH   3   9
HETATM    9  C   UNL     1      -8.642  10.963  67.250  1.00  0.00    -0.128 C  
HETATM   10  H   UNL     1      -7.278   9.541  67.016  1.00  0.00     0.000 HD 
HETATM   11  O   UNL     1      -7.723  10.183  66.476  1.00  0.00    -0.104 OA 
BRANCH   9  12
HETATM   12  C   UNL     1      -9.548  10.068  68.099  1.00  0.00    -0.152 A  
HETATM   13  C   UNL     1      -9.952   8.753  67.762  1.00  0.00    -0.243 A  
HETATM   14  C   UNL     1      -9.641   8.110  66.474  1.00  0.00    -0.303 C  
HETATM   15  C   UNL     1      -9.895   6.812  66.267  1.00  0.00    -0.011 C  
HETATM   16  C   UNL     1     -10.526   5.981  67.312  1.00  0.00    -0.257 C  
HETATM   17  N   UNL     1     -10.936   6.626  68.442  1.00  0.00    -0.438 N  
HETATM   18  O   UNL     1     -10.682   4.775  67.158  1.00  0.00    -0.014 OA 
HETATM   19  H   UNL     1     -11.462   6.092  69.135  1.00  0.00     0.000 HD 
HETATM   20  C   UNL     1     -10.677   7.982  68.707  1.00  0.00    -0.045 A  
HETATM   21  C   UNL     1     -11.073   8.548  69.924  1.00  0.00    -0.112 A  
HETATM   22  O   UNL     1     -11.802   7.866  70.858  1.00  0.00    -0.328 OA 
HETATM   23  C   UNL     1     -10.726   9.852  70.239  1.00  0.00    -0.367 A  
HETATM   24  H   UNL     1     -12.071   8.250  71.684  1.00  0.00     0.000 HD 
HETATM   25  C   UNL     1      -9.966  10.599  69.340  1.00  0.00    -0.183 A  
ENDBRANCH   9  12
ENDBRANCH   3   9
ENDBRANCH   2   3
TORSDOF 5
ENDMDL
MODEL      255
REMARK 921   NORMALIZED FREE ENERGY PREDICTED BY IDOCK:   -3.15 KCAL/MOL
REMARK 922        TOTAL FREE ENERGY PREDICTED BY IDOCK:   -4.92 KCAL/MOL
REMARK 923 INTER-LIGAND FREE ENERGY PREDICTED BY IDOCK:   -4.49 KCAL/MOL
REMARK 924 INTRA-LIGAND FREE ENERGY PREDICTED BY IDOCK:   -0.43 KCAL/MOL
REMARK 927      BINDING AFFINITY PREDICTED BY RF-SCORE:    0.00 PKD
ROOT
HETATM    1  C   UNL     1      -7.221   8.583  71.940  1.00  0.00    -0.113 C  
HETATM    2  C   UNL     1      -8.627   8.459  72.520  1.00  0.00    -0.253 C  
ENDROOT
BRANCH   2   3
HETATM    3  C   UNL     1      -9.443   7.241  72.006  1.00  0.00    -0.132 C  
BRANCH   3   4
HETATM    4  N   UNL     1      -8.629   6.309  71.186  1.00  0.00    -0.125 NA 
HETATM    5  H   UNL     1      -8.424   6.500  70.205  1.00  0.00     0.000 HD 
BRANCH   4   6
HETATM    6  C   UNL     1      -8.134   5.100  71.856  1.00  0.00    -0.116 C  
HETATM    7  C   UNL     1      -6.733   4.798  71.312  1.00  0.00    -0.035 C  
HETATM    8  C   UNL     1      -9.037   3.883  71.656  1.00  0.00    -0.170 C  
ENDBRANCH   4   6
ENDBRANCH   3   4
BRANCH   3   9
HETATM    9  C   UNL     1     -10.717   7.713  71.215  1.00  0.00    -0.228 C  
HETATM   10  H   UNL     1     -12.687   7.673  71.448  1.00  0.00     0.000 HD 
HETATM   11  O   UNL     1     -11.917   7.388  71.926  1.00  0.00    -0.285 OA 
BRANCH   9  12
HETATM   12  C   UNL     1     -10.798   7.258  69.756  1.00  0.00    -0.251 A  
HETATM   13  C   UNL     1     -10.659   8.099  68.625  1.00  0.00    -0.144 A  
HETATM   14  C   UNL     1     -10.534   9.564  68.709  1.00  0.00    -0.243 C  
HETATM   15  C   UNL     1     -10.235  10.298  67.630  1.00  0.00    -0.247 C  
HETATM   16  C   UNL     1     -10.051   9.670  66.306  1.00  0.00    -0.252 C  
HETATM   17  N   UNL     1     -10.311   8.334  66.221  1.00  0.00    -0.362 N  
HETATM   18  O   UNL     1      -9.694  10.327  65.335  1.00  0.00    -0.235 OA 
HETATM   19  H   UNL     1     -10.285   7.898  65.298  1.00  0.00     0.000 HD 
HETATM   20  C   UNL     1     -10.612   7.522  67.329  1.00  0.00    -0.324 A  
HETATM   21  C   UNL     1     -10.797   6.146  67.162  1.00  0.00    -0.360 A  
HETATM   22  O   UNL     1     -10.797   5.540  65.937  1.00  0.00    -0.594 OA 
HETATM   23  C   UNL     1     -10.986   5.323  68.261  1.00  0.00     0.417 A  
HETATM   24  H   UNL     1     -10.922   4.605  65.823  1.00  0.00     0.000 HD 
HETATM   25  C   UNL     1     -10.977   5.873  69.542  1.00  0.00    -0.438 A  
ENDBRANCH   9  12
ENDBRANCH   3   9
ENDBRANCH   2   3
TORSDOF 5
ENDMDL
MODEL      256
REMARK 921   NORMALIZED FREE ENERGY PREDICTED BY IDOCK:   -3.14 KCAL/MOL
REMARK 922        TOTAL FREE ENERGY PREDICTED BY IDOCK:   -4.91 KCAL/MOL
REMARK 923 INTER-LIGAND FREE ENERGY PREDICTED BY IDOCK:   -4.10 KCAL/MOL
REMARK 924 INTRA-LIGAND FREE ENERGY PREDICTED BY IDOCK:   -0.81 KCAL/MOL
REMARK 927      BINDING AFFINITY PREDICTED BY RF-SCORE:    0.00 PKD
ROOT
HETATM    1  C   UNL     1      -9.978   4.099  70.410  1.00  0.00    -0.163 C  
HETATM    2  C   UNL     1     -10.595   5.448  70.051  1.00  0.00    -0.354 C  
ENDROOT
BRANCH   2   3
HETATM    3  C   UNL     1      -9.578   6.540  69.618  1.00  0.00    -0.147 C  
BRANCH   3   4
HETATM    4  N   UNL     1      -8.291   5.971  69.147  1.00  0.00    -0.114 NA 
HETATM    5  H   UNL     1      -7.684   5.435  69.768  1.00  0.00     0.000 HD 
BRANCH   4   6
HETATM    6  C   UNL     1      -7.934   6.217  67.744  1.00  0.00    -0.106 C  
HETATM    7  C   UNL     1      -8.309   4.971  66.935  1.00  0.00    -0.107 C  
HETATM    8  C   UNL     1      -6.452   6.533  67.542  1.00  0.00    -0.052 C  
ENDBRANCH   4   6
ENDBRANCH   3   4
BRANCH   3   9
HETATM    9  C   UNL     1      -9.340   7.576  70.776  1.00  0.00    -0.162 C  
HETATM   10  H   UNL     1      -9.513   7.633  72.752  1.00  0.00     0.000 HD 
HETATM   11  O   UNL     1      -9.657   7.007  72.052  1.00  0.00    -0.141 OA 
BRANCH   9  12
HETATM   12  C   UNL     1     -10.013   8.938  70.596  1.00  0.00    -0.265 A  
HETATM   13  C   UNL     1      -9.516  10.001  69.802  1.00  0.00    -0.239 A  
HETATM   14  C   UNL     1      -8.205   9.974  69.132  1.00  0.00    -0.137 C  
HETATM   15  C   UNL     1      -7.852  10.925  68.259  1.00  0.00    -0.118 C  
HETATM   16  C   UNL     1      -8.751  12.057  67.959  1.00  0.00    -0.175 C  
HETATM   17  N   UNL     1      -9.897  12.142  68.694  1.00  0.00    -0.369 N  
HETATM   18  O   UNL     1      -8.468  12.883  67.098  1.00  0.00    -0.189 OA 
HETATM   19  H   UNL     1     -10.485  12.967  68.573  1.00  0.00     0.000 HD 
HETATM   20  C   UNL     1     -10.314  11.159  69.609  1.00  0.00     0.127 A  
HETATM   21  C   UNL     1     -11.539  11.291  70.271  1.00  0.00    -0.275 A  
HETATM   22  O   UNL     1     -12.333  12.397  70.151  1.00  0.00    -0.236 OA 
HETATM   23  C   UNL     1     -12.008  10.276  71.091  1.00  0.00    -0.472 A  
HETATM   24  H   UNL     1     -13.165  12.487  70.600  1.00  0.00     0.000 HD 
HETATM   25  C   UNL     1     -11.258   9.112  71.243  1.00  0.00    -0.407 A  
ENDBRANCH   9  12
ENDBRANCH   3   9
ENDBRANCH   2   3
TORSDOF 5
ENDMDL
MODEL      257
REMARK 921   NORMALIZED FREE ENERGY PREDICTED BY IDOCK:   -3.10 KCAL/MOL
REMARK 922        TOTAL FREE ENERGY PREDICTED BY IDOCK:   -4.85 KCAL/MOL
REMARK 923 INTER-LIGAND FREE ENERGY PREDICTED BY IDOCK:   -5.59 KCAL/MOL
REMARK 924 INTRA-LIGAND FREE ENERGY PREDICTED BY IDOCK:    0.73 KCAL/MOL
REMARK 927      BINDING AFFINITY PREDICTED BY RF-SCORE:    0.00 PKD
ROOT
HETATM    1  C   UNL     1     -12.061  14.114  68.600  1.00  0.00    -0.320 C  
HETATM    2  C   UNL     1     -10.809  14.634  69.300  1.00  0.00    -0.272 C  
ENDROOT
BRANCH   2   3
HETATM    3  C   UNL     1      -9.553  14.754  68.394  1.00  0.00    -0.213 C  
BRANCH   3   4
HETATM    4  N   UNL     1      -9.828  15.470  67.123  1.00  0.00    -0.233 NA 
HETATM    5  H   UNL     1     -10.393  15.052  66.384  1.00  0.00     0.000 HD 
BRANCH   4   6
HETATM    6  C   UNL     1      -9.247  16.812  66.983  1.00  0.00    -0.225 C  
HETATM    7  C   UNL     1     -10.209  17.660  66.145  1.00  0.00    -0.345 C  
HETATM    8  C   UNL     1      -7.864  16.807  66.331  1.00  0.00    -0.353 C  
ENDBRANCH   4   6
ENDBRANCH   3   4
BRANCH   3   9
HETATM    9  C   UNL     1      -8.928  13.339  68.112  1.00  0.00    -0.195 C  
HETATM   10  H   UNL     1      -7.121  12.527  68.010  1.00  0.00     0.000 HD 
HETATM   11  O   UNL     1      -7.499  13.382  68.180  1.00  0.00    -0.107 OA 
BRANCH   9  12
HETATM   12  C   UNL     1      -9.400  12.649  66.830  1.00  0.00    -0.232 A  
HETATM   13  C   UNL     1      -9.253  11.271  66.536  1.00  0.00    -0.200 A  
HETATM   14  C   UNL     1      -8.509  10.331  67.390  1.00  0.00    -0.125 C  
HETATM   15  C   UNL     1      -8.540   9.012  67.162  1.00  0.00    -0.119 C  
HETATM   16  C   UNL     1      -9.297   8.452  66.025  1.00  0.00    -0.177 C  
HETATM   17  N   UNL     1      -9.860   9.347  65.163  1.00  0.00    -0.421 N  
HETATM   18  O   UNL     1      -9.397   7.241  65.863  1.00  0.00    -0.041 OA 
HETATM   19  H   UNL     1     -10.304   8.986  64.318  1.00  0.00     0.000 HD 
HETATM   20  C   UNL     1      -9.865  10.738  65.372  1.00  0.00    -0.262 A  
HETATM   21  C   UNL     1     -10.527  11.580  64.473  1.00  0.00    -0.314 A  
HETATM   22  O   UNL     1     -11.104  11.128  63.319  1.00  0.00    -0.771 OA 
HETATM   23  C   UNL     1     -10.630  12.938  64.727  1.00  0.00    -0.362 A  
HETATM   24  H   UNL     1     -11.554  11.700  62.708  1.00  0.00     0.000 HD 
HETATM   25  C   UNL     1     -10.080  13.463  65.896  1.00  0.00    -0.300 A  
ENDBRANCH   9  12
ENDBRANCH   3   9
ENDBRANCH   2   3
TORSDOF 5
ENDMDL
MODEL      258
REMARK 921   NORMALIZED FREE ENERGY PREDICTED BY IDOCK:   -3.08 KCAL/MOL
REMARK 922        TOTAL FREE ENERGY PREDICTED BY IDOCK:   -4.84 KCAL/MOL
REMARK 923 INTER-LIGAND FREE ENERGY PREDICTED BY IDOCK:   -4.34 KCAL/MOL
REMARK 924 INTRA-LIGAND FREE ENERGY PREDICTED BY IDOCK:   -0.50 KCAL/MOL
REMARK 927      BINDING AFFINITY PREDICTED BY RF-SCORE:    0.00 PKD
ROOT
HETATM    1  C   UNL     1     -12.097  12.351  70.215  1.00  0.00    -0.377 C  
HETATM    2  C   UNL     1     -12.149  11.155  69.268  1.00  0.00    -0.377 C  
ENDROOT
BRANCH   2   3
HETATM    3  C   UNL     1     -11.050  10.084  69.503  1.00  0.00    -0.238 C  
BRANCH   3   4
HETATM    4  N   UNL     1     -10.638   9.400  68.251  1.00  0.00    -0.299 NA 
HETATM    5  H   UNL     1     -11.091   8.542  67.936  1.00  0.00     0.000 HD 
BRANCH   4   6
HETATM    6  C   UNL     1      -9.547  10.021  67.489  1.00  0.00    -0.153 C  
HETATM    7  C   UNL     1      -8.810  10.989  68.420  1.00  0.00    -0.151 C  
HETATM    8  C   UNL     1     -10.027  10.769  66.244  1.00  0.00    -0.272 C  
ENDBRANCH   4   6
ENDBRANCH   3   4
BRANCH   3   9
HETATM    9  C   UNL     1     -11.507   9.038  70.585  1.00  0.00    -0.248 C  
HETATM   10  H   UNL     1     -11.849   9.004  72.539  1.00  0.00     0.000 HD 
HETATM   11  O   UNL     1     -11.573   9.635  71.885  1.00  0.00    -0.339 OA 
BRANCH   9  12
HETATM   12  C   UNL     1     -10.717   7.729  70.617  1.00  0.00    -0.233 A  
HETATM   13  C   UNL     1      -9.337   7.609  70.915  1.00  0.00    -0.158 A  
HETATM   14  C   UNL     1      -8.445   8.762  71.122  1.00  0.00    -0.233 C  
HETATM   15  C   UNL     1      -7.193   8.600  71.567  1.00  0.00    -0.112 C  
HETATM   16  C   UNL     1      -6.647   7.255  71.839  1.00  0.00    -0.051 C  
HETATM   17  N   UNL     1      -7.438   6.194  71.506  1.00  0.00    -0.092 N  
HETATM   18  O   UNL     1      -5.532   7.108  72.327  1.00  0.00    -0.036 OA 
HETATM   19  H   UNL     1      -7.045   5.257  71.593  1.00  0.00     0.000 HD 
HETATM   20  C   UNL     1      -8.763   6.318  71.050  1.00  0.00    -0.136 A  
HETATM   21  C   UNL     1      -9.528   5.175  70.798  1.00  0.00    -0.167 A  
HETATM   22  O   UNL     1      -9.020   3.908  70.878  1.00  0.00    -0.086 OA 
HETATM   23  C   UNL     1     -10.866   5.286  70.454  1.00  0.00    -0.117 A  
HETATM   24  H   UNL     1      -9.540   3.132  70.707  1.00  0.00     0.000 HD 
HETATM   25  C   UNL     1     -11.453   6.547  70.373  1.00  0.00    -0.465 A  
ENDBRANCH   9  12
ENDBRANCH   3   9
ENDBRANCH   2   3
TORSDOF 5
ENDMDL
MODEL      259
REMARK 921   NORMALIZED FREE ENERGY PREDICTED BY IDOCK:   -3.08 KCAL/MOL
REMARK 922        TOTAL FREE ENERGY PREDICTED BY IDOCK:   -4.83 KCAL/MOL
REMARK 923 INTER-LIGAND FREE ENERGY PREDICTED BY IDOCK:   -3.79 KCAL/MOL
REMARK 924 INTRA-LIGAND FREE ENERGY PREDICTED BY IDOCK:   -1.04 KCAL/MOL
REMARK 927      BINDING AFFINITY PREDICTED BY RF-SCORE:    0.00 PKD
ROOT
HETATM    1  C   UNL     1      -8.302   9.856  64.923  1.00  0.00    -0.154 C  
HETATM    2  C   UNL     1      -9.798  10.153  64.986  1.00  0.00    -0.392 C  
ENDROOT
BRANCH   2   3
HETATM    3  C   UNL     1     -10.508   9.670  66.281  1.00  0.00    -0.079 C  
BRANCH   3   4
HETATM    4  N   UNL     1     -10.601  10.731  67.315  1.00  0.00    -0.241 NA 
HETATM    5  H   UNL     1     -10.712  10.506  68.304  1.00  0.00     0.000 HD 
BRANCH   4   6
HETATM    6  C   UNL     1     -10.522  12.120  66.844  1.00  0.00    -0.225 C  
HETATM    7  C   UNL     1      -9.477  12.850  67.694  1.00  0.00    -0.197 C  
HETATM    8  C   UNL     1     -11.857  12.862  66.922  1.00  0.00    -0.444 C  
ENDBRANCH   4   6
ENDBRANCH   3   4
BRANCH   3   9
HETATM    9  C   UNL     1      -9.808   8.387  66.859  1.00  0.00    -0.245 C  
HETATM   10  H   UNL     1     -10.039   6.418  66.762  1.00  0.00     0.000 HD 
HETATM   11  O   UNL     1     -10.462   7.194  66.412  1.00  0.00    -0.068 OA 
BRANCH   9  12
HETATM   12  C   UNL     1      -9.603   8.370  68.376  1.00  0.00    -0.157 A  
HETATM   13  C   UNL     1      -8.497   8.930  69.062  1.00  0.00    -0.133 A  
HETATM   14  C   UNL     1      -7.324   9.505  68.383  1.00  0.00    -0.076 C  
HETATM   15  C   UNL     1      -6.385  10.172  69.066  1.00  0.00    -0.044 C  
HETATM   16  C   UNL     1      -6.474  10.329  70.531  1.00  0.00    -0.104 C  
HETATM   17  N   UNL     1      -7.489   9.668  71.158  1.00  0.00     0.157 N  
HETATM   18  O   UNL     1      -5.662  11.011  71.148  1.00  0.00    -0.319 OA 
HETATM   19  H   UNL     1      -7.513   9.682  72.178  1.00  0.00     0.000 HD 
HETATM   20  C   UNL     1      -8.504   8.970  70.480  1.00  0.00    -0.200 A  
HETATM   21  C   UNL     1      -9.549   8.378  71.198  1.00  0.00    -0.177 A  
HETATM   22  O   UNL     1      -9.592   8.355  72.564  1.00  0.00    -0.271 OA 
HETATM   23  C   UNL     1     -10.609   7.782  70.534  1.00  0.00    -0.226 A  
HETATM   24  H   UNL     1     -10.301   7.953  73.052  1.00  0.00     0.000 HD 
HETATM   25  C   UNL     1     -10.639   7.787  69.140  1.00  0.00    -0.193 A  
ENDBRANCH   9  12
ENDBRANCH   3   9
ENDBRANCH   2   3
TORSDOF 5
ENDMDL
MODEL      260
REMARK 921   NORMALIZED FREE ENERGY PREDICTED BY IDOCK:   -3.06 KCAL/MOL
REMARK 922        TOTAL FREE ENERGY PREDICTED BY IDOCK:   -4.80 KCAL/MOL
REMARK 923 INTER-LIGAND FREE ENERGY PREDICTED BY IDOCK:   -4.22 KCAL/MOL
REMARK 924 INTRA-LIGAND FREE ENERGY PREDICTED BY IDOCK:   -0.58 KCAL/MOL
REMARK 927      BINDING AFFINITY PREDICTED BY RF-SCORE:    0.00 PKD
ROOT
HETATM    1  C   UNL     1     -13.953   9.402  70.736  1.00  0.00     0.280 C  
HETATM    2  C   UNL     1     -12.994  10.254  71.561  1.00  0.00    -0.556 C  
ENDROOT
BRANCH   2   3
HETATM    3  C   UNL     1     -11.497  10.124  71.169  1.00  0.00    -0.307 C  
BRANCH   3   4
HETATM    4  N   UNL     1     -11.008  11.278  70.375  1.00  0.00    -0.264 NA 
HETATM    5  H   UNL     1     -10.012  11.472  70.268  1.00  0.00     0.000 HD 
BRANCH   4   6
HETATM    6  C   UNL     1     -12.030  12.128  69.750  1.00  0.00    -0.302 C  
HETATM    7  C   UNL     1     -11.812  12.093  68.233  1.00  0.00    -0.361 C  
HETATM    8  C   UNL     1     -11.996  13.576  70.240  1.00  0.00    -0.386 C  
ENDBRANCH   4   6
ENDBRANCH   3   4
BRANCH   3   9
HETATM    9  C   UNL     1     -11.232   8.772  70.410  1.00  0.00    -0.223 C  
HETATM   10  H   UNL     1     -11.473   6.831  70.742  1.00  0.00     0.000 HD 
HETATM   11  O   UNL     1     -11.633   7.648  71.200  1.00  0.00    -0.271 OA 
BRANCH   9  12
HETATM   12  C   UNL     1      -9.815   8.586  69.862  1.00  0.00    -0.186 A  
HETATM   13  C   UNL     1      -9.436   8.716  68.503  1.00  0.00    -0.146 A  
HETATM   14  C   UNL     1     -10.395   8.935  67.407  1.00  0.00    -0.337 C  
HETATM   15  C   UNL     1      -9.979   9.220  66.167  1.00  0.00    -0.348 C  
HETATM   16  C   UNL     1      -8.540   9.295  65.843  1.00  0.00    -0.148 C  
HETATM   17  N   UNL     1      -7.670   8.949  66.835  1.00  0.00    -0.097 N  
HETATM   18  O   UNL     1      -8.156   9.639  64.731  1.00  0.00    -0.125 OA 
HETATM   19  H   UNL     1      -6.677   8.899  66.607  1.00  0.00     0.000 HD 
HETATM   20  C   UNL     1      -8.062   8.658  68.154  1.00  0.00    -0.115 A  
HETATM   21  C   UNL     1      -7.098   8.381  69.128  1.00  0.00    -0.064 A  
HETATM   22  O   UNL     1      -5.764   8.278  68.845  1.00  0.00    -0.037 OA 
HETATM   23  C   UNL     1      -7.466   8.201  70.452  1.00  0.00    -0.067 A  
HETATM   24  H   UNL     1      -5.109   8.090  69.507  1.00  0.00     0.000 HD 
HETATM   25  C   UNL     1      -8.808   8.311  70.814  1.00  0.00    -0.162 A  
ENDBRANCH   9  12
ENDBRANCH   3   9
ENDBRANCH   2   3
TORSDOF 5
ENDMDL
MODEL      261
REMARK 921   NORMALIZED FREE ENERGY PREDICTED BY IDOCK:   -3.05 KCAL/MOL
REMARK 922        TOTAL FREE ENERGY PREDICTED BY IDOCK:   -4.80 KCAL/MOL
REMARK 923 INTER-LIGAND FREE ENERGY PREDICTED BY IDOCK:   -4.42 KCAL/MOL
REMARK 924 INTRA-LIGAND FREE ENERGY PREDICTED BY IDOCK:   -0.38 KCAL/MOL
REMARK 927      BINDING AFFINITY PREDICTED BY RF-SCORE:    0.00 PKD
ROOT
HETATM    1  C   UNL     1      -5.803  13.444  70.346  1.00  0.00    -0.162 C  
HETATM    2  C   UNL     1      -6.923  13.439  69.309  1.00  0.00     0.006 C  
ENDROOT
BRANCH   2   3
HETATM    3  C   UNL     1      -6.477  13.078  67.866  1.00  0.00    -0.130 C  
BRANCH   3   4
HETATM    4  N   UNL     1      -6.796  14.145  66.883  1.00  0.00    -0.160 NA 
HETATM    5  H   UNL     1      -6.670  14.004  65.881  1.00  0.00     0.000 HD 
BRANCH   4   6
HETATM    6  C   UNL     1      -7.301  15.412  67.426  1.00  0.00    -0.213 C  
HETATM    7  C   UNL     1      -8.633  15.725  66.735  1.00  0.00    -0.306 C  
HETATM    8  C   UNL     1      -6.335  16.582  67.235  1.00  0.00    -0.213 C  
ENDBRANCH   4   6
ENDBRANCH   3   4
BRANCH   3   9
HETATM    9  C   UNL     1      -7.095  11.704  67.416  1.00  0.00    -0.124 C  
HETATM   10  H   UNL     1      -7.203  10.616  65.760  1.00  0.00     0.000 HD 
HETATM   11  O   UNL     1      -6.831  11.446  66.032  1.00  0.00     0.045 OA 
BRANCH   9  12
HETATM   12  C   UNL     1      -8.576  11.504  67.743  1.00  0.00    -0.138 A  
HETATM   13  C   UNL     1      -9.658  11.861  66.901  1.00  0.00    -0.208 A  
HETATM   14  C   UNL     1      -9.498  12.591  65.633  1.00  0.00    -0.014 C  
HETATM   15  C   UNL     1     -10.527  12.756  64.792  1.00  0.00    -0.357 C  
HETATM   16  C   UNL     1     -11.871  12.240  65.120  1.00  0.00    -0.350 C  
HETATM   17  N   UNL     1     -12.032  11.694  66.360  1.00  0.00     0.227 N  
HETATM   18  O   UNL     1     -12.794  12.315  64.316  1.00  0.00    -0.648 OA 
HETATM   19  H   UNL     1     -12.973  11.420  66.645  1.00  0.00     0.000 HD 
HETATM   20  C   UNL     1     -10.978  11.487  67.267  1.00  0.00    -0.271 A  
HETATM   21  C   UNL     1     -11.219  10.856  68.491  1.00  0.00    -0.274 A  
HETATM   22  O   UNL     1     -12.472  10.505  68.912  1.00  0.00    -0.776 OA 
HETATM   23  C   UNL     1     -10.170  10.551  69.344  1.00  0.00    -0.245 A  
HETATM   24  H   UNL     1     -12.636  10.077  69.744  1.00  0.00     0.000 HD 
HETATM   25  C   UNL     1      -8.865  10.863  68.969  1.00  0.00    -0.105 A  
ENDBRANCH   9  12
ENDBRANCH   3   9
ENDBRANCH   2   3
TORSDOF 5
ENDMDL
MODEL      262
REMARK 921   NORMALIZED FREE ENERGY PREDICTED BY IDOCK:   -3.03 KCAL/MOL
REMARK 922        TOTAL FREE ENERGY PREDICTED BY IDOCK:   -4.77 KCAL/MOL
REMARK 923 INTER-LIGAND FREE ENERGY PREDICTED BY IDOCK:   -4.50 KCAL/MOL
REMARK 924 INTRA-LIGAND FREE ENERGY PREDICTED BY IDOCK:   -0.27 KCAL/MOL
REMARK 927      BINDING AFFINITY PREDICTED BY RF-SCORE:    0.00 PKD
ROOT
HETATM    1  C   UNL     1     -12.012  11.520  69.580  1.00  0.00    -0.407 C  
HETATM    2  C   UNL     1     -12.015  12.647  68.551  1.00  0.00    -0.258 C  
ENDROOT
BRANCH   2   3
HETATM    3  C   UNL     1     -10.609  13.102  68.073  1.00  0.00    -0.236 C  
BRANCH   3   4
HETATM    4  N   UNL     1     -10.606  14.486  67.535  1.00  0.00    -0.260 NA 
HETATM    5  H   UNL     1     -11.034  15.259  68.044  1.00  0.00     0.000 HD 
BRANCH   4   6
HETATM    6  C   UNL     1      -9.954  14.686  66.234  1.00  0.00    -0.290 C  
HETATM    7  C   UNL     1      -8.964  15.847  66.375  1.00  0.00    -0.361 C  
HETATM    8  C   UNL     1     -10.939  14.984  65.103  1.00  0.00    -0.417 C  
ENDBRANCH   4   6
ENDBRANCH   3   4
BRANCH   3   9
HETATM    9  C   UNL     1     -10.021  12.093  67.020  1.00  0.00    -0.202 C  
HETATM   10  H   UNL     1     -10.711  10.832  65.653  1.00  0.00     0.000 HD 
HETATM   11  O   UNL     1     -11.066  11.442  66.289  1.00  0.00    -0.289 OA 
BRANCH   9  12
HETATM   12  C   UNL     1      -9.013  11.080  67.565  1.00  0.00    -0.137 A  
HETATM   13  C   UNL     1      -9.210   9.678  67.630  1.00  0.00    -0.144 A  
HETATM   14  C   UNL     1     -10.479   9.017  67.285  1.00  0.00    -0.343 C  
HETATM   15  C   UNL     1     -10.566   7.684  67.198  1.00  0.00    -0.410 C  
HETATM   16  C   UNL     1      -9.400   6.823  67.478  1.00  0.00    -0.124 C  
HETATM   17  N   UNL     1      -8.275   7.444  67.934  1.00  0.00    -0.119 N  
HETATM   18  O   UNL     1      -9.453   5.609  67.317  1.00  0.00    -0.112 OA 
HETATM   19  H   UNL     1      -7.490   6.862  68.227  1.00  0.00     0.000 HD 
HETATM   20  C   UNL     1      -8.134   8.841  68.026  1.00  0.00    -0.107 A  
HETATM   21  C   UNL     1      -6.920   9.398  68.439  1.00  0.00    -0.067 A  
HETATM   22  O   UNL     1      -5.862   8.644  68.863  1.00  0.00    -0.039 OA 
HETATM   23  C   UNL     1      -6.737  10.772  68.428  1.00  0.00    -0.059 A  
HETATM   24  H   UNL     1      -5.037   9.023  69.144  1.00  0.00     0.000 HD 
HETATM   25  C   UNL     1      -7.769  11.600  67.988  1.00  0.00    -0.121 A  
ENDBRANCH   9  12
ENDBRANCH   3   9
ENDBRANCH   2   3
TORSDOF 5
ENDMDL
MODEL      263
REMARK 921   NORMALIZED FREE ENERGY PREDICTED BY IDOCK:   -2.99 KCAL/MOL
REMARK 922        TOTAL FREE ENERGY PREDICTED BY IDOCK:   -4.72 KCAL/MOL
REMARK 923 INTER-LIGAND FREE ENERGY PREDICTED BY IDOCK:   -3.95 KCAL/MOL
REMARK 924 INTRA-LIGAND FREE ENERGY PREDICTED BY IDOCK:   -0.77 KCAL/MOL
REMARK 927      BINDING AFFINITY PREDICTED BY RF-SCORE:    0.00 PKD
ROOT
HETATM    1  C   UNL     1      -5.961   4.807  67.102  1.00  0.00    -0.027 C  
HETATM    2  C   UNL     1      -6.212   6.280  67.407  1.00  0.00    -0.029 C  
ENDROOT
BRANCH   2   3
HETATM    3  C   UNL     1      -7.619   6.600  67.983  1.00  0.00    -0.107 C  
BRANCH   3   4
HETATM    4  N   UNL     1      -8.682   6.579  66.947  1.00  0.00    -0.113 NA 
HETATM    5  H   UNL     1      -8.642   7.184  66.127  1.00  0.00     0.000 HD 
BRANCH   4   6
HETATM    6  C   UNL     1      -9.793   5.642  67.161  1.00  0.00    -0.149 C  
HETATM    7  C   UNL     1      -9.784   4.627  66.013  1.00  0.00    -0.208 C  
HETATM    8  C   UNL     1     -11.158   6.328  67.230  1.00  0.00    -0.387 C  
ENDBRANCH   4   6
ENDBRANCH   3   4
BRANCH   3   9
HETATM    9  C   UNL     1      -7.613   7.973  68.748  1.00  0.00    -0.103 C  
HETATM   10  H   UNL     1      -6.481   8.902  70.087  1.00  0.00     0.000 HD 
HETATM   11  O   UNL     1      -6.485   8.072  69.625  1.00  0.00    -0.036 OA 
BRANCH   9  12
HETATM   12  C   UNL     1      -8.911   8.334  69.474  1.00  0.00    -0.149 A  
HETATM   13  C   UNL     1      -9.598   7.500  70.390  1.00  0.00    -0.168 A  
HETATM   14  C   UNL     1      -9.208   6.110  70.678  1.00  0.00    -0.163 C  
HETATM   15  C   UNL     1      -9.780   5.420  71.672  1.00  0.00    -0.204 C  
HETATM   16  C   UNL     1     -10.849   6.016  72.498  1.00  0.00    -0.247 C  
HETATM   17  N   UNL     1     -11.295   7.250  72.126  1.00  0.00    -0.256 N  
HETATM   18  O   UNL     1     -11.315   5.419  73.462  1.00  0.00    -0.225 OA 
HETATM   19  H   UNL     1     -12.097   7.640  72.621  1.00  0.00     0.000 HD 
HETATM   20  C   UNL     1     -10.714   8.016  71.100  1.00  0.00    -0.220 A  
HETATM   21  C   UNL     1     -11.189   9.303  70.829  1.00  0.00    -0.288 A  
HETATM   22  O   UNL     1     -12.280   9.839  71.455  1.00  0.00    -0.355 OA 
HETATM   23  C   UNL     1     -10.553  10.106  69.895  1.00  0.00    -0.331 A  
HETATM   24  H   UNL     1     -12.603  10.713  71.271  1.00  0.00     0.000 HD 
HETATM   25  C   UNL     1      -9.423   9.629  69.233  1.00  0.00    -0.184 A  
ENDBRANCH   9  12
ENDBRANCH   3   9
ENDBRANCH   2   3
TORSDOF 5
ENDMDL
MODEL      264
REMARK 921   NORMALIZED FREE ENERGY PREDICTED BY IDOCK:   -2.96 KCAL/MOL
REMARK 922        TOTAL FREE ENERGY PREDICTED BY IDOCK:   -4.68 KCAL/MOL
REMARK 923 INTER-LIGAND FREE ENERGY PREDICTED BY IDOCK:   -4.82 KCAL/MOL
REMARK 924 INTRA-LIGAND FREE ENERGY PREDICTED BY IDOCK:    0.15 KCAL/MOL
REMARK 927      BINDING AFFINITY PREDICTED BY RF-SCORE:    0.00 PKD
ROOT
HETATM    1  C   UNL     1     -11.939  14.890  68.707  1.00  0.00    -0.284 C  
HETATM    2  C   UNL     1     -10.893  13.789  68.568  1.00  0.00    -0.280 C  
ENDROOT
BRANCH   2   3
HETATM    3  C   UNL     1     -10.760  13.185  67.143  1.00  0.00    -0.255 C  
BRANCH   3   4
HETATM    4  N   UNL     1     -12.049  12.673  66.614  1.00  0.00    -0.539 NA 
HETATM    5  H   UNL     1     -12.579  11.951  67.103  1.00  0.00     0.000 HD 
BRANCH   4   6
HETATM    6  C   UNL     1     -12.523  13.257  65.353  1.00  0.00    -0.489 C  
HETATM    7  C   UNL     1     -12.480  12.164  64.280  1.00  0.00    -0.461 C  
HETATM    8  C   UNL     1     -11.699  14.460  64.894  1.00  0.00    -0.408 C  
ENDBRANCH   4   6
ENDBRANCH   3   4
BRANCH   3   9
HETATM    9  C   UNL     1      -9.658  12.064  67.109  1.00  0.00    -0.192 C  
HETATM   10  H   UNL     1      -8.791  10.899  65.757  1.00  0.00     0.000 HD 
HETATM   11  O   UNL     1      -9.457  11.577  65.778  1.00  0.00    -0.227 OA 
BRANCH   9  12
HETATM   12  C   UNL     1      -9.855  10.911  68.096  1.00  0.00    -0.187 A  
HETATM   13  C   UNL     1      -8.855   9.990  68.493  1.00  0.00    -0.120 A  
HETATM   14  C   UNL     1      -7.504   9.951  67.908  1.00  0.00    -0.089 C  
HETATM   15  C   UNL     1      -6.543   9.180  68.431  1.00  0.00    -0.059 C  
HETATM   16  C   UNL     1      -6.809   8.313  69.596  1.00  0.00    -0.044 C  
HETATM   17  N   UNL     1      -8.100   8.255  70.034  1.00  0.00    -0.113 N  
HETATM   18  O   UNL     1      -5.911   7.671  70.129  1.00  0.00    -0.024 OA 
HETATM   19  H   UNL     1      -8.326   7.590  70.774  1.00  0.00     0.000 HD 
HETATM   20  C   UNL     1      -9.136   9.057  69.525  1.00  0.00    -0.151 A  
HETATM   21  C   UNL     1     -10.418   8.984  70.080  1.00  0.00    -0.214 A  
HETATM   22  O   UNL     1     -10.757   8.083  71.051  1.00  0.00    -0.216 OA 
HETATM   23  C   UNL     1     -11.417   9.847  69.659  1.00  0.00    -0.160 A  
HETATM   24  H   UNL     1     -11.628   8.033  71.427  1.00  0.00     0.000 HD 
HETATM   25  C   UNL     1     -11.135  10.804  68.685  1.00  0.00    -0.312 A  
ENDBRANCH   9  12
ENDBRANCH   3   9
ENDBRANCH   2   3
TORSDOF 5
ENDMDL
MODEL      265
REMARK 921   NORMALIZED FREE ENERGY PREDICTED BY IDOCK:   -2.95 KCAL/MOL
REMARK 922        TOTAL FREE ENERGY PREDICTED BY IDOCK:   -4.66 KCAL/MOL
REMARK 923 INTER-LIGAND FREE ENERGY PREDICTED BY IDOCK:   -3.37 KCAL/MOL
REMARK 924 INTRA-LIGAND FREE ENERGY PREDICTED BY IDOCK:   -1.28 KCAL/MOL
REMARK 927      BINDING AFFINITY PREDICTED BY RF-SCORE:    0.00 PKD
ROOT
HETATM    1  C   UNL     1      -8.990  11.568  68.335  1.00  0.00    -0.173 C  
HETATM    2  C   UNL     1      -9.793  10.336  67.929  1.00  0.00    -0.181 C  
ENDROOT
BRANCH   2   3
HETATM    3  C   UNL     1      -9.775   9.172  68.958  1.00  0.00    -0.166 C  
BRANCH   3   4
HETATM    4  N   UNL     1      -9.499   9.634  70.342  1.00  0.00    -0.302 NA 
HETATM    5  H   UNL     1      -8.643  10.136  70.578  1.00  0.00     0.000 HD 
BRANCH   4   6
HETATM    6  C   UNL     1     -10.521   9.333  71.354  1.00  0.00    -0.338 C  
HETATM    7  C   UNL     1      -9.876   8.451  72.429  1.00  0.00    -0.378 C  
HETATM    8  C   UNL     1     -11.751   8.629  70.781  1.00  0.00    -0.239 C  
ENDBRANCH   4   6
ENDBRANCH   3   4
BRANCH   3   9
HETATM    9  C   UNL     1      -8.751   8.059  68.528  1.00  0.00    -0.131 C  
HETATM   10  H   UNL     1      -8.211   7.129  66.860  1.00  0.00     0.000 HD 
HETATM   11  O   UNL     1      -8.829   7.801  67.121  1.00  0.00    -0.122 OA 
BRANCH   9  12
HETATM   12  C   UNL     1      -8.809   6.759  69.332  1.00  0.00    -0.135 A  
HETATM   13  C   UNL     1      -7.905   6.387  70.358  1.00  0.00    -0.107 A  
HETATM   14  C   UNL     1      -6.703   7.163  70.706  1.00  0.00    -0.052 C  
HETATM   15  C   UNL     1      -5.975   6.866  71.789  1.00  0.00    -0.037 C  
HETATM   16  C   UNL     1      -6.330   5.727  72.659  1.00  0.00    -0.053 C  
HETATM   17  N   UNL     1      -7.358   4.934  72.241  1.00  0.00    -0.081 N  
HETATM   18  O   UNL     1      -5.716   5.504  73.697  1.00  0.00    -0.027 OA 
HETATM   19  H   UNL     1      -7.558   4.087  72.773  1.00  0.00     0.000 HD 
HETATM   20  C   UNL     1      -8.159   5.217  71.120  1.00  0.00    -0.109 A  
HETATM   21  C   UNL     1      -9.240   4.388  70.803  1.00  0.00    -0.138 A  
HETATM   22  O   UNL     1      -9.514   3.232  71.479  1.00  0.00    -0.123 OA 
HETATM   23  C   UNL     1     -10.099   4.719  69.766  1.00  0.00    -0.289 A  
HETATM   24  H   UNL     1     -10.247   2.669  71.263  1.00  0.00     0.000 HD 
HETATM   25  C   UNL     1      -9.890   5.894  69.047  1.00  0.00    -0.193 A  
ENDBRANCH   9  12
ENDBRANCH   3   9
ENDBRANCH   2   3
TORSDOF 5
ENDMDL
MODEL      266
REMARK 921   NORMALIZED FREE ENERGY PREDICTED BY IDOCK:   -2.94 KCAL/MOL
REMARK 922        TOTAL FREE ENERGY PREDICTED BY IDOCK:   -4.64 KCAL/MOL
REMARK 923 INTER-LIGAND FREE ENERGY PREDICTED BY IDOCK:   -4.09 KCAL/MOL
REMARK 924 INTRA-LIGAND FREE ENERGY PREDICTED BY IDOCK:   -0.56 KCAL/MOL
REMARK 927      BINDING AFFINITY PREDICTED BY RF-SCORE:    0.00 PKD
ROOT
HETATM    1  C   UNL     1      -7.332   5.044  68.882  1.00  0.00    -0.058 C  
HETATM    2  C   UNL     1      -8.092   5.269  70.185  1.00  0.00    -0.087 C  
ENDROOT
BRANCH   2   3
HETATM    3  C   UNL     1      -7.230   5.798  71.365  1.00  0.00    -0.078 C  
BRANCH   3   4
HETATM    4  N   UNL     1      -7.462   5.050  72.626  1.00  0.00    -0.092 NA 
HETATM    5  H   UNL     1      -8.303   5.191  73.185  1.00  0.00     0.000 HD 
BRANCH   4   6
HETATM    6  C   UNL     1      -6.420   4.097  73.028  1.00  0.00    -0.040 C  
HETATM    7  C   UNL     1      -5.148   4.425  72.239  1.00  0.00    -0.004 C  
HETATM    8  C   UNL     1      -6.810   2.637  72.791  1.00  0.00    -0.026 C  
ENDBRANCH   4   6
ENDBRANCH   3   4
BRANCH   3   9
HETATM    9  C   UNL     1      -7.460   7.339  71.580  1.00  0.00    -0.082 C  
HETATM   10  H   UNL     1      -6.701   8.794  72.696  1.00  0.00     0.000 HD 
HETATM   11  O   UNL     1      -6.562   7.863  72.565  1.00  0.00    -0.061 OA 
BRANCH   9  12
HETATM   12  C   UNL     1      -8.903   7.760  71.866  1.00  0.00    -0.155 A  
HETATM   13  C   UNL     1      -9.683   8.621  71.056  1.00  0.00    -0.266 A  
HETATM   14  C   UNL     1      -9.158   9.327  69.875  1.00  0.00    -0.203 C  
HETATM   15  C   UNL     1      -9.971   9.992  69.046  1.00  0.00    -0.203 C  
HETATM   16  C   UNL     1     -11.423  10.071  69.300  1.00  0.00    -0.055 C  
HETATM   17  N   UNL     1     -11.870   9.534  70.472  1.00  0.00    -0.410 N  
HETATM   18  O   UNL     1     -12.181  10.606  68.499  1.00  0.00    -0.382 OA 
HETATM   19  H   UNL     1     -12.853   9.662  70.715  1.00  0.00     0.000 HD 
HETATM   20  C   UNL     1     -11.055   8.814  71.364  1.00  0.00    -0.291 A  
HETATM   21  C   UNL     1     -11.609   8.236  72.510  1.00  0.00    -0.385 A  
HETATM   22  O   UNL     1     -12.914   8.415  72.876  1.00  0.00    -0.655 OA 
HETATM   23  C   UNL     1     -10.838   7.435  73.337  1.00  0.00    -0.362 A  
HETATM   24  H   UNL     1     -13.291   8.023  73.655  1.00  0.00     0.000 HD 
HETATM   25  C   UNL     1      -9.504   7.194  73.013  1.00  0.00    -0.193 A  
ENDBRANCH   9  12
ENDBRANCH   3   9
ENDBRANCH   2   3
TORSDOF 5
ENDMDL
MODEL      267
REMARK 921   NORMALIZED FREE ENERGY PREDICTED BY IDOCK:   -2.93 KCAL/MOL
REMARK 922        TOTAL FREE ENERGY PREDICTED BY IDOCK:   -4.63 KCAL/MOL
REMARK 923 INTER-LIGAND FREE ENERGY PREDICTED BY IDOCK:   -5.83 KCAL/MOL
REMARK 924 INTRA-LIGAND FREE ENERGY PREDICTED BY IDOCK:    1.20 KCAL/MOL
REMARK 927      BINDING AFFINITY PREDICTED BY RF-SCORE:    0.00 PKD
ROOT
HETATM    1  C   UNL     1      -8.723   7.383  71.735  1.00  0.00    -0.125 C  
HETATM    2  C   UNL     1     -10.015   6.574  71.806  1.00  0.00    -0.192 C  
ENDROOT
BRANCH   2   3
HETATM    3  C   UNL     1     -11.004   6.813  70.632  1.00  0.00    -0.267 C  
BRANCH   3   4
HETATM    4  N   UNL     1     -10.977   5.721  69.627  1.00  0.00    -0.358 NA 
HETATM    5  H   UNL     1     -11.777   5.529  69.024  1.00  0.00     0.000 HD 
BRANCH   4   6
HETATM    6  C   UNL     1      -9.742   4.931  69.544  1.00  0.00    -0.195 C  
HETATM    7  C   UNL     1      -9.350   4.819  68.067  1.00  0.00    -0.168 C  
HETATM    8  C   UNL     1      -9.876   3.533  70.148  1.00  0.00    -0.025 C  
ENDBRANCH   4   6
ENDBRANCH   3   4
BRANCH   3   9
HETATM    9  C   UNL     1     -10.738   8.205  69.950  1.00  0.00    -0.241 C  
HETATM   10  H   UNL     1      -9.174   9.311  69.433  1.00  0.00     0.000 HD 
HETATM   11  O   UNL     1      -9.335   8.470  69.845  1.00  0.00    -0.156 OA 
BRANCH   9  12
HETATM   12  C   UNL     1     -11.481   9.395  70.561  1.00  0.00    -0.317 A  
HETATM   13  C   UNL     1     -11.435  10.727  70.080  1.00  0.00    -0.415 A  
HETATM   14  C   UNL     1     -10.557  11.167  68.983  1.00  0.00    -0.251 C  
HETATM   15  C   UNL     1     -10.671  12.391  68.452  1.00  0.00    -0.254 C  
HETATM   16  C   UNL     1     -11.659  13.358  68.968  1.00  0.00    -0.312 C  
HETATM   17  N   UNL     1     -12.362  12.984  70.075  1.00  0.00    -0.208 N  
HETATM   18  O   UNL     1     -11.824  14.447  68.429  1.00  0.00    -0.316 OA 
HETATM   19  H   UNL     1     -12.980  13.672  70.507  1.00  0.00     0.000 HD 
HETATM   20  C   UNL     1     -12.287  11.705  70.656  1.00  0.00    -0.344 A  
HETATM   21  C   UNL     1     -13.096  11.382  71.749  1.00  0.00    -0.418 A  
HETATM   22  O   UNL     1     -13.910  12.291  72.366  1.00  0.00    -0.481 OA 
HETATM   23  C   UNL     1     -13.107  10.093  72.259  1.00  0.00    -0.350 A  
HETATM   24  H   UNL     1     -14.459  12.071  73.109  1.00  0.00     0.000 HD 
HETATM   25  C   UNL     1     -12.316   9.111  71.665  1.00  0.00    -0.434 A  
ENDBRANCH   9  12
ENDBRANCH   3   9
ENDBRANCH   2   3
TORSDOF 5
ENDMDL
MODEL      268
REMARK 921   NORMALIZED FREE ENERGY PREDICTED BY IDOCK:   -2.93 KCAL/MOL
REMARK 922        TOTAL FREE ENERGY PREDICTED BY IDOCK:   -4.63 KCAL/MOL
REMARK 923 INTER-LIGAND FREE ENERGY PREDICTED BY IDOCK:   -4.54 KCAL/MOL
REMARK 924 INTRA-LIGAND FREE ENERGY PREDICTED BY IDOCK:   -0.09 KCAL/MOL
REMARK 927      BINDING AFFINITY PREDICTED BY RF-SCORE:    0.00 PKD
ROOT
HETATM    1  C   UNL     1     -12.227  10.116  70.630  1.00  0.00    -0.394 C  
HETATM    2  C   UNL     1     -10.893   9.574  71.136  1.00  0.00    -0.425 C  
ENDROOT
BRANCH   2   3
HETATM    3  C   UNL     1     -10.229   8.509  70.221  1.00  0.00    -0.193 C  
BRANCH   3   4
HETATM    4  N   UNL     1      -9.532   9.107  69.055  1.00  0.00    -0.150 NA 
HETATM    5  H   UNL     1      -8.609   8.789  68.762  1.00  0.00     0.000 HD 
BRANCH   4   6
HETATM    6  C   UNL     1     -10.239  10.181  68.344  1.00  0.00    -0.169 C  
HETATM    7  C   UNL     1     -10.411   9.747  66.884  1.00  0.00    -0.281 C  
HETATM    8  C   UNL     1      -9.512  11.525  68.399  1.00  0.00    -0.195 C  
ENDBRANCH   4   6
ENDBRANCH   3   4
BRANCH   3   9
HETATM    9  C   UNL     1     -11.281   7.438  69.753  1.00  0.00    -0.091 C  
HETATM   10  H   UNL     1     -12.597   6.211  70.589  1.00  0.00     0.000 HD 
HETATM   11  O   UNL     1     -11.962   6.858  70.871  1.00  0.00    -0.352 OA 
BRANCH   9  12
HETATM   12  C   UNL     1     -10.751   6.358  68.808  1.00  0.00    -0.339 A  
HETATM   13  C   UNL     1      -9.919   5.274  69.183  1.00  0.00    -0.275 A  
HETATM   14  C   UNL     1      -9.352   5.111  70.532  1.00  0.00    -0.210 C  
HETATM   15  C   UNL     1      -8.715   3.988  70.886  1.00  0.00    -0.118 C  
HETATM   16  C   UNL     1      -8.528   2.882  69.927  1.00  0.00    -0.054 C  
HETATM   17  N   UNL     1      -8.933   3.108  68.644  1.00  0.00    -0.120 N  
HETATM   18  O   UNL     1      -8.021   1.820  70.272  1.00  0.00    -0.042 OA 
HETATM   19  H   UNL     1      -8.725   2.396  67.943  1.00  0.00     0.000 HD 
HETATM   20  C   UNL     1      -9.619   4.264  68.232  1.00  0.00    -0.135 A  
HETATM   21  C   UNL     1     -10.060   4.385  66.911  1.00  0.00    -0.120 A  
HETATM   22  O   UNL     1      -9.772   3.463  65.944  1.00  0.00    -0.364 OA 
HETATM   23  C   UNL     1     -10.830   5.470  66.523  1.00  0.00    -0.237 A  
HETATM   24  H   UNL     1     -10.072   3.545  65.046  1.00  0.00     0.000 HD 
HETATM   25  C   UNL     1     -11.178   6.439  67.463  1.00  0.00    -0.278 A  
ENDBRANCH   9  12
ENDBRANCH   3   9
ENDBRANCH   2   3
TORSDOF 5
ENDMDL
MODEL      269
REMARK 921   NORMALIZED FREE ENERGY PREDICTED BY IDOCK:   -2.92 KCAL/MOL
REMARK 922        TOTAL FREE ENERGY PREDICTED BY IDOCK:   -4.62 KCAL/MOL
REMARK 923 INTER-LIGAND FREE ENERGY PREDICTED BY IDOCK:   -3.76 KCAL/MOL
REMARK 924 INTRA-LIGAND FREE ENERGY PREDICTED BY IDOCK:   -0.87 KCAL/MOL
REMARK 927      BINDING AFFINITY PREDICTED BY RF-SCORE:    0.00 PKD
ROOT
HETATM    1  C   UNL     1      -8.168  17.689  68.326  1.00  0.00    -0.276 C  
HETATM    2  C   UNL     1      -9.056  16.500  67.973  1.00  0.00    -0.209 C  
ENDROOT
BRANCH   2   3
HETATM    3  C   UNL     1      -8.500  15.115  68.404  1.00  0.00    -0.157 C  
BRANCH   3   4
HETATM    4  N   UNL     1      -7.031  15.127  68.616  1.00  0.00    -0.109 NA 
HETATM    5  H   UNL     1      -6.437  15.847  68.205  1.00  0.00     0.000 HD 
BRANCH   4   6
HETATM    6  C   UNL     1      -6.475  14.051  69.447  1.00  0.00    -0.118 C  
HETATM    7  C   UNL     1      -6.130  14.642  70.818  1.00  0.00    -0.115 C  
HETATM    8  C   UNL     1      -5.233  13.397  68.842  1.00  0.00    -0.073 C  
ENDBRANCH   4   6
ENDBRANCH   3   4
BRANCH   3   9
HETATM    9  C   UNL     1      -8.905  14.002  67.371  1.00  0.00    -0.206 C  
HETATM   10  H   UNL     1      -9.550  13.904  65.497  1.00  0.00     0.000 HD 
HETATM   11  O   UNL     1      -9.305  14.576  66.121  1.00  0.00    -0.277 OA 
BRANCH   9  12
HETATM   12  C   UNL     1      -9.933  12.981  67.864  1.00  0.00    -0.230 A  
HETATM   13  C   UNL     1      -9.631  11.724  68.443  1.00  0.00    -0.191 A  
HETATM   14  C   UNL     1      -8.267  11.178  68.537  1.00  0.00    -0.149 C  
HETATM   15  C   UNL     1      -8.011  10.068  69.241  1.00  0.00    -0.130 C  
HETATM   16  C   UNL     1      -9.092   9.331  69.924  1.00  0.00    -0.191 C  
HETATM   17  N   UNL     1     -10.365   9.770  69.707  1.00  0.00    -0.227 N  
HETATM   18  O   UNL     1      -8.850   8.365  70.639  1.00  0.00    -0.135 OA 
HETATM   19  H   UNL     1     -11.135   9.219  70.089  1.00  0.00     0.000 HD 
HETATM   20  C   UNL     1     -10.678  10.938  68.989  1.00  0.00    -0.224 A  
HETATM   21  C   UNL     1     -12.008  11.355  68.873  1.00  0.00    -0.304 A  
HETATM   22  O   UNL     1     -13.061  10.623  69.348  1.00  0.00    -0.475 OA 
HETATM   23  C   UNL     1     -12.317  12.560  68.261  1.00  0.00     0.367 A  
HETATM   24  H   UNL     1     -13.964  10.906  69.269  1.00  0.00     0.000 HD 
HETATM   25  C   UNL     1     -11.290  13.366  67.771  1.00  0.00    -0.325 A  
ENDBRANCH   9  12
ENDBRANCH   3   9
ENDBRANCH   2   3
TORSDOF 5
ENDMDL
MODEL      270
REMARK 921   NORMALIZED FREE ENERGY PREDICTED BY IDOCK:   -2.90 KCAL/MOL
REMARK 922        TOTAL FREE ENERGY PREDICTED BY IDOCK:   -4.60 KCAL/MOL
REMARK 923 INTER-LIGAND FREE ENERGY PREDICTED BY IDOCK:   -4.50 KCAL/MOL
REMARK 924 INTRA-LIGAND FREE ENERGY PREDICTED BY IDOCK:   -0.09 KCAL/MOL
REMARK 927      BINDING AFFINITY PREDICTED BY RF-SCORE:    0.00 PKD
ROOT
HETATM    1  C   UNL     1     -10.619   6.766  68.438  1.00  0.00    -0.270 C  
HETATM    2  C   UNL     1     -10.515   7.820  69.537  1.00  0.00    -0.225 C  
ENDROOT
BRANCH   2   3
HETATM    3  C   UNL     1     -10.263   9.268  69.034  1.00  0.00    -0.206 C  
BRANCH   3   4
HETATM    4  N   UNL     1      -9.382  10.045  69.941  1.00  0.00    -0.348 NA 
HETATM    5  H   UNL     1      -9.586  10.138  70.936  1.00  0.00     0.000 HD 
BRANCH   4   6
HETATM    6  C   UNL     1      -8.200  10.673  69.334  1.00  0.00    -0.078 C  
HETATM    7  C   UNL     1      -7.822   9.864  68.089  1.00  0.00    -0.085 C  
HETATM    8  C   UNL     1      -7.002  10.749  70.281  1.00  0.00     0.120 C  
ENDBRANCH   4   6
ENDBRANCH   3   4
BRANCH   3   9
HETATM    9  C   UNL     1     -11.622  10.022  68.796  1.00  0.00     0.119 C  
HETATM   10  H   UNL     1     -12.405  11.243  67.441  1.00  0.00     0.000 HD 
HETATM   11  O   UNL     1     -11.584  10.786  67.585  1.00  0.00    -0.523 OA 
BRANCH   9  12
HETATM   12  C   UNL     1     -12.125  10.868  69.968  1.00  0.00    -0.433 A  
HETATM   13  C   UNL     1     -12.185  12.283  69.993  1.00  0.00    -0.267 A  
HETATM   14  C   UNL     1     -11.652  13.141  68.922  1.00  0.00    -0.354 C  
HETATM   15  C   UNL     1     -11.882  14.460  68.910  1.00  0.00    -0.355 C  
HETATM   16  C   UNL     1     -12.653  15.110  69.987  1.00  0.00    -0.225 C  
HETATM   17  N   UNL     1     -13.015  14.325  71.042  1.00  0.00    -0.342 N  
HETATM   18  O   UNL     1     -12.938  16.302  69.935  1.00  0.00     0.362 OA 
HETATM   19  H   UNL     1     -13.463  14.772  71.843  1.00  0.00     0.000 HD 
HETATM   20  C   UNL     1     -12.808  12.934  71.090  1.00  0.00    -0.238 A  
HETATM   21  C   UNL     1     -13.274  12.193  72.180  1.00  0.00    -0.333 A  
HETATM   22  O   UNL     1     -13.850  12.767  73.279  1.00  0.00     0.026 OA 
HETATM   23  C   UNL     1     -13.171  10.810  72.186  1.00  0.00    -0.360 A  
HETATM   24  H   UNL     1     -14.166  12.263  74.019  1.00  0.00     0.000 HD 
HETATM   25  C   UNL     1     -12.611  10.157  71.089  1.00  0.00    -0.486 A  
ENDBRANCH   9  12
ENDBRANCH   3   9
ENDBRANCH   2   3
TORSDOF 5
ENDMDL
MODEL      271
REMARK 921   NORMALIZED FREE ENERGY PREDICTED BY IDOCK:   -2.89 KCAL/MOL
REMARK 922        TOTAL FREE ENERGY PREDICTED BY IDOCK:   -4.59 KCAL/MOL
REMARK 923 INTER-LIGAND FREE ENERGY PREDICTED BY IDOCK:   -3.57 KCAL/MOL
REMARK 924 INTRA-LIGAND FREE ENERGY PREDICTED BY IDOCK:   -1.02 KCAL/MOL
REMARK 927      BINDING AFFINITY PREDICTED BY RF-SCORE:    0.00 PKD
ROOT
HETATM    1  C   UNL     1      -8.747  11.887  68.412  1.00  0.00    -0.157 C  
HETATM    2  C   UNL     1      -9.336  10.608  67.825  1.00  0.00    -0.154 C  
ENDROOT
BRANCH   2   3
HETATM    3  C   UNL     1      -9.282   9.371  68.763  1.00  0.00    -0.132 C  
BRANCH   3   4
HETATM    4  N   UNL     1      -9.163   9.741  70.195  1.00  0.00    -0.312 NA 
HETATM    5  H   UNL     1      -8.506  10.453  70.511  1.00  0.00     0.000 HD 
BRANCH   4   6
HETATM    6  C   UNL     1     -10.041   9.031  71.135  1.00  0.00    -0.295 C  
HETATM    7  C   UNL     1      -9.156   8.246  72.108  1.00  0.00    -0.279 C  
HETATM    8  C   UNL     1     -11.020   8.079  70.448  1.00  0.00    -0.248 C  
ENDBRANCH   4   6
ENDBRANCH   3   4
BRANCH   3   9
HETATM    9  C   UNL     1      -8.121   8.397  68.341  1.00  0.00    -0.123 C  
HETATM   10  H   UNL     1      -6.479   8.467  67.229  1.00  0.00     0.000 HD 
HETATM   11  O   UNL     1      -7.180   9.055  67.485  1.00  0.00    -0.078 OA 
BRANCH   9  12
HETATM   12  C   UNL     1      -8.563   7.056  67.750  1.00  0.00    -0.122 A  
HETATM   13  C   UNL     1      -8.725   5.852  68.478  1.00  0.00    -0.112 A  
HETATM   14  C   UNL     1      -8.371   5.705  69.900  1.00  0.00    -0.117 C  
HETATM   15  C   UNL     1      -8.699   4.604  70.586  1.00  0.00    -0.129 C  
HETATM   16  C   UNL     1      -9.401   3.479  69.936  1.00  0.00    -0.177 C  
HETATM   17  N   UNL     1      -9.593   3.573  68.589  1.00  0.00    -0.129 N  
HETATM   18  O   UNL     1      -9.778   2.507  70.581  1.00  0.00    -0.121 OA 
HETATM   19  H   UNL     1      -9.987   2.768  68.103  1.00  0.00     0.000 HD 
HETATM   20  C   UNL     1      -9.278   4.716  67.832  1.00  0.00    -0.127 A  
HETATM   21  C   UNL     1      -9.573   4.755  66.465  1.00  0.00    -0.175 A  
HETATM   22  O   UNL     1     -10.074   3.682  65.782  1.00  0.00    -0.409 OA 
HETATM   23  C   UNL     1      -9.367   5.915  65.734  1.00  0.00    -0.018 A  
HETATM   24  H   UNL     1     -10.274   3.709  64.854  1.00  0.00     0.000 HD 
HETATM   25  C   UNL     1      -8.877   7.053  66.372  1.00  0.00    -0.158 A  
ENDBRANCH   9  12
ENDBRANCH   3   9
ENDBRANCH   2   3
TORSDOF 5
ENDMDL
MODEL      272
REMARK 921   NORMALIZED FREE ENERGY PREDICTED BY IDOCK:   -2.89 KCAL/MOL
REMARK 922        TOTAL FREE ENERGY PREDICTED BY IDOCK:   -4.59 KCAL/MOL
REMARK 923 INTER-LIGAND FREE ENERGY PREDICTED BY IDOCK:   -3.64 KCAL/MOL
REMARK 924 INTRA-LIGAND FREE ENERGY PREDICTED BY IDOCK:   -0.95 KCAL/MOL
REMARK 927      BINDING AFFINITY PREDICTED BY RF-SCORE:    0.00 PKD
ROOT
HETATM    1  C   UNL     1      -9.481   3.464  64.727  1.00  0.00    -0.155 C  
HETATM    2  C   UNL     1      -8.775   4.666  65.347  1.00  0.00    -0.134 C  
ENDROOT
BRANCH   2   3
HETATM    3  C   UNL     1      -8.939   4.801  66.886  1.00  0.00    -0.111 C  
BRANCH   3   4
HETATM    4  N   UNL     1      -9.292   3.516  67.540  1.00  0.00    -0.196 NA 
HETATM    5  H   UNL     1     -10.144   3.010  67.300  1.00  0.00     0.000 HD 
BRANCH   4   6
HETATM    6  C   UNL     1      -8.354   3.011  68.551  1.00  0.00    -0.065 C  
HETATM    7  C   UNL     1      -9.150   2.701  69.823  1.00  0.00    -0.189 C  
HETATM    8  C   UNL     1      -7.227   3.991  68.876  1.00  0.00    -0.054 C  
ENDBRANCH   4   6
ENDBRANCH   3   4
BRANCH   3   9
HETATM    9  C   UNL     1      -9.989   5.916  67.242  1.00  0.00    -0.153 C  
HETATM   10  H   UNL     1     -10.502   7.714  66.579  1.00  0.00     0.000 HD 
HETATM   11  O   UNL     1      -9.867   7.040  66.364  1.00  0.00    -0.140 OA 
BRANCH   9  12
HETATM   12  C   UNL     1     -10.014   6.358  68.707  1.00  0.00    -0.165 A  
HETATM   13  C   UNL     1      -9.024   7.145  69.344  1.00  0.00    -0.136 A  
HETATM   14  C   UNL     1      -7.762   7.547  68.700  1.00  0.00    -0.119 C  
HETATM   15  C   UNL     1      -6.937   8.428  69.278  1.00  0.00    -0.054 C  
HETATM   16  C   UNL     1      -7.245   9.007  70.601  1.00  0.00    -0.093 C  
HETATM   17  N   UNL     1      -8.342   8.517  71.245  1.00  0.00    -0.141 N  
HETATM   18  O   UNL     1      -6.535   9.877  71.094  1.00  0.00    -0.280 OA 
HETATM   19  H   UNL     1      -8.520   8.830  72.199  1.00  0.00     0.000 HD 
HETATM   20  C   UNL     1      -9.244   7.603  70.670  1.00  0.00    -0.162 A  
HETATM   21  C   UNL     1     -10.384   7.204  71.374  1.00  0.00    -0.196 A  
HETATM   22  O   UNL     1     -10.632   7.585  72.663  1.00  0.00    -0.235 OA 
HETATM   23  C   UNL     1     -11.333   6.391  70.774  1.00  0.00    -0.411 A  
HETATM   24  H   UNL     1     -11.407   7.314  73.142  1.00  0.00     0.000 HD 
HETATM   25  C   UNL     1     -11.153   5.981  69.455  1.00  0.00    -0.445 A  
ENDBRANCH   9  12
ENDBRANCH   3   9
ENDBRANCH   2   3
TORSDOF 5
ENDMDL
MODEL      273
REMARK 921   NORMALIZED FREE ENERGY PREDICTED BY IDOCK:   -2.88 KCAL/MOL
REMARK 922        TOTAL FREE ENERGY PREDICTED BY IDOCK:   -4.57 KCAL/MOL
REMARK 923 INTER-LIGAND FREE ENERGY PREDICTED BY IDOCK:   -3.98 KCAL/MOL
REMARK 924 INTRA-LIGAND FREE ENERGY PREDICTED BY IDOCK:   -0.59 KCAL/MOL
REMARK 927      BINDING AFFINITY PREDICTED BY RF-SCORE:    0.00 PKD
ROOT
HETATM    1  C   UNL     1      -8.515  16.075  67.280  1.00  0.00    -0.206 C  
HETATM    2  C   UNL     1      -9.206  15.193  66.244  1.00  0.00    -0.336 C  
ENDROOT
BRANCH   2   3
HETATM    3  C   UNL     1      -9.791  13.865  66.798  1.00  0.00    -0.274 C  
BRANCH   3   4
HETATM    4  N   UNL     1     -10.109  13.938  68.246  1.00  0.00    -0.235 NA 
HETATM    5  H   UNL     1      -9.379  13.895  68.957  1.00  0.00     0.000 HD 
BRANCH   4   6
HETATM    6  C   UNL     1     -11.527  14.075  68.604  1.00  0.00    -0.302 C  
HETATM    7  C   UNL     1     -11.898  12.907  69.525  1.00  0.00    -0.383 C  
HETATM    8  C   UNL     1     -12.459  14.090  67.392  1.00  0.00     0.035 C  
ENDBRANCH   4   6
ENDBRANCH   3   4
BRANCH   3   9
HETATM    9  C   UNL     1      -8.826  12.660  66.499  1.00  0.00    -0.062 C  
HETATM   10  H   UNL     1      -8.771  11.091  65.285  1.00  0.00     0.000 HD 
HETATM   11  O   UNL     1      -9.354  11.819  65.466  1.00  0.00    -0.208 OA 
BRANCH   9  12
HETATM   12  C   UNL     1      -8.395  11.838  67.715  1.00  0.00    -0.146 A  
HETATM   13  C   UNL     1      -9.041  10.669  68.187  1.00  0.00    -0.148 A  
HETATM   14  C   UNL     1     -10.301  10.152  67.628  1.00  0.00    -0.265 C  
HETATM   15  C   UNL     1     -10.783   8.956  67.990  1.00  0.00    -0.168 C  
HETATM   16  C   UNL     1     -10.085   8.123  68.989  1.00  0.00    -0.205 C  
HETATM   17  N   UNL     1      -9.000   8.680  69.601  1.00  0.00    -0.143 N  
HETATM   18  O   UNL     1     -10.476   6.993  69.260  1.00  0.00    -0.197 OA 
HETATM   19  H   UNL     1      -8.560   8.163  70.363  1.00  0.00     0.000 HD 
HETATM   20  C   UNL     1      -8.451   9.924  69.241  1.00  0.00    -0.158 A  
HETATM   21  C   UNL     1      -7.294  10.389  69.873  1.00  0.00    -0.142 A  
HETATM   22  O   UNL     1      -6.701   9.733  70.915  1.00  0.00    -0.220 OA 
HETATM   23  C   UNL     1      -6.685  11.561  69.451  1.00  0.00    -0.116 A  
HETATM   24  H   UNL     1      -5.915  10.049  71.345  1.00  0.00     0.000 HD 
HETATM   25  C   UNL     1      -7.225  12.270  68.380  1.00  0.00    -0.102 A  
ENDBRANCH   9  12
ENDBRANCH   3   9
ENDBRANCH   2   3
TORSDOF 5
ENDMDL
MODEL      274
REMARK 921   NORMALIZED FREE ENERGY PREDICTED BY IDOCK:   -2.88 KCAL/MOL
REMARK 922        TOTAL FREE ENERGY PREDICTED BY IDOCK:   -4.57 KCAL/MOL
REMARK 923 INTER-LIGAND FREE ENERGY PREDICTED BY IDOCK:   -3.80 KCAL/MOL
REMARK 924 INTRA-LIGAND FREE ENERGY PREDICTED BY IDOCK:   -0.76 KCAL/MOL
REMARK 927      BINDING AFFINITY PREDICTED BY RF-SCORE:    0.00 PKD
ROOT
HETATM    1  C   UNL     1      -9.843  14.160  66.095  1.00  0.00    -0.326 C  
HETATM    2  C   UNL     1      -9.054  14.419  67.375  1.00  0.00    -0.202 C  
ENDROOT
BRANCH   2   3
HETATM    3  C   UNL     1      -7.846  13.469  67.605  1.00  0.00    -0.175 C  
BRANCH   3   4
HETATM    4  N   UNL     1      -7.831  12.880  68.967  1.00  0.00    -0.325 NA 
HETATM    5  H   UNL     1      -7.798  13.464  69.803  1.00  0.00     0.000 HD 
BRANCH   4   6
HETATM    6  C   UNL     1      -7.867  11.414  69.052  1.00  0.00    -0.043 C  
HETATM    7  C   UNL     1      -6.495  10.934  69.538  1.00  0.00    -0.095 C  
HETATM    8  C   UNL     1      -8.208  10.738  67.724  1.00  0.00    -0.112 C  
ENDBRANCH   4   6
ENDBRANCH   3   4
BRANCH   3   9
HETATM    9  C   UNL     1      -6.490  14.202  67.300  1.00  0.00     0.360 C  
HETATM   10  H   UNL     1      -4.577  13.719  67.081  1.00  0.00     0.000 HD 
HETATM   11  O   UNL     1      -5.397  13.276  67.266  1.00  0.00    -0.348 OA 
BRANCH   9  12
HETATM   12  C   UNL     1      -6.169  15.403  68.193  1.00  0.00    -0.135 A  
HETATM   13  C   UNL     1      -6.323  16.763  67.827  1.00  0.00    -0.164 A  
HETATM   14  C   UNL     1      -6.706  17.205  66.476  1.00  0.00    -0.290 C  
HETATM   15  C   UNL     1      -7.004  18.486  66.223  1.00  0.00    -0.275 C  
HETATM   16  C   UNL     1      -6.928  19.510  67.283  1.00  0.00    -0.202 C  
HETATM   17  N   UNL     1      -6.435  19.109  68.490  1.00  0.00    -0.239 N  
HETATM   18  O   UNL     1      -7.281  20.666  67.076  1.00  0.00    -0.294 OA 
HETATM   19  H   UNL     1      -6.282  19.819  69.206  1.00  0.00     0.000 HD 
HETATM   20  C   UNL     1      -6.125  17.774  68.803  1.00  0.00    -0.195 A  
HETATM   21  C   UNL     1      -5.689  17.438  70.089  1.00  0.00    -0.231 A  
HETATM   22  O   UNL     1      -5.448  18.370  71.059  1.00  0.00    -0.245 OA 
HETATM   23  C   UNL     1      -5.486  16.112  70.439  1.00  0.00    -0.164 A  
HETATM   24  H   UNL     1      -5.152  18.142  71.933  1.00  0.00     0.000 HD 
HETATM   25  C   UNL     1      -5.732  15.108  69.504  1.00  0.00    -0.102 A  
ENDBRANCH   9  12
ENDBRANCH   3   9
ENDBRANCH   2   3
TORSDOF 5
ENDMDL
MODEL      275
REMARK 921   NORMALIZED FREE ENERGY PREDICTED BY IDOCK:   -2.87 KCAL/MOL
REMARK 922        TOTAL FREE ENERGY PREDICTED BY IDOCK:   -4.56 KCAL/MOL
REMARK 923 INTER-LIGAND FREE ENERGY PREDICTED BY IDOCK:   -3.78 KCAL/MOL
REMARK 924 INTRA-LIGAND FREE ENERGY PREDICTED BY IDOCK:   -0.78 KCAL/MOL
REMARK 927      BINDING AFFINITY PREDICTED BY RF-SCORE:    0.00 PKD
ROOT
HETATM    1  C   UNL     1     -11.742   6.664  70.214  1.00  0.00    -0.432 C  
HETATM    2  C   UNL     1     -10.591   6.234  69.309  1.00  0.00    -0.332 C  
ENDROOT
BRANCH   2   3
HETATM    3  C   UNL     1      -9.198   6.191  69.996  1.00  0.00    -0.151 C  
BRANCH   3   4
HETATM    4  N   UNL     1      -9.275   5.796  71.425  1.00  0.00    -0.143 NA 
HETATM    5  H   UNL     1      -9.779   6.360  72.110  1.00  0.00     0.000 HD 
BRANCH   4   6
HETATM    6  C   UNL     1      -8.589   4.554  71.804  1.00  0.00    -0.116 C  
HETATM    7  C   UNL     1      -7.865   4.017  70.565  1.00  0.00    -0.051 C  
HETATM    8  C   UNL     1      -9.533   3.484  72.352  1.00  0.00    -0.183 C  
ENDBRANCH   4   6
ENDBRANCH   3   4
BRANCH   3   9
HETATM    9  C   UNL     1      -8.452   7.566  69.837  1.00  0.00    -0.138 C  
HETATM   10  H   UNL     1      -7.998   9.129  70.971  1.00  0.00     0.000 HD 
HETATM   11  O   UNL     1      -8.449   8.298  71.067  1.00  0.00    -0.116 OA 
BRANCH   9  12
HETATM   12  C   UNL     1      -8.919   8.442  68.673  1.00  0.00    -0.140 A  
HETATM   13  C   UNL     1      -8.549   8.272  67.316  1.00  0.00    -0.124 A  
HETATM   14  C   UNL     1      -7.556   7.284  66.860  1.00  0.00    -0.105 C  
HETATM   15  C   UNL     1      -7.364   7.044  65.557  1.00  0.00    -0.079 C  
HETATM   16  C   UNL     1      -8.118   7.783  64.525  1.00  0.00    -0.108 C  
HETATM   17  N   UNL     1      -8.926   8.791  64.961  1.00  0.00    -0.403 N  
HETATM   18  O   UNL     1      -8.007   7.506  63.336  1.00  0.00    -0.132 OA 
HETATM   19  H   UNL     1      -9.382   9.379  64.262  1.00  0.00     0.000 HD 
HETATM   20  C   UNL     1      -9.169   9.069  66.319  1.00  0.00    -0.206 A  
HETATM   21  C   UNL     1     -10.068  10.077  66.679  1.00  0.00    -0.227 A  
HETATM   22  O   UNL     1     -10.669  10.898  65.766  1.00  0.00    -0.204 OA 
HETATM   23  C   UNL     1     -10.396  10.285  68.010  1.00  0.00    -0.215 A  
HETATM   24  H   UNL     1     -11.280  11.584  66.011  1.00  0.00     0.000 HD 
HETATM   25  C   UNL     1      -9.834   9.471  68.992  1.00  0.00    -0.178 A  
ENDBRANCH   9  12
ENDBRANCH   3   9
ENDBRANCH   2   3
TORSDOF 5
ENDMDL
MODEL      276
REMARK 921   NORMALIZED FREE ENERGY PREDICTED BY IDOCK:   -2.84 KCAL/MOL
REMARK 922        TOTAL FREE ENERGY PREDICTED BY IDOCK:   -4.52 KCAL/MOL
REMARK 923 INTER-LIGAND FREE ENERGY PREDICTED BY IDOCK:   -3.85 KCAL/MOL
REMARK 924 INTRA-LIGAND FREE ENERGY PREDICTED BY IDOCK:   -0.68 KCAL/MOL
REMARK 927      BINDING AFFINITY PREDICTED BY RF-SCORE:    0.00 PKD
ROOT
HETATM    1  C   UNL     1     -11.834  11.722  69.835  1.00  0.00    -0.423 C  
HETATM    2  C   UNL     1     -10.886  11.312  68.712  1.00  0.00    -0.252 C  
ENDROOT
BRANCH   2   3
HETATM    3  C   UNL     1      -9.693  10.421  69.154  1.00  0.00    -0.220 C  
BRANCH   3   4
HETATM    4  N   UNL     1      -8.379  11.088  68.971  1.00  0.00    -0.303 NA 
HETATM    5  H   UNL     1      -7.706  11.161  69.734  1.00  0.00     0.000 HD 
BRANCH   4   6
HETATM    6  C   UNL     1      -8.098  11.637  67.638  1.00  0.00    -0.140 C  
HETATM    7  C   UNL     1      -6.834  10.956  67.104  1.00  0.00    -0.093 C  
HETATM    8  C   UNL     1      -7.906  13.153  67.636  1.00  0.00    -0.169 C  
ENDBRANCH   4   6
ENDBRANCH   3   4
BRANCH   3   9
HETATM    9  C   UNL     1      -9.723   9.035  68.411  1.00  0.00    -0.156 C  
HETATM   10  H   UNL     1     -11.011   7.973  67.338  1.00  0.00     0.000 HD 
HETATM   11  O   UNL     1     -10.992   8.811  67.787  1.00  0.00    -0.093 OA 
BRANCH   9  12
HETATM   12  C   UNL     1      -9.296   7.826  69.246  1.00  0.00    -0.148 A  
HETATM   13  C   UNL     1      -9.999   7.307  70.361  1.00  0.00    -0.192 A  
HETATM   14  C   UNL     1     -11.192   7.947  70.942  1.00  0.00    -0.284 C  
HETATM   15  C   UNL     1     -11.920   7.334  71.882  1.00  0.00    -0.342 C  
HETATM   16  C   UNL     1     -11.537   6.004  72.398  1.00  0.00    -0.300 C  
HETATM   17  N   UNL     1     -10.354   5.492  71.953  1.00  0.00    -0.209 N  
HETATM   18  O   UNL     1     -12.247   5.403  73.196  1.00  0.00     0.051 OA 
HETATM   19  H   UNL     1     -10.021   4.621  72.368  1.00  0.00     0.000 HD 
HETATM   20  C   UNL     1      -9.566   6.094  70.956  1.00  0.00    -0.175 A  
HETATM   21  C   UNL     1      -8.400   5.465  70.507  1.00  0.00    -0.111 A  
HETATM   22  O   UNL     1      -7.915   4.314  71.064  1.00  0.00    -0.068 OA 
HETATM   23  C   UNL     1      -7.677   5.995  69.451  1.00  0.00    -0.098 A  
HETATM   24  H   UNL     1      -7.123   3.887  70.760  1.00  0.00     0.000 HD 
HETATM   25  C   UNL     1      -8.125   7.157  68.824  1.00  0.00    -0.121 A  
ENDBRANCH   9  12
ENDBRANCH   3   9
ENDBRANCH   2   3
TORSDOF 5
ENDMDL
MODEL      277
REMARK 921   NORMALIZED FREE ENERGY PREDICTED BY IDOCK:   -2.80 KCAL/MOL
REMARK 922        TOTAL FREE ENERGY PREDICTED BY IDOCK:   -4.47 KCAL/MOL
REMARK 923 INTER-LIGAND FREE ENERGY PREDICTED BY IDOCK:   -3.43 KCAL/MOL
REMARK 924 INTRA-LIGAND FREE ENERGY PREDICTED BY IDOCK:   -1.04 KCAL/MOL
REMARK 927      BINDING AFFINITY PREDICTED BY RF-SCORE:    0.00 PKD
ROOT
HETATM    1  C   UNL     1      -6.106  11.760  70.184  1.00  0.00    -0.147 C  
HETATM    2  C   UNL     1      -7.140  11.817  69.064  1.00  0.00    -0.100 C  
ENDROOT
BRANCH   2   3
HETATM    3  C   UNL     1      -6.551  11.944  67.632  1.00  0.00    -0.099 C  
BRANCH   3   4
HETATM    4  N   UNL     1      -7.266  12.947  66.803  1.00  0.00    -0.270 NA 
HETATM    5  H   UNL     1      -7.125  13.006  65.795  1.00  0.00     0.000 HD 
BRANCH   4   6
HETATM    6  C   UNL     1      -8.189  13.847  67.507  1.00  0.00    -0.188 C  
HETATM    7  C   UNL     1      -9.612  13.531  67.036  1.00  0.00    -0.248 C  
HETATM    8  C   UNL     1      -7.886  15.328  67.273  1.00  0.00    -0.240 C  
ENDBRANCH   4   6
ENDBRANCH   3   4
BRANCH   3   9
HETATM    9  C   UNL     1      -6.518  10.547  66.913  1.00  0.00    -0.080 C  
HETATM   10  H   UNL     1      -6.311   9.852  65.066  1.00  0.00     0.000 HD 
HETATM   11  O   UNL     1      -6.330  10.696  65.501  1.00  0.00    -0.126 OA 
BRANCH   9  12
HETATM   12  C   UNL     1      -7.694   9.616  67.219  1.00  0.00    -0.091 A  
HETATM   13  C   UNL     1      -7.688   8.574  68.179  1.00  0.00    -0.102 A  
HETATM   14  C   UNL     1      -6.491   8.169  68.935  1.00  0.00    -0.048 C  
HETATM   15  C   UNL     1      -6.572   7.299  69.949  1.00  0.00    -0.040 C  
HETATM   16  C   UNL     1      -7.861   6.685  70.327  1.00  0.00    -0.107 C  
HETATM   17  N   UNL     1      -8.929   6.962  69.526  1.00  0.00    -0.143 N  
HETATM   18  O   UNL     1      -7.953   5.954  71.307  1.00  0.00    -0.109 OA 
HETATM   19  H   UNL     1      -9.806   6.473  69.710  1.00  0.00     0.000 HD 
HETATM   20  C   UNL     1      -8.893   7.881  68.462  1.00  0.00    -0.134 A  
HETATM   21  C   UNL     1     -10.055   8.158  67.734  1.00  0.00    -0.204 A  
HETATM   22  O   UNL     1     -11.235   7.499  67.938  1.00  0.00    -0.464 OA 
HETATM   23  C   UNL     1     -10.055   9.141  66.757  1.00  0.00    -0.341 A  
HETATM   24  H   UNL     1     -12.024   7.687  67.444  1.00  0.00     0.000 HD 
HETATM   25  C   UNL     1      -8.890   9.865  66.510  1.00  0.00    -0.154 A  
ENDBRANCH   9  12
ENDBRANCH   3   9
ENDBRANCH   2   3
TORSDOF 5
ENDMDL
MODEL      278
REMARK 921   NORMALIZED FREE ENERGY PREDICTED BY IDOCK:   -2.80 KCAL/MOL
REMARK 922        TOTAL FREE ENERGY PREDICTED BY IDOCK:   -4.46 KCAL/MOL
REMARK 923 INTER-LIGAND FREE ENERGY PREDICTED BY IDOCK:   -4.36 KCAL/MOL
REMARK 924 INTRA-LIGAND FREE ENERGY PREDICTED BY IDOCK:   -0.10 KCAL/MOL
REMARK 927      BINDING AFFINITY PREDICTED BY RF-SCORE:    0.00 PKD
ROOT
HETATM    1  C   UNL     1     -11.113   8.603  71.557  1.00  0.00    -0.358 C  
HETATM    2  C   UNL     1     -10.763   9.338  70.267  1.00  0.00    -0.284 C  
ENDROOT
BRANCH   2   3
HETATM    3  C   UNL     1      -9.815   8.565  69.308  1.00  0.00    -0.185 C  
BRANCH   3   4
HETATM    4  N   UNL     1      -9.853   7.097  69.524  1.00  0.00    -0.161 NA 
HETATM    5  H   UNL     1      -9.989   6.696  70.452  1.00  0.00     0.000 HD 
BRANCH   4   6
HETATM    6  C   UNL     1      -9.685   6.251  68.335  1.00  0.00    -0.124 C  
HETATM    7  C   UNL     1     -11.018   6.228  67.579  1.00  0.00    -0.444 C  
HETATM    8  C   UNL     1      -9.256   4.821  68.665  1.00  0.00    -0.168 C  
ENDBRANCH   4   6
ENDBRANCH   3   4
BRANCH   3   9
HETATM    9  C   UNL     1      -8.343   9.107  69.418  1.00  0.00    -0.124 C  
HETATM   10  H   UNL     1      -7.342  10.423  70.515  1.00  0.00     0.000 HD 
HETATM   11  O   UNL     1      -8.231  10.095  70.449  1.00  0.00    -0.107 OA 
BRANCH   9  12
HETATM   12  C   UNL     1      -7.719   9.599  68.111  1.00  0.00    -0.086 A  
HETATM   13  C   UNL     1      -8.428   9.888  66.919  1.00  0.00    -0.125 A  
HETATM   14  C   UNL     1      -9.869   9.636  66.747  1.00  0.00    -0.270 C  
HETATM   15  C   UNL     1     -10.527  10.081  65.670  1.00  0.00    -0.048 C  
HETATM   16  C   UNL     1      -9.827  10.813  64.596  1.00  0.00    -0.307 C  
HETATM   17  N   UNL     1      -8.471  10.911  64.704  1.00  0.00    -0.372 N  
HETATM   18  O   UNL     1     -10.441  11.295  63.650  1.00  0.00    -0.353 OA 
HETATM   19  H   UNL     1      -7.956  11.327  63.927  1.00  0.00     0.000 HD 
HETATM   20  C   UNL     1      -7.741  10.473  65.824  1.00  0.00    -0.145 A  
HETATM   21  C   UNL     1      -6.359  10.676  65.884  1.00  0.00    -0.128 A  
HETATM   22  O   UNL     1      -5.639  11.203  64.848  1.00  0.00    -0.472 OA 
HETATM   23  C   UNL     1      -5.649  10.346  67.028  1.00  0.00    -0.042 A  
HETATM   24  H   UNL     1      -4.700  11.341  64.889  1.00  0.00     0.000 HD 
HETATM   25  C   UNL     1      -6.323   9.823  68.129  1.00  0.00    -0.055 A  
ENDBRANCH   9  12
ENDBRANCH   3   9
ENDBRANCH   2   3
TORSDOF 5
ENDMDL
MODEL      279
REMARK 921   NORMALIZED FREE ENERGY PREDICTED BY IDOCK:   -2.79 KCAL/MOL
REMARK 922        TOTAL FREE ENERGY PREDICTED BY IDOCK:   -4.45 KCAL/MOL
REMARK 923 INTER-LIGAND FREE ENERGY PREDICTED BY IDOCK:   -3.93 KCAL/MOL
REMARK 924 INTRA-LIGAND FREE ENERGY PREDICTED BY IDOCK:   -0.52 KCAL/MOL
REMARK 927      BINDING AFFINITY PREDICTED BY RF-SCORE:    0.00 PKD
ROOT
HETATM    1  C   UNL     1      -7.040   5.112  70.339  1.00  0.00    -0.057 C  
HETATM    2  C   UNL     1      -8.126   6.157  70.575  1.00  0.00    -0.113 C  
ENDROOT
BRANCH   2   3
HETATM    3  C   UNL     1      -8.376   6.517  72.066  1.00  0.00    -0.107 C  
BRANCH   3   4
HETATM    4  N   UNL     1      -9.760   6.210  72.506  1.00  0.00    -0.157 NA 
HETATM    5  H   UNL     1     -10.571   6.626  72.049  1.00  0.00     0.000 HD 
BRANCH   4   6
HETATM    6  C   UNL     1      -9.902   5.277  73.632  1.00  0.00    -0.161 C  
HETATM    7  C   UNL     1      -8.546   4.604  73.863  1.00  0.00    -0.103 C  
HETATM    8  C   UNL     1     -10.974   4.211  73.403  1.00  0.00    -0.350 C  
ENDBRANCH   4   6
ENDBRANCH   3   4
BRANCH   3   9
HETATM    9  C   UNL     1      -8.023   8.024  72.345  1.00  0.00    -0.128 C  
HETATM   10  H   UNL     1      -8.691   9.499  73.493  1.00  0.00     0.000 HD 
HETATM   11  O   UNL     1      -8.904   8.588  73.323  1.00  0.00    -0.308 OA 
BRANCH   9  12
HETATM   12  C   UNL     1      -7.921   8.921  71.110  1.00  0.00    -0.181 A  
HETATM   13  C   UNL     1      -9.018   9.481  70.409  1.00  0.00    -0.291 A  
HETATM   14  C   UNL     1     -10.425   9.171  70.713  1.00  0.00    -0.322 C  
HETATM   15  C   UNL     1     -11.425   9.850  70.140  1.00  0.00    -0.309 C  
HETATM   16  C   UNL     1     -11.158  10.916  69.155  1.00  0.00    -0.245 C  
HETATM   17  N   UNL     1      -9.858  11.092  68.779  1.00  0.00    -0.197 N  
HETATM   18  O   UNL     1     -12.067  11.597  68.692  1.00  0.00    -0.449 OA 
HETATM   19  H   UNL     1      -9.660  11.755  68.029  1.00  0.00     0.000 HD 
HETATM   20  C   UNL     1      -8.775  10.412  69.365  1.00  0.00    -0.124 A  
HETATM   21  C   UNL     1      -7.467  10.703  68.968  1.00  0.00    -0.117 A  
HETATM   22  O   UNL     1      -7.173  11.564  67.948  1.00  0.00    -0.078 OA 
HETATM   23  C   UNL     1      -6.389  10.119  69.615  1.00  0.00    -0.057 A  
HETATM   24  H   UNL     1      -6.284  11.761  67.678  1.00  0.00     0.000 HD 
HETATM   25  C   UNL     1      -6.615   9.246  70.678  1.00  0.00    -0.079 A  
ENDBRANCH   9  12
ENDBRANCH   3   9
ENDBRANCH   2   3
TORSDOF 5
ENDMDL
MODEL      280
REMARK 921   NORMALIZED FREE ENERGY PREDICTED BY IDOCK:   -2.77 KCAL/MOL
REMARK 922        TOTAL FREE ENERGY PREDICTED BY IDOCK:   -4.43 KCAL/MOL
REMARK 923 INTER-LIGAND FREE ENERGY PREDICTED BY IDOCK:   -4.25 KCAL/MOL
REMARK 924 INTRA-LIGAND FREE ENERGY PREDICTED BY IDOCK:   -0.18 KCAL/MOL
REMARK 927      BINDING AFFINITY PREDICTED BY RF-SCORE:    0.00 PKD
ROOT
HETATM    1  C   UNL     1     -12.517  12.731  71.561  1.00  0.00    -0.143 C  
HETATM    2  C   UNL     1     -12.969  12.209  70.200  1.00  0.00     0.554 C  
ENDROOT
BRANCH   2   3
HETATM    3  C   UNL     1     -11.883  11.439  69.400  1.00  0.00    -0.351 C  
BRANCH   3   4
HETATM    4  N   UNL     1     -12.140  11.437  67.938  1.00  0.00    -0.621 NA 
HETATM    5  H   UNL     1     -12.848  10.833  67.520  1.00  0.00     0.000 HD 
BRANCH   4   6
HETATM    6  C   UNL     1     -11.326  12.349  67.123  1.00  0.00    -0.329 C  
HETATM    7  C   UNL     1     -12.217  13.517  66.687  1.00  0.00    -0.411 C  
HETATM    8  C   UNL     1     -10.716  11.679  65.892  1.00  0.00    -0.328 C  
ENDBRANCH   4   6
ENDBRANCH   3   4
BRANCH   3   9
HETATM    9  C   UNL     1     -11.724   9.971  69.940  1.00  0.00    -0.125 C  
HETATM   10  H   UNL     1     -12.004   8.997  71.646  1.00  0.00     0.000 HD 
HETATM   11  O   UNL     1     -12.100   9.884  71.319  1.00  0.00    -0.336 OA 
BRANCH   9  12
HETATM   12  C   UNL     1     -10.361   9.319  69.696  1.00  0.00    -0.227 A  
HETATM   13  C   UNL     1     -10.084   7.933  69.792  1.00  0.00    -0.199 A  
HETATM   14  C   UNL     1     -11.062   6.938  70.262  1.00  0.00    -0.342 C  
HETATM   15  C   UNL     1     -10.813   5.626  70.175  1.00  0.00    -0.356 C  
HETATM   16  C   UNL     1      -9.534   5.125  69.634  1.00  0.00    -0.143 C  
HETATM   17  N   UNL     1      -8.587   6.061  69.338  1.00  0.00    -0.121 N  
HETATM   18  O   UNL     1      -9.337   3.926  69.474  1.00  0.00    -0.144 OA 
HETATM   19  H   UNL     1      -7.662   5.735  69.055  1.00  0.00     0.000 HD 
HETATM   20  C   UNL     1      -8.810   7.448  69.400  1.00  0.00    -0.137 A  
HETATM   21  C   UNL     1      -7.804   8.338  69.011  1.00  0.00    -0.103 A  
HETATM   22  O   UNL     1      -6.548   7.932  68.656  1.00  0.00    -0.053 OA 
HETATM   23  C   UNL     1      -8.051   9.702  68.965  1.00  0.00    -0.103 A  
HETATM   24  H   UNL     1      -5.865   8.537  68.392  1.00  0.00     0.000 HD 
HETATM   25  C   UNL     1      -9.317  10.183  69.295  1.00  0.00    -0.227 A  
ENDBRANCH   9  12
ENDBRANCH   3   9
ENDBRANCH   2   3
TORSDOF 5
ENDMDL
MODEL      281
REMARK 921   NORMALIZED FREE ENERGY PREDICTED BY IDOCK:   -2.76 KCAL/MOL
REMARK 922        TOTAL FREE ENERGY PREDICTED BY IDOCK:   -4.42 KCAL/MOL
REMARK 923 INTER-LIGAND FREE ENERGY PREDICTED BY IDOCK:   -4.43 KCAL/MOL
REMARK 924 INTRA-LIGAND FREE ENERGY PREDICTED BY IDOCK:    0.01 KCAL/MOL
REMARK 927      BINDING AFFINITY PREDICTED BY RF-SCORE:    0.00 PKD
ROOT
HETATM    1  C   UNL     1     -11.000   7.888  70.259  1.00  0.00    -0.249 C  
HETATM    2  C   UNL     1     -10.981   9.368  70.628  1.00  0.00    -0.352 C  
ENDROOT
BRANCH   2   3
HETATM    3  C   UNL     1     -10.537  10.324  69.487  1.00  0.00    -0.245 C  
BRANCH   3   4
HETATM    4  N   UNL     1      -9.223  10.962  69.751  1.00  0.00    -0.182 NA 
HETATM    5  H   UNL     1      -9.102  11.650  70.495  1.00  0.00     0.000 HD 
BRANCH   4   6
HETATM    6  C   UNL     1      -8.106  10.554  68.890  1.00  0.00    -0.138 C  
HETATM    7  C   UNL     1      -8.330  11.164  67.503  1.00  0.00    -0.122 C  
HETATM    8  C   UNL     1      -7.959   9.037  68.766  1.00  0.00    -0.101 C  
ENDBRANCH   4   6
ENDBRANCH   3   4
BRANCH   3   9
HETATM    9  C   UNL     1     -11.638  11.410  69.205  1.00  0.00    -0.317 C  
HETATM   10  H   UNL     1     -13.487  11.473  68.487  1.00  0.00     0.000 HD 
HETATM   11  O   UNL     1     -12.821  10.817  68.657  1.00  0.00     0.454 OA 
BRANCH   9  12
HETATM   12  C   UNL     1     -11.186  12.612  68.373  1.00  0.00    -0.316 A  
HETATM   13  C   UNL     1     -11.357  12.754  66.974  1.00  0.00    -0.364 A  
HETATM   14  C   UNL     1     -11.896  11.692  66.107  1.00  0.00     0.192 C  
HETATM   15  C   UNL     1     -12.197  11.930  64.825  1.00  0.00    -0.109 C  
HETATM   16  C   UNL     1     -11.971  13.257  64.220  1.00  0.00    -0.421 C  
HETATM   17  N   UNL     1     -11.339  14.184  64.997  1.00  0.00    -0.334 N  
HETATM   18  O   UNL     1     -12.324  13.502  63.072  1.00  0.00    -0.661 OA 
HETATM   19  H   UNL     1     -11.084  15.075  64.570  1.00  0.00     0.000 HD 
HETATM   20  C   UNL     1     -11.018  13.983  66.351  1.00  0.00    -0.308 A  
HETATM   21  C   UNL     1     -10.433  15.013  67.094  1.00  0.00    -0.277 A  
HETATM   22  O   UNL     1     -10.055  16.205  66.542  1.00  0.00    -0.266 OA 
HETATM   23  C   UNL     1     -10.214  14.862  68.455  1.00  0.00    -0.231 A  
HETATM   24  H   UNL     1      -9.657  16.905  67.047  1.00  0.00     0.000 HD 
HETATM   25  C   UNL     1     -10.594  13.679  69.086  1.00  0.00    -0.082 A  
ENDBRANCH   9  12
ENDBRANCH   3   9
ENDBRANCH   2   3
TORSDOF 5
ENDMDL
MODEL      282
REMARK 921   NORMALIZED FREE ENERGY PREDICTED BY IDOCK:   -2.75 KCAL/MOL
REMARK 922        TOTAL FREE ENERGY PREDICTED BY IDOCK:   -4.41 KCAL/MOL
REMARK 923 INTER-LIGAND FREE ENERGY PREDICTED BY IDOCK:   -3.66 KCAL/MOL
REMARK 924 INTRA-LIGAND FREE ENERGY PREDICTED BY IDOCK:   -0.74 KCAL/MOL
REMARK 927      BINDING AFFINITY PREDICTED BY RF-SCORE:    0.00 PKD
ROOT
HETATM    1  C   UNL     1      -8.667   5.385  64.893  1.00  0.00    -0.097 C  
HETATM    2  C   UNL     1      -7.676   5.536  66.043  1.00  0.00    -0.095 C  
ENDROOT
BRANCH   2   3
HETATM    3  C   UNL     1      -8.133   6.488  67.182  1.00  0.00    -0.113 C  
BRANCH   3   4
HETATM    4  N   UNL     1      -8.000   7.921  66.820  1.00  0.00    -0.105 NA 
HETATM    5  H   UNL     1      -7.087   8.363  66.712  1.00  0.00     0.000 HD 
BRANCH   4   6
HETATM    6  C   UNL     1      -9.248   8.671  66.626  1.00  0.00    -0.181 C  
HETATM    7  C   UNL     1      -9.102   9.511  65.353  1.00  0.00    -0.273 C  
HETATM    8  C   UNL     1      -9.598   9.581  67.804  1.00  0.00    -0.156 C  
ENDBRANCH   4   6
ENDBRANCH   3   4
BRANCH   3   9
HETATM    9  C   UNL     1      -7.362   6.176  68.517  1.00  0.00    -0.086 C  
HETATM   10  H   UNL     1      -6.782   4.575  69.536  1.00  0.00     0.000 HD 
HETATM   11  O   UNL     1      -7.247   4.764  68.730  1.00  0.00    -0.056 OA 
BRANCH   9  12
HETATM   12  C   UNL     1      -7.889   6.883  69.767  1.00  0.00    -0.115 A  
HETATM   13  C   UNL     1      -9.240   6.903  70.192  1.00  0.00    -0.155 A  
HETATM   14  C   UNL     1     -10.349   6.335  69.408  1.00  0.00    -0.266 C  
HETATM   15  C   UNL     1     -11.579   6.225  69.924  1.00  0.00    -0.361 C  
HETATM   16  C   UNL     1     -11.880   6.700  71.289  1.00  0.00    -0.350 C  
HETATM   17  N   UNL     1     -10.877   7.352  71.945  1.00  0.00    -0.226 N  
HETATM   18  O   UNL     1     -12.982   6.524  71.795  1.00  0.00    -0.262 OA 
HETATM   19  H   UNL     1     -11.090   7.774  72.850  1.00  0.00     0.000 HD 
HETATM   20  C   UNL     1      -9.567   7.477  71.448  1.00  0.00    -0.155 A  
HETATM   21  C   UNL     1      -8.581   8.101  72.218  1.00  0.00    -0.175 A  
HETATM   22  O   UNL     1      -8.843   8.700  73.418  1.00  0.00    -0.297 OA 
HETATM   23  C   UNL     1      -7.265   8.131  71.784  1.00  0.00    -0.089 A  
HETATM   24  H   UNL     1      -8.173   9.124  73.941  1.00  0.00     0.000 HD 
HETATM   25  C   UNL     1      -6.923   7.522  70.578  1.00  0.00    -0.052 A  
ENDBRANCH   9  12
ENDBRANCH   3   9
ENDBRANCH   2   3
TORSDOF 5
ENDMDL
MODEL      283
REMARK 921   NORMALIZED FREE ENERGY PREDICTED BY IDOCK:   -2.75 KCAL/MOL
REMARK 922        TOTAL FREE ENERGY PREDICTED BY IDOCK:   -4.41 KCAL/MOL
REMARK 923 INTER-LIGAND FREE ENERGY PREDICTED BY IDOCK:   -4.56 KCAL/MOL
REMARK 924 INTRA-LIGAND FREE ENERGY PREDICTED BY IDOCK:    0.16 KCAL/MOL
REMARK 927      BINDING AFFINITY PREDICTED BY RF-SCORE:    0.00 PKD
ROOT
HETATM    1  C   UNL     1      -8.667   9.386  64.236  1.00  0.00    -0.224 C  
HETATM    2  C   UNL     1      -9.189  10.663  64.887  1.00  0.00    -0.252 C  
ENDROOT
BRANCH   2   3
HETATM    3  C   UNL     1      -8.989  10.744  66.425  1.00  0.00    -0.166 C  
BRANCH   3   4
HETATM    4  N   UNL     1      -7.807  11.556  66.809  1.00  0.00    -0.189 NA 
HETATM    5  H   UNL     1      -7.877  12.560  66.970  1.00  0.00     0.000 HD 
BRANCH   4   6
HETATM    6  C   UNL     1      -6.532  10.840  66.945  1.00  0.00    -0.090 C  
HETATM    7  C   UNL     1      -5.782  11.434  68.142  1.00  0.00    -0.045 C  
HETATM    8  C   UNL     1      -5.654  10.922  65.696  1.00  0.00    -0.115 C  
ENDBRANCH   4   6
ENDBRANCH   3   4
BRANCH   3   9
HETATM    9  C   UNL     1      -8.907   9.306  67.056  1.00  0.00    -0.123 C  
HETATM   10  H   UNL     1      -9.801   7.549  66.826  1.00  0.00     0.000 HD 
HETATM   11  O   UNL     1      -9.850   8.418  66.445  1.00  0.00    -0.253 OA 
BRANCH   9  12
HETATM   12  C   UNL     1      -9.000   9.246  68.582  1.00  0.00    -0.132 A  
HETATM   13  C   UNL     1     -10.061   9.767  69.362  1.00  0.00    -0.221 A  
HETATM   14  C   UNL     1     -11.174  10.552  68.802  1.00  0.00    -0.317 C  
HETATM   15  C   UNL     1     -12.238  10.878  69.548  1.00  0.00    -0.331 C  
HETATM   16  C   UNL     1     -12.321  10.489  70.969  1.00  0.00    -0.399 C  
HETATM   17  N   UNL     1     -11.220   9.889  71.506  1.00  0.00    -0.240 N  
HETATM   18  O   UNL     1     -13.329  10.711  71.631  1.00  0.00    -0.372 OA 
HETATM   19  H   UNL     1     -11.217   9.700  72.509  1.00  0.00     0.000 HD 
HETATM   20  C   UNL     1     -10.089   9.515  70.759  1.00  0.00    -0.282 A  
HETATM   21  C   UNL     1      -9.032   8.840  71.375  1.00  0.00    -0.238 A  
HETATM   22  O   UNL     1      -8.987   8.599  72.720  1.00  0.00    -0.356 OA 
HETATM   23  C   UNL     1      -7.963   8.372  70.626  1.00  0.00    -0.101 A  
HETATM   24  H   UNL     1      -8.269   8.141  73.140  1.00  0.00     0.000 HD 
HETATM   25  C   UNL     1      -7.954   8.566  69.246  1.00  0.00    -0.111 A  
ENDBRANCH   9  12
ENDBRANCH   3   9
ENDBRANCH   2   3
TORSDOF 5
ENDMDL
MODEL      284
REMARK 921   NORMALIZED FREE ENERGY PREDICTED BY IDOCK:   -2.74 KCAL/MOL
REMARK 922        TOTAL FREE ENERGY PREDICTED BY IDOCK:   -4.40 KCAL/MOL
REMARK 923 INTER-LIGAND FREE ENERGY PREDICTED BY IDOCK:   -3.68 KCAL/MOL
REMARK 924 INTRA-LIGAND FREE ENERGY PREDICTED BY IDOCK:   -0.71 KCAL/MOL
REMARK 927      BINDING AFFINITY PREDICTED BY RF-SCORE:    0.00 PKD
ROOT
HETATM    1  C   UNL     1      -6.730   3.698  71.593  1.00  0.00    -0.026 C  
HETATM    2  C   UNL     1      -8.027   4.196  70.962  1.00  0.00    -0.071 C  
ENDROOT
BRANCH   2   3
HETATM    3  C   UNL     1      -8.408   5.660  71.313  1.00  0.00    -0.127 C  
BRANCH   3   4
HETATM    4  N   UNL     1      -8.201   5.979  72.748  1.00  0.00    -0.117 NA 
HETATM    5  H   UNL     1      -7.307   6.326  73.096  1.00  0.00     0.000 HD 
BRANCH   4   6
HETATM    6  C   UNL     1      -9.347   5.769  73.642  1.00  0.00    -0.137 C  
HETATM    7  C   UNL     1      -9.529   7.036  74.484  1.00  0.00    -0.163 C  
HETATM    8  C   UNL     1      -9.184   4.559  74.563  1.00  0.00    -0.120 C  
ENDBRANCH   4   6
ENDBRANCH   3   4
BRANCH   3   9
HETATM    9  C   UNL     1      -9.886   5.975  70.880  1.00  0.00    -0.184 C  
HETATM   10  H   UNL     1     -11.185   5.335  69.523  1.00  0.00     0.000 HD 
HETATM   11  O   UNL     1     -10.292   5.145  69.785  1.00  0.00    -0.271 OA 
BRANCH   9  12
HETATM   12  C   UNL     1     -10.196   7.447  70.602  1.00  0.00    -0.202 A  
HETATM   13  C   UNL     1      -9.542   8.257  69.640  1.00  0.00    -0.167 A  
HETATM   14  C   UNL     1      -8.380   7.811  68.854  1.00  0.00    -0.128 C  
HETATM   15  C   UNL     1      -7.904   8.546  67.841  1.00  0.00    -0.103 C  
HETATM   16  C   UNL     1      -8.506   9.849  67.495  1.00  0.00    -0.115 C  
HETATM   17  N   UNL     1      -9.486  10.311  68.323  1.00  0.00    -0.140 N  
HETATM   18  O   UNL     1      -8.127  10.484  66.516  1.00  0.00    -0.125 OA 
HETATM   19  H   UNL     1      -9.849  11.250  68.160  1.00  0.00     0.000 HD 
HETATM   20  C   UNL     1     -10.027   9.567  69.387  1.00  0.00    -0.191 A  
HETATM   21  C   UNL     1     -11.080  10.088  70.144  1.00  0.00    -0.310 A  
HETATM   22  O   UNL     1     -11.566  11.354  69.969  1.00  0.00    -0.303 OA 
HETATM   23  C   UNL     1     -11.691   9.320  71.123  1.00  0.00    -0.394 A  
HETATM   24  H   UNL     1     -12.282  11.709  70.483  1.00  0.00     0.000 HD 
HETATM   25  C   UNL     1     -11.259   8.013  71.341  1.00  0.00    -0.287 A  
ENDBRANCH   9  12
ENDBRANCH   3   9
ENDBRANCH   2   3
TORSDOF 5
ENDMDL
MODEL      285
REMARK 921   NORMALIZED FREE ENERGY PREDICTED BY IDOCK:   -2.73 KCAL/MOL
REMARK 922        TOTAL FREE ENERGY PREDICTED BY IDOCK:   -4.38 KCAL/MOL
REMARK 923 INTER-LIGAND FREE ENERGY PREDICTED BY IDOCK:   -4.12 KCAL/MOL
REMARK 924 INTRA-LIGAND FREE ENERGY PREDICTED BY IDOCK:   -0.26 KCAL/MOL
REMARK 927      BINDING AFFINITY PREDICTED BY RF-SCORE:    0.00 PKD
ROOT
HETATM    1  C   UNL     1     -10.786   8.631  71.300  1.00  0.00    -0.327 C  
HETATM    2  C   UNL     1      -9.613   8.781  70.336  1.00  0.00    -0.210 C  
ENDROOT
BRANCH   2   3
HETATM    3  C   UNL     1      -9.469   7.636  69.295  1.00  0.00    -0.158 C  
BRANCH   3   4
HETATM    4  N   UNL     1      -8.574   6.547  69.760  1.00  0.00    -0.135 NA 
HETATM    5  H   UNL     1      -7.559   6.643  69.738  1.00  0.00     0.000 HD 
BRANCH   4   6
HETATM    6  C   UNL     1      -9.222   5.325  70.253  1.00  0.00    -0.143 C  
HETATM    7  C   UNL     1     -10.627   5.257  69.646  1.00  0.00    -0.261 C  
HETATM    8  C   UNL     1      -9.317   5.262  71.778  1.00  0.00    -0.175 C  
ENDBRANCH   4   6
ENDBRANCH   3   4
BRANCH   3   9
HETATM    9  C   UNL     1      -8.991   8.197  67.907  1.00  0.00    -0.133 C  
HETATM   10  H   UNL     1      -7.318   8.242  66.840  1.00  0.00     0.000 HD 
HETATM   11  O   UNL     1      -7.608   7.903  67.679  1.00  0.00    -0.104 OA 
BRANCH   9  12
HETATM   12  C   UNL     1      -9.291   9.676  67.650  1.00  0.00    -0.144 A  
HETATM   13  C   UNL     1      -8.337  10.723  67.667  1.00  0.00    -0.119 A  
HETATM   14  C   UNL     1      -6.929  10.536  68.056  1.00  0.00    -0.074 C  
HETATM   15  C   UNL     1      -6.029  11.513  67.893  1.00  0.00    -0.045 C  
HETATM   16  C   UNL     1      -6.420  12.828  67.348  1.00  0.00    -0.137 C  
HETATM   17  N   UNL     1      -7.751  13.030  67.128  1.00  0.00    -0.369 N  
HETATM   18  O   UNL     1      -5.584  13.695  67.118  1.00  0.00    -0.264 OA 
HETATM   19  H   UNL     1      -8.055  13.961  66.844  1.00  0.00     0.000 HD 
HETATM   20  C   UNL     1      -8.728  12.028  67.270  1.00  0.00    -0.175 A  
HETATM   21  C   UNL     1     -10.063  12.301  66.957  1.00  0.00    -0.212 A  
HETATM   22  O   UNL     1     -10.504  13.545  66.602  1.00  0.00    -0.270 OA 
HETATM   23  C   UNL     1     -11.013  11.292  66.989  1.00  0.00    -0.352 A  
HETATM   24  H   UNL     1     -11.411  13.730  66.390  1.00  0.00     0.000 HD 
HETATM   25  C   UNL     1     -10.629   9.995  67.323  1.00  0.00    -0.319 A  
ENDBRANCH   9  12
ENDBRANCH   3   9
ENDBRANCH   2   3
TORSDOF 5
ENDMDL
MODEL      286
REMARK 921   NORMALIZED FREE ENERGY PREDICTED BY IDOCK:   -2.73 KCAL/MOL
REMARK 922        TOTAL FREE ENERGY PREDICTED BY IDOCK:   -4.38 KCAL/MOL
REMARK 923 INTER-LIGAND FREE ENERGY PREDICTED BY IDOCK:   -3.81 KCAL/MOL
REMARK 924 INTRA-LIGAND FREE ENERGY PREDICTED BY IDOCK:   -0.57 KCAL/MOL
REMARK 927      BINDING AFFINITY PREDICTED BY RF-SCORE:    0.00 PKD
ROOT
HETATM    1  C   UNL     1      -8.488   2.898  64.998  1.00  0.00    -0.098 C  
HETATM    2  C   UNL     1      -7.551   3.761  65.838  1.00  0.00    -0.085 C  
ENDROOT
BRANCH   2   3
HETATM    3  C   UNL     1      -8.249   4.883  66.654  1.00  0.00    -0.107 C  
BRANCH   3   4
HETATM    4  N   UNL     1      -7.378   5.447  67.716  1.00  0.00    -0.072 NA 
HETATM    5  H   UNL     1      -7.099   4.897  68.527  1.00  0.00     0.000 HD 
BRANCH   4   6
HETATM    6  C   UNL     1      -6.939   6.838  67.539  1.00  0.00    -0.083 C  
HETATM    7  C   UNL     1      -7.849   7.493  66.496  1.00  0.00    -0.102 C  
HETATM    8  C   UNL     1      -5.480   6.960  67.098  1.00  0.00    -0.017 C  
ENDBRANCH   4   6
ENDBRANCH   3   4
BRANCH   3   9
HETATM    9  C   UNL     1      -9.608   4.374  67.260  1.00  0.00    -0.189 C  
HETATM   10  H   UNL     1     -11.537   4.817  67.113  1.00  0.00     0.000 HD 
HETATM   11  O   UNL     1     -10.715   5.124  66.747  1.00  0.00    -0.256 OA 
BRANCH   9  12
HETATM   12  C   UNL     1      -9.660   4.283  68.786  1.00  0.00    -0.219 A  
HETATM   13  C   UNL     1     -10.101   5.311  69.656  1.00  0.00    -0.327 A  
HETATM   14  C   UNL     1     -10.460   6.665  69.201  1.00  0.00    -0.250 C  
HETATM   15  C   UNL     1     -11.030   7.548  70.031  1.00  0.00    -0.252 C  
HETATM   16  C   UNL     1     -11.292   7.208  71.443  1.00  0.00    -0.259 C  
HETATM   17  N   UNL     1     -10.823   6.005  71.881  1.00  0.00    -0.244 N  
HETATM   18  O   UNL     1     -11.890   7.982  72.183  1.00  0.00    -0.309 OA 
HETATM   19  H   UNL     1     -10.906   5.790  72.876  1.00  0.00     0.000 HD 
HETATM   20  C   UNL     1     -10.233   5.042  71.043  1.00  0.00    -0.213 A  
HETATM   21  C   UNL     1      -9.843   3.803  71.562  1.00  0.00    -0.165 A  
HETATM   22  O   UNL     1      -9.915   3.499  72.893  1.00  0.00    -0.134 OA 
HETATM   23  C   UNL     1      -9.362   2.810  70.724  1.00  0.00    -0.221 A  
HETATM   24  H   UNL     1      -9.650   2.658  73.245  1.00  0.00     0.000 HD 
HETATM   25  C   UNL     1      -9.280   3.045  69.353  1.00  0.00    -0.214 A  
ENDBRANCH   9  12
ENDBRANCH   3   9
ENDBRANCH   2   3
TORSDOF 5
ENDMDL
MODEL      287
REMARK 921   NORMALIZED FREE ENERGY PREDICTED BY IDOCK:   -2.68 KCAL/MOL
REMARK 922        TOTAL FREE ENERGY PREDICTED BY IDOCK:   -4.31 KCAL/MOL
REMARK 923 INTER-LIGAND FREE ENERGY PREDICTED BY IDOCK:   -3.71 KCAL/MOL
REMARK 924 INTRA-LIGAND FREE ENERGY PREDICTED BY IDOCK:   -0.60 KCAL/MOL
REMARK 927      BINDING AFFINITY PREDICTED BY RF-SCORE:    0.00 PKD
ROOT
HETATM    1  C   UNL     1     -11.135   8.478  70.117  1.00  0.00    -0.192 C  
HETATM    2  C   UNL     1     -10.917   6.975  70.268  1.00  0.00    -0.304 C  
ENDROOT
BRANCH   2   3
HETATM    3  C   UNL     1      -9.695   6.574  71.139  1.00  0.00    -0.174 C  
BRANCH   3   4
HETATM    4  N   UNL     1      -8.976   7.748  71.695  1.00  0.00    -0.126 NA 
HETATM    5  H   UNL     1      -8.376   8.333  71.114  1.00  0.00     0.000 HD 
BRANCH   4   6
HETATM    6  C   UNL     1      -9.174   8.027  73.124  1.00  0.00    -0.279 C  
HETATM    7  C   UNL     1      -7.813   7.917  73.819  1.00  0.00    -0.223 C  
HETATM    8  C   UNL     1     -10.171   7.081  73.793  1.00  0.00    -0.401 C  
ENDBRANCH   4   6
ENDBRANCH   3   4
BRANCH   3   9
HETATM    9  C   UNL     1      -8.711   5.649  70.334  1.00  0.00    -0.133 C  
HETATM   10  H   UNL     1      -6.751   5.405  70.144  1.00  0.00     0.000 HD 
HETATM   11  O   UNL     1      -7.346   5.964  70.630  1.00  0.00    -0.080 OA 
BRANCH   9  12
HETATM   12  C   UNL     1      -8.948   5.585  68.823  1.00  0.00    -0.120 A  
HETATM   13  C   UNL     1      -8.545   6.568  67.886  1.00  0.00    -0.117 A  
HETATM   14  C   UNL     1      -7.939   7.856  68.265  1.00  0.00    -0.122 C  
HETATM   15  C   UNL     1      -7.420   8.676  67.344  1.00  0.00    -0.089 C  
HETATM   16  C   UNL     1      -7.465   8.337  65.908  1.00  0.00    -0.081 C  
HETATM   17  N   UNL     1      -8.155   7.212  65.565  1.00  0.00    -0.129 N  
HETATM   18  O   UNL     1      -6.916   9.045  65.070  1.00  0.00    -0.078 OA 
HETATM   19  H   UNL     1      -8.282   7.010  64.573  1.00  0.00     0.000 HD 
HETATM   20  C   UNL     1      -8.702   6.314  66.499  1.00  0.00    -0.131 A  
HETATM   21  C   UNL     1      -9.335   5.146  66.062  1.00  0.00    -0.158 A  
HETATM   22  O   UNL     1      -9.546   4.864  64.741  1.00  0.00    -0.345 OA 
HETATM   23  C   UNL     1      -9.780   4.204  66.976  1.00  0.00    -0.230 A  
HETATM   24  H   UNL     1      -9.976   4.071  64.444  1.00  0.00     0.000 HD 
HETATM   25  C   UNL     1      -9.580   4.418  68.338  1.00  0.00    -0.203 A  
ENDBRANCH   9  12
ENDBRANCH   3   9
ENDBRANCH   2   3
TORSDOF 5
ENDMDL
MODEL      288
REMARK 921   NORMALIZED FREE ENERGY PREDICTED BY IDOCK:   -2.62 KCAL/MOL
REMARK 922        TOTAL FREE ENERGY PREDICTED BY IDOCK:   -4.23 KCAL/MOL
REMARK 923 INTER-LIGAND FREE ENERGY PREDICTED BY IDOCK:   -3.69 KCAL/MOL
REMARK 924 INTRA-LIGAND FREE ENERGY PREDICTED BY IDOCK:   -0.54 KCAL/MOL
REMARK 927      BINDING AFFINITY PREDICTED BY RF-SCORE:    0.00 PKD
ROOT
HETATM    1  C   UNL     1      -9.239  10.289  64.361  1.00  0.00    -0.296 C  
HETATM    2  C   UNL     1      -9.525  10.771  65.780  1.00  0.00    -0.244 C  
ENDROOT
BRANCH   2   3
HETATM    3  C   UNL     1      -8.798   9.978  66.901  1.00  0.00    -0.131 C  
BRANCH   3   4
HETATM    4  N   UNL     1      -7.320  10.019  66.767  1.00  0.00    -0.094 NA 
HETATM    5  H   UNL     1      -6.845   9.619  65.958  1.00  0.00     0.000 HD 
BRANCH   4   6
HETATM    6  C   UNL     1      -6.576  10.665  67.857  1.00  0.00    -0.060 C  
HETATM    7  C   UNL     1      -6.125  12.045  67.369  1.00  0.00    -0.130 C  
HETATM    8  C   UNL     1      -5.362   9.860  68.321  1.00  0.00    -0.036 C  
ENDBRANCH   4   6
ENDBRANCH   3   4
BRANCH   3   9
HETATM    9  C   UNL     1      -9.311   8.493  66.960  1.00  0.00    -0.161 C  
HETATM   10  H   UNL     1     -11.009   7.514  66.652  1.00  0.00     0.000 HD 
HETATM   11  O   UNL     1     -10.699   8.411  66.616  1.00  0.00    -0.195 OA 
BRANCH   9  12
HETATM   12  C   UNL     1      -9.019   7.742  68.262  1.00  0.00    -0.131 A  
HETATM   13  C   UNL     1      -9.670   7.963  69.501  1.00  0.00    -0.173 A  
HETATM   14  C   UNL     1     -10.645   9.043  69.728  1.00  0.00    -0.236 C  
HETATM   15  C   UNL     1     -11.357   9.107  70.860  1.00  0.00    -0.359 C  
HETATM   16  C   UNL     1     -11.169   8.116  71.938  1.00  0.00    -0.290 C  
HETATM   17  N   UNL     1     -10.163   7.211  71.769  1.00  0.00    -0.195 N  
HETATM   18  O   UNL     1     -11.879   8.123  72.938  1.00  0.00    -0.352 OA 
HETATM   19  H   UNL     1      -9.951   6.579  72.542  1.00  0.00     0.000 HD 
HETATM   20  C   UNL     1      -9.401   7.097  70.593  1.00  0.00    -0.158 A  
HETATM   21  C   UNL     1      -8.435   6.094  70.477  1.00  0.00    -0.137 A  
HETATM   22  O   UNL     1      -8.109   5.253  71.504  1.00  0.00    -0.111 OA 
HETATM   23  C   UNL     1      -7.756   5.905  69.283  1.00  0.00    -0.094 A  
HETATM   24  H   UNL     1      -7.452   4.571  71.426  1.00  0.00     0.000 HD 
HETATM   25  C   UNL     1      -8.052   6.715  68.188  1.00  0.00    -0.111 A  
ENDBRANCH   9  12
ENDBRANCH   3   9
ENDBRANCH   2   3
TORSDOF 5
ENDMDL
MODEL      289
REMARK 921   NORMALIZED FREE ENERGY PREDICTED BY IDOCK:   -2.60 KCAL/MOL
REMARK 922        TOTAL FREE ENERGY PREDICTED BY IDOCK:   -4.21 KCAL/MOL
REMARK 923 INTER-LIGAND FREE ENERGY PREDICTED BY IDOCK:   -4.23 KCAL/MOL
REMARK 924 INTRA-LIGAND FREE ENERGY PREDICTED BY IDOCK:    0.02 KCAL/MOL
REMARK 927      BINDING AFFINITY PREDICTED BY RF-SCORE:    0.00 PKD
ROOT
HETATM    1  C   UNL     1      -9.476   5.454  67.936  1.00  0.00    -0.137 C  
HETATM    2  C   UNL     1      -9.012   6.534  66.963  1.00  0.00    -0.121 C  
ENDROOT
BRANCH   2   3
HETATM    3  C   UNL     1      -8.918   7.963  67.565  1.00  0.00    -0.127 C  
BRANCH   3   4
HETATM    4  N   UNL     1      -8.362   8.953  66.608  1.00  0.00    -0.110 NA 
HETATM    5  H   UNL     1      -8.943   9.681  66.194  1.00  0.00     0.000 HD 
BRANCH   4   6
HETATM    6  C   UNL     1      -6.934   8.831  66.289  1.00  0.00    -0.081 C  
HETATM    7  C   UNL     1      -6.248  10.144  66.681  1.00  0.00    -0.070 C  
HETATM    8  C   UNL     1      -6.667   8.532  64.813  1.00  0.00    -0.068 C  
ENDBRANCH   4   6
ENDBRANCH   3   4
BRANCH   3   9
HETATM    9  C   UNL     1      -8.092   7.955  68.902  1.00  0.00    -0.125 C  
HETATM   10  H   UNL     1      -6.582   6.934  69.688  1.00  0.00     0.000 HD 
HETATM   11  O   UNL     1      -7.082   6.939  68.880  1.00  0.00    -0.082 OA 
BRANCH   9  12
HETATM   12  C   UNL     1      -8.916   7.887  70.190  1.00  0.00    -0.151 A  
HETATM   13  C   UNL     1     -10.010   8.728  70.510  1.00  0.00    -0.227 A  
HETATM   14  C   UNL     1     -10.428   9.872  69.682  1.00  0.00    -0.273 C  
HETATM   15  C   UNL     1     -11.566  10.531  69.933  1.00  0.00    -0.384 C  
HETATM   16  C   UNL     1     -12.430  10.157  71.069  1.00  0.00    -0.375 C  
HETATM   17  N   UNL     1     -11.956   9.191  71.908  1.00  0.00    -0.370 N  
HETATM   18  O   UNL     1     -13.514  10.702  71.251  1.00  0.00    -0.217 OA 
HETATM   19  H   UNL     1     -12.489   8.984  72.753  1.00  0.00     0.000 HD 
HETATM   20  C   UNL     1     -10.776   8.462  71.675  1.00  0.00    -0.265 A  
HETATM   21  C   UNL     1     -10.398   7.439  72.550  1.00  0.00    -0.227 A  
HETATM   22  O   UNL     1     -11.076   7.160  73.704  1.00  0.00    -0.545 OA 
HETATM   23  C   UNL     1      -9.297   6.645  72.270  1.00  0.00    -0.139 A  
HETATM   24  H   UNL     1     -10.819   6.465  74.298  1.00  0.00     0.000 HD 
HETATM   25  C   UNL     1      -8.571   6.862  71.100  1.00  0.00    -0.131 A  
ENDBRANCH   9  12
ENDBRANCH   3   9
ENDBRANCH   2   3
TORSDOF 5
ENDMDL
MODEL      290
REMARK 921   NORMALIZED FREE ENERGY PREDICTED BY IDOCK:   -2.58 KCAL/MOL
REMARK 922        TOTAL FREE ENERGY PREDICTED BY IDOCK:   -4.19 KCAL/MOL
REMARK 923 INTER-LIGAND FREE ENERGY PREDICTED BY IDOCK:   -4.62 KCAL/MOL
REMARK 924 INTRA-LIGAND FREE ENERGY PREDICTED BY IDOCK:    0.43 KCAL/MOL
REMARK 927      BINDING AFFINITY PREDICTED BY RF-SCORE:    0.00 PKD
ROOT
HETATM    1  C   UNL     1     -12.393  10.081  71.034  1.00  0.00    -0.458 C  
HETATM    2  C   UNL     1     -11.108   9.407  71.505  1.00  0.00    -0.446 C  
ENDROOT
BRANCH   2   3
HETATM    3  C   UNL     1     -10.640   8.207  70.637  1.00  0.00    -0.215 C  
BRANCH   3   4
HETATM    4  N   UNL     1     -10.370   8.588  69.228  1.00  0.00    -0.219 NA 
HETATM    5  H   UNL     1     -10.394   7.902  68.474  1.00  0.00     0.000 HD 
BRANCH   4   6
HETATM    6  C   UNL     1     -10.066  10.002  68.974  1.00  0.00    -0.200 C  
HETATM    7  C   UNL     1     -10.789  10.418  67.688  1.00  0.00    -0.361 C  
HETATM    8  C   UNL     1      -8.570  10.286  68.837  1.00  0.00    -0.150 C  
ENDBRANCH   4   6
ENDBRANCH   3   4
BRANCH   3   9
HETATM    9  C   UNL     1     -11.678   7.027  70.706  1.00  0.00    -0.349 C  
HETATM   10  H   UNL     1     -13.558   6.759  71.281  1.00  0.00     0.000 HD 
HETATM   11  O   UNL     1     -12.931   7.471  71.239  1.00  0.00    -0.331 OA 
BRANCH   9  12
HETATM   12  C   UNL     1     -11.194   5.760  71.414  1.00  0.00    -0.234 A  
HETATM   13  C   UNL     1     -10.156   4.910  70.959  1.00  0.00    -0.288 A  
HETATM   14  C   UNL     1      -9.478   5.074  69.663  1.00  0.00    -0.207 C  
HETATM   15  C   UNL     1      -8.393   4.355  69.351  1.00  0.00    -0.083 C  
HETATM   16  C   UNL     1      -7.854   3.344  70.282  1.00  0.00    -0.046 C  
HETATM   17  N   UNL     1      -8.578   3.105  71.413  1.00  0.00    -0.067 N  
HETATM   18  O   UNL     1      -6.813   2.744  70.036  1.00  0.00    -0.033 OA 
HETATM   19  H   UNL     1      -8.278   2.343  72.023  1.00  0.00     0.000 HD 
HETATM   20  C   UNL     1      -9.712   3.846  71.788  1.00  0.00    -0.173 A  
HETATM   21  C   UNL     1     -10.355   3.581  73.001  1.00  0.00    -0.165 A  
HETATM   22  O   UNL     1      -9.995   2.550  73.823  1.00  0.00    -0.097 OA 
HETATM   23  C   UNL     1     -11.406   4.377  73.429  1.00  0.00    -0.353 A  
HETATM   24  H   UNL     1     -10.432   2.370  74.647  1.00  0.00     0.000 HD 
HETATM   25  C   UNL     1     -11.813   5.458  72.648  1.00  0.00    -0.145 A  
ENDBRANCH   9  12
ENDBRANCH   3   9
ENDBRANCH   2   3
TORSDOF 5
ENDMDL
MODEL      291
REMARK 921   NORMALIZED FREE ENERGY PREDICTED BY IDOCK:   -2.57 KCAL/MOL
REMARK 922        TOTAL FREE ENERGY PREDICTED BY IDOCK:   -4.18 KCAL/MOL
REMARK 923 INTER-LIGAND FREE ENERGY PREDICTED BY IDOCK:   -3.66 KCAL/MOL
REMARK 924 INTRA-LIGAND FREE ENERGY PREDICTED BY IDOCK:   -0.52 KCAL/MOL
REMARK 927      BINDING AFFINITY PREDICTED BY RF-SCORE:    0.00 PKD
ROOT
HETATM    1  C   UNL     1      -8.782  12.989  68.366  1.00  0.00    -0.115 C  
HETATM    2  C   UNL     1      -8.036  12.939  67.036  1.00  0.00    -0.057 C  
ENDROOT
BRANCH   2   3
HETATM    3  C   UNL     1      -8.211  11.620  66.235  1.00  0.00     0.012 C  
BRANCH   3   4
HETATM    4  N   UNL     1      -9.533  11.525  65.567  1.00  0.00    -0.242 NA 
HETATM    5  H   UNL     1     -10.390  11.360  66.096  1.00  0.00     0.000 HD 
BRANCH   4   6
HETATM    6  C   UNL     1      -9.547  11.680  64.106  1.00  0.00    -0.115 C  
HETATM    7  C   UNL     1     -10.796  12.483  63.728  1.00  0.00    -0.489 C  
HETATM    8  C   UNL     1      -9.545  10.349  63.355  1.00  0.00    -0.361 C  
ENDBRANCH   4   6
ENDBRANCH   3   4
BRANCH   3   9
HETATM    9  C   UNL     1      -7.960  10.369  67.154  1.00  0.00    -0.115 C  
HETATM   10  H   UNL     1      -6.410   9.316  67.807  1.00  0.00     0.000 HD 
HETATM   11  O   UNL     1      -6.562  10.072  67.252  1.00  0.00    -0.068 OA 
BRANCH   9  12
HETATM   12  C   UNL     1      -8.768   9.117  66.805  1.00  0.00    -0.138 A  
HETATM   13  C   UNL     1      -8.385   8.128  65.866  1.00  0.00    -0.134 A  
HETATM   14  C   UNL     1      -7.197   8.239  65.003  1.00  0.00    -0.080 C  
HETATM   15  C   UNL     1      -6.782   7.208  64.257  1.00  0.00    -0.043 C  
HETATM   16  C   UNL     1      -7.520   5.930  64.244  1.00  0.00    -0.074 C  
HETATM   17  N   UNL     1      -8.695   5.893  64.935  1.00  0.00    -0.345 N  
HETATM   18  O   UNL     1      -7.096   4.958  63.628  1.00  0.00    -0.046 OA 
HETATM   19  H   UNL     1      -9.270   5.053  64.861  1.00  0.00     0.000 HD 
HETATM   20  C   UNL     1      -9.160   6.945  65.744  1.00  0.00     0.060 A  
HETATM   21  C   UNL     1     -10.342   6.798  66.476  1.00  0.00    -0.046 A  
HETATM   22  O   UNL     1     -11.147   5.698  66.375  1.00  0.00    -0.704 OA 
HETATM   23  C   UNL     1     -10.751   7.785  67.359  1.00  0.00    -0.300 A  
HETATM   24  H   UNL     1     -11.951   5.597  66.871  1.00  0.00     0.000 HD 
HETATM   25  C   UNL     1      -9.968   8.926  67.526  1.00  0.00    -0.258 A  
ENDBRANCH   9  12
ENDBRANCH   3   9
ENDBRANCH   2   3
TORSDOF 5
ENDMDL
MODEL      292
REMARK 921   NORMALIZED FREE ENERGY PREDICTED BY IDOCK:   -2.56 KCAL/MOL
REMARK 922        TOTAL FREE ENERGY PREDICTED BY IDOCK:   -4.15 KCAL/MOL
REMARK 923 INTER-LIGAND FREE ENERGY PREDICTED BY IDOCK:   -3.73 KCAL/MOL
REMARK 924 INTRA-LIGAND FREE ENERGY PREDICTED BY IDOCK:   -0.42 KCAL/MOL
REMARK 927      BINDING AFFINITY PREDICTED BY RF-SCORE:    0.00 PKD
ROOT
HETATM    1  C   UNL     1     -11.440   9.931  71.450  1.00  0.00    -0.393 C  
HETATM    2  C   UNL     1     -10.478   9.219  70.505  1.00  0.00    -0.312 C  
ENDROOT
BRANCH   2   3
HETATM    3  C   UNL     1      -9.863   7.905  71.061  1.00  0.00    -0.170 C  
BRANCH   3   4
HETATM    4  N   UNL     1      -8.547   7.585  70.453  1.00  0.00    -0.141 NA 
HETATM    5  H   UNL     1      -8.451   7.395  69.456  1.00  0.00     0.000 HD 
BRANCH   4   6
HETATM    6  C   UNL     1      -7.391   7.556  71.359  1.00  0.00    -0.078 C  
HETATM    7  C   UNL     1      -6.561   8.819  71.107  1.00  0.00    -0.071 C  
HETATM    8  C   UNL     1      -6.512   6.318  71.179  1.00  0.00    -0.049 C  
ENDBRANCH   4   6
ENDBRANCH   3   4
BRANCH   3   9
HETATM    9  C   UNL     1     -10.862   6.703  70.893  1.00  0.00    -0.252 C  
HETATM   10  H   UNL     1     -12.824   6.408  70.944  1.00  0.00     0.000 HD 
HETATM   11  O   UNL     1     -12.220   7.134  71.045  1.00  0.00    -0.342 OA 
BRANCH   9  12
HETATM   12  C   UNL     1     -10.572   5.474  71.758  1.00  0.00    -0.296 A  
HETATM   13  C   UNL     1      -9.720   4.401  71.399  1.00  0.00    -0.248 A  
HETATM   14  C   UNL     1      -9.087   4.270  70.077  1.00  0.00    -0.175 C  
HETATM   15  C   UNL     1      -8.159   3.333  69.841  1.00  0.00    -0.058 C  
HETATM   16  C   UNL     1      -7.760   2.374  70.889  1.00  0.00    -0.035 C  
HETATM   17  N   UNL     1      -8.459   2.419  72.060  1.00  0.00    -0.057 N  
HETATM   18  O   UNL     1      -6.851   1.571  70.704  1.00  0.00    -0.031 OA 
HETATM   19  H   UNL     1      -8.267   1.703  72.762  1.00  0.00     0.000 HD 
HETATM   20  C   UNL     1      -9.428   3.393  72.356  1.00  0.00    -0.121 A  
HETATM   21  C   UNL     1     -10.048   3.409  73.609  1.00  0.00    -0.124 A  
HETATM   22  O   UNL     1      -9.833   2.447  74.557  1.00  0.00    -0.095 OA 
HETATM   23  C   UNL     1     -10.924   4.428  73.948  1.00  0.00    -0.315 A  
HETATM   24  H   UNL     1     -10.255   2.458  75.408  1.00  0.00     0.000 HD 
HETATM   25  C   UNL     1     -11.175   5.452  73.036  1.00  0.00    -0.370 A  
ENDBRANCH   9  12
ENDBRANCH   3   9
ENDBRANCH   2   3
TORSDOF 5
ENDMDL
MODEL      293
REMARK 921   NORMALIZED FREE ENERGY PREDICTED BY IDOCK:   -2.55 KCAL/MOL
REMARK 922        TOTAL FREE ENERGY PREDICTED BY IDOCK:   -4.14 KCAL/MOL
REMARK 923 INTER-LIGAND FREE ENERGY PREDICTED BY IDOCK:   -3.51 KCAL/MOL
REMARK 924 INTRA-LIGAND FREE ENERGY PREDICTED BY IDOCK:   -0.64 KCAL/MOL
REMARK 927      BINDING AFFINITY PREDICTED BY RF-SCORE:    0.00 PKD
ROOT
HETATM    1  C   UNL     1     -10.756   3.597  63.173  1.00  0.00    -0.210 C  
HETATM    2  C   UNL     1      -9.333   4.113  63.370  1.00  0.00    -0.143 C  
ENDROOT
BRANCH   2   3
HETATM    3  C   UNL     1      -8.739   3.873  64.785  1.00  0.00    -0.116 C  
BRANCH   3   4
HETATM    4  N   UNL     1      -9.599   3.006  65.630  1.00  0.00    -0.366 NA 
HETATM    5  H   UNL     1     -10.547   3.281  65.886  1.00  0.00     0.000 HD 
BRANCH   4   6
HETATM    6  C   UNL     1      -9.017   1.734  66.076  1.00  0.00    -0.093 C  
HETATM    7  C   UNL     1      -9.229   1.622  67.589  1.00  0.00    -0.166 C  
HETATM    8  C   UNL     1      -7.528   1.603  65.754  1.00  0.00    -0.061 C  
ENDBRANCH   4   6
ENDBRANCH   3   4
BRANCH   3   9
HETATM    9  C   UNL     1      -8.443   5.238  65.507  1.00  0.00    -0.141 C  
HETATM   10  H   UNL     1      -6.867   6.206  66.226  1.00  0.00     0.000 HD 
HETATM   11  O   UNL     1      -7.046   5.381  65.790  1.00  0.00    -0.065 OA 
BRANCH   9  12
HETATM   12  C   UNL     1      -9.291   5.529  66.748  1.00  0.00    -0.136 A  
HETATM   13  C   UNL     1      -8.911   5.256  68.085  1.00  0.00    -0.107 A  
HETATM   14  C   UNL     1      -7.680   4.536  68.451  1.00  0.00    -0.079 C  
HETATM   15  C   UNL     1      -7.279   4.450  69.726  1.00  0.00    -0.050 C  
HETATM   16  C   UNL     1      -8.074   5.047  70.817  1.00  0.00    -0.095 C  
HETATM   17  N   UNL     1      -9.280   5.584  70.475  1.00  0.00    -0.146 N  
HETATM   18  O   UNL     1      -7.667   5.045  71.974  1.00  0.00    -0.098 OA 
HETATM   19  H   UNL     1      -9.889   5.914  71.224  1.00  0.00     0.000 HD 
HETATM   20  C   UNL     1      -9.733   5.708  69.149  1.00  0.00    -0.145 A  
HETATM   21  C   UNL     1     -10.954   6.335  68.881  1.00  0.00    -0.368 A  
HETATM   22  O   UNL     1     -11.803   6.761  69.864  1.00  0.00    -0.622 OA 
HETATM   23  C   UNL     1     -11.357   6.559  67.574  1.00  0.00    -0.103 A  
HETATM   24  H   UNL     1     -12.632   7.186  69.682  1.00  0.00     0.000 HD 
HETATM   25  C   UNL     1     -10.531   6.168  66.522  1.00  0.00    -0.195 A  
ENDBRANCH   9  12
ENDBRANCH   3   9
ENDBRANCH   2   3
TORSDOF 5
ENDMDL
MODEL      294
REMARK 921   NORMALIZED FREE ENERGY PREDICTED BY IDOCK:   -2.54 KCAL/MOL
REMARK 922        TOTAL FREE ENERGY PREDICTED BY IDOCK:   -4.13 KCAL/MOL
REMARK 923 INTER-LIGAND FREE ENERGY PREDICTED BY IDOCK:   -3.45 KCAL/MOL
REMARK 924 INTRA-LIGAND FREE ENERGY PREDICTED BY IDOCK:   -0.68 KCAL/MOL
REMARK 927      BINDING AFFINITY PREDICTED BY RF-SCORE:    0.00 PKD
ROOT
HETATM    1  C   UNL     1      -5.861   4.486  66.734  1.00  0.00    -0.026 C  
HETATM    2  C   UNL     1      -6.631   5.751  67.103  1.00  0.00    -0.056 C  
ENDROOT
BRANCH   2   3
HETATM    3  C   UNL     1      -7.971   5.509  67.851  1.00  0.00    -0.097 C  
BRANCH   3   4
HETATM    4  N   UNL     1      -9.156   5.676  66.973  1.00  0.00    -0.113 NA 
HETATM    5  H   UNL     1      -9.418   6.586  66.594  1.00  0.00     0.000 HD 
BRANCH   4   6
HETATM    6  C   UNL     1      -9.933   4.465  66.676  1.00  0.00    -0.210 C  
HETATM    7  C   UNL     1      -9.170   3.263  67.241  1.00  0.00    -0.221 C  
HETATM    8  C   UNL     1     -10.186   4.259  65.182  1.00  0.00    -0.228 C  
ENDBRANCH   4   6
ENDBRANCH   3   4
BRANCH   3   9
HETATM    9  C   UNL     1      -8.081   6.433  69.118  1.00  0.00    -0.111 C  
HETATM   10  H   UNL     1      -6.917   7.011  70.617  1.00  0.00     0.000 HD 
HETATM   11  O   UNL     1      -6.851   6.453  69.851  1.00  0.00    -0.054 OA 
BRANCH   9  12
HETATM   12  C   UNL     1      -9.270   6.154  70.040  1.00  0.00    -0.158 A  
HETATM   13  C   UNL     1      -9.355   5.092  70.973  1.00  0.00    -0.203 A  
HETATM   14  C   UNL     1      -8.341   4.031  71.095  1.00  0.00    -0.085 C  
HETATM   15  C   UNL     1      -8.377   3.148  72.100  1.00  0.00    -0.077 C  
HETATM   16  C   UNL     1      -9.454   3.183  73.109  1.00  0.00    -0.094 C  
HETATM   17  N   UNL     1     -10.461   4.080  72.899  1.00  0.00    -0.170 N  
HETATM   18  O   UNL     1      -9.444   2.432  74.077  1.00  0.00    -0.079 OA 
HETATM   19  H   UNL     1     -11.264   4.056  73.528  1.00  0.00     0.000 HD 
HETATM   20  C   UNL     1     -10.456   5.035  71.867  1.00  0.00    -0.187 A  
HETATM   21  C   UNL     1     -11.496   5.964  71.765  1.00  0.00    -0.198 A  
HETATM   22  O   UNL     1     -12.597   5.938  72.574  1.00  0.00    -0.508 OA 
HETATM   23  C   UNL     1     -11.445   6.976  70.819  1.00  0.00    -0.360 A  
HETATM   24  H   UNL     1     -13.304   6.569  72.506  1.00  0.00     0.000 HD 
HETATM   25  C   UNL     1     -10.341   7.074  69.974  1.00  0.00    -0.217 A  
ENDBRANCH   9  12
ENDBRANCH   3   9
ENDBRANCH   2   3
TORSDOF 5
ENDMDL
MODEL      295
REMARK 921   NORMALIZED FREE ENERGY PREDICTED BY IDOCK:   -2.48 KCAL/MOL
REMARK 922        TOTAL FREE ENERGY PREDICTED BY IDOCK:   -4.05 KCAL/MOL
REMARK 923 INTER-LIGAND FREE ENERGY PREDICTED BY IDOCK:   -3.16 KCAL/MOL
REMARK 924 INTRA-LIGAND FREE ENERGY PREDICTED BY IDOCK:   -0.89 KCAL/MOL
REMARK 927      BINDING AFFINITY PREDICTED BY RF-SCORE:    0.00 PKD
ROOT
HETATM    1  C   UNL     1      -7.720  10.195  69.866  1.00  0.00    -0.171 C  
HETATM    2  C   UNL     1      -7.441   9.208  68.737  1.00  0.00    -0.076 C  
ENDROOT
BRANCH   2   3
HETATM    3  C   UNL     1      -8.668   8.377  68.273  1.00  0.00    -0.143 C  
BRANCH   3   4
HETATM    4  N   UNL     1      -9.222   7.520  69.351  1.00  0.00    -0.149 NA 
HETATM    5  H   UNL     1      -8.628   6.897  69.898  1.00  0.00     0.000 HD 
BRANCH   4   6
HETATM    6  C   UNL     1     -10.667   7.616  69.593  1.00  0.00    -0.228 C  
HETATM    7  C   UNL     1     -10.880   8.418  70.881  1.00  0.00    -0.267 C  
HETATM    8  C   UNL     1     -11.352   6.254  69.717  1.00  0.00    -0.506 C  
ENDBRANCH   4   6
ENDBRANCH   3   4
BRANCH   3   9
HETATM    9  C   UNL     1      -8.317   7.518  67.004  1.00  0.00    -0.121 C  
HETATM   10  H   UNL     1      -8.771   7.501  65.072  1.00  0.00     0.000 HD 
HETATM   11  O   UNL     1      -8.983   8.020  65.839  1.00  0.00    -0.170 OA 
BRANCH   9  12
HETATM   12  C   UNL     1      -8.517   6.008  67.149  1.00  0.00    -0.104 A  
HETATM   13  C   UNL     1      -7.654   5.128  67.847  1.00  0.00    -0.084 A  
HETATM   14  C   UNL     1      -6.369   5.542  68.434  1.00  0.00    -0.038 C  
HETATM   15  C   UNL     1      -5.671   4.721  69.227  1.00  0.00    -0.016 C  
HETATM   16  C   UNL     1      -6.148   3.354  69.519  1.00  0.00    -0.024 C  
HETATM   17  N   UNL     1      -7.264   2.940  68.854  1.00  0.00    -0.048 N  
HETATM   18  O   UNL     1      -5.556   2.630  70.312  1.00  0.00    -0.015 OA 
HETATM   19  H   UNL     1      -7.556   1.968  68.965  1.00  0.00     0.000 HD 
HETATM   20  C   UNL     1      -8.036   3.773  68.024  1.00  0.00    -0.083 A  
HETATM   21  C   UNL     1      -9.207   3.286  67.435  1.00  0.00    -0.198 A  
HETATM   22  O   UNL     1      -9.607   1.983  67.542  1.00  0.00    -0.400 OA 
HETATM   23  C   UNL     1     -10.030   4.130  66.706  1.00  0.00    -0.140 A  
HETATM   24  H   UNL     1     -10.403   1.653  67.142  1.00  0.00     0.000 HD 
HETATM   25  C   UNL     1      -9.693   5.475  66.573  1.00  0.00    -0.179 A  
ENDBRANCH   9  12
ENDBRANCH   3   9
ENDBRANCH   2   3
TORSDOF 5
ENDMDL
MODEL      296
REMARK 921   NORMALIZED FREE ENERGY PREDICTED BY IDOCK:   -2.46 KCAL/MOL
REMARK 922        TOTAL FREE ENERGY PREDICTED BY IDOCK:   -4.04 KCAL/MOL
REMARK 923 INTER-LIGAND FREE ENERGY PREDICTED BY IDOCK:   -3.08 KCAL/MOL
REMARK 924 INTRA-LIGAND FREE ENERGY PREDICTED BY IDOCK:   -0.95 KCAL/MOL
REMARK 927      BINDING AFFINITY PREDICTED BY RF-SCORE:    0.00 PKD
ROOT
HETATM    1  C   UNL     1      -7.995   3.978  65.213  1.00  0.00    -0.097 C  
HETATM    2  C   UNL     1      -9.014   3.561  66.270  1.00  0.00    -0.145 C  
ENDROOT
BRANCH   2   3
HETATM    3  C   UNL     1      -9.145   4.534  67.474  1.00  0.00    -0.121 C  
BRANCH   3   4
HETATM    4  N   UNL     1      -9.238   3.826  68.776  1.00  0.00    -0.143 NA 
HETATM    5  H   UNL     1      -9.970   3.141  68.962  1.00  0.00     0.000 HD 
BRANCH   4   6
HETATM    6  C   UNL     1      -8.222   4.162  69.783  1.00  0.00    -0.058 C  
HETATM    7  C   UNL     1      -8.897   4.998  70.875  1.00  0.00    -0.156 C  
HETATM    8  C   UNL     1      -7.031   4.929  69.209  1.00  0.00    -0.051 C  
ENDBRANCH   4   6
ENDBRANCH   3   4
BRANCH   3   9
HETATM    9  C   UNL     1     -10.366   5.505  67.279  1.00  0.00    -0.236 C  
HETATM   10  H   UNL     1     -11.699   5.922  65.870  1.00  0.00     0.000 HD 
HETATM   11  O   UNL     1     -10.962   5.335  65.988  1.00  0.00    -0.171 OA 
BRANCH   9  12
HETATM   12  C   UNL     1     -10.091   6.982  67.571  1.00  0.00    -0.236 A  
HETATM   13  C   UNL     1      -9.393   7.872  66.717  1.00  0.00    -0.232 A  
HETATM   14  C   UNL     1      -8.729   7.453  65.471  1.00  0.00    -0.051 C  
HETATM   15  C   UNL     1      -8.231   8.353  64.614  1.00  0.00    -0.157 C  
HETATM   16  C   UNL     1      -8.299   9.799  64.900  1.00  0.00    -0.148 C  
HETATM   17  N   UNL     1      -8.786  10.160  66.122  1.00  0.00    -0.143 N  
HETATM   18  O   UNL     1      -7.920  10.628  64.080  1.00  0.00    -0.054 OA 
HETATM   19  H   UNL     1      -8.752  11.146  66.381  1.00  0.00     0.000 HD 
HETATM   20  C   UNL     1      -9.334   9.251  67.046  1.00  0.00    -0.144 A  
HETATM   21  C   UNL     1      -9.877   9.714  68.248  1.00  0.00    -0.150 A  
HETATM   22  O   UNL     1      -9.819  11.024  68.634  1.00  0.00    -0.181 OA 
HETATM   23  C   UNL     1     -10.515   8.840  69.114  1.00  0.00    -0.230 A  
HETATM   24  H   UNL     1     -10.188  11.339  69.451  1.00  0.00     0.000 HD 
HETATM   25  C   UNL     1     -10.628   7.493  68.774  1.00  0.00    -0.179 A  
ENDBRANCH   9  12
ENDBRANCH   3   9
ENDBRANCH   2   3
TORSDOF 5
ENDMDL
MODEL      297
REMARK 921   NORMALIZED FREE ENERGY PREDICTED BY IDOCK:   -2.45 KCAL/MOL
REMARK 922        TOTAL FREE ENERGY PREDICTED BY IDOCK:   -4.02 KCAL/MOL
REMARK 923 INTER-LIGAND FREE ENERGY PREDICTED BY IDOCK:   -3.41 KCAL/MOL
REMARK 924 INTRA-LIGAND FREE ENERGY PREDICTED BY IDOCK:   -0.60 KCAL/MOL
REMARK 927      BINDING AFFINITY PREDICTED BY RF-SCORE:    0.00 PKD
ROOT
HETATM    1  C   UNL     1     -10.345  17.778  69.644  1.00  0.00     0.326 C  
HETATM    2  C   UNL     1     -10.328  17.758  68.118  1.00  0.00    -0.393 C  
ENDROOT
BRANCH   2   3
HETATM    3  C   UNL     1     -10.148  16.352  67.483  1.00  0.00    -0.261 C  
BRANCH   3   4
HETATM    4  N   UNL     1     -11.429  15.764  67.018  1.00  0.00     0.015 NA 
HETATM    5  H   UNL     1     -11.994  15.167  67.622  1.00  0.00     0.000 HD 
BRANCH   4   6
HETATM    6  C   UNL     1     -11.843  16.085  65.646  1.00  0.00     0.881 C  
HETATM    7  C   UNL     1     -12.324  14.791  64.982  1.00  0.00    -0.209 C  
HETATM    8  C   UNL     1     -10.727  16.710  64.807  1.00  0.00     0.030 C  
ENDBRANCH   4   6
ENDBRANCH   3   4
BRANCH   3   9
HETATM    9  C   UNL     1      -9.415  15.378  68.476  1.00  0.00    -0.202 C  
HETATM   10  H   UNL     1      -7.632  14.523  68.644  1.00  0.00     0.000 HD 
HETATM   11  O   UNL     1      -8.075  15.111  68.045  1.00  0.00    -0.127 OA 
BRANCH   9  12
HETATM   12  C   UNL     1     -10.159  14.081  68.803  1.00  0.00    -0.183 A  
HETATM   13  C   UNL     1     -11.142  13.930  69.811  1.00  0.00    -0.063 A  
HETATM   14  C   UNL     1     -11.496  14.990  70.770  1.00  0.00    -0.335 C  
HETATM   15  C   UNL     1     -12.544  14.861  71.591  1.00  0.00    -0.396 C  
HETATM   16  C   UNL     1     -13.368  13.637  71.591  1.00  0.00    -0.346 C  
HETATM   17  N   UNL     1     -12.941  12.611  70.800  1.00  0.00     0.001 N  
HETATM   18  O   UNL     1     -14.379  13.550  72.281  1.00  0.00    -0.536 OA 
HETATM   19  H   UNL     1     -13.438  11.721  70.857  1.00  0.00     0.000 HD 
HETATM   20  C   UNL     1     -11.855  12.707  69.911  1.00  0.00    -0.294 A  
HETATM   21  C   UNL     1     -11.527  11.629  69.085  1.00  0.00    -0.300 A  
HETATM   22  O   UNL     1     -12.155  10.417  69.159  1.00  0.00    -0.577 OA 
HETATM   23  C   UNL     1     -10.530  11.752  68.130  1.00  0.00    -0.221 A  
HETATM   24  H   UNL     1     -11.932   9.684  68.598  1.00  0.00     0.000 HD 
HETATM   25  C   UNL     1      -9.861  12.966  67.986  1.00  0.00    -0.223 A  
ENDBRANCH   9  12
ENDBRANCH   3   9
ENDBRANCH   2   3
TORSDOF 5
ENDMDL
MODEL      298
REMARK 921   NORMALIZED FREE ENERGY PREDICTED BY IDOCK:   -2.43 KCAL/MOL
REMARK 922        TOTAL FREE ENERGY PREDICTED BY IDOCK:   -3.99 KCAL/MOL
REMARK 923 INTER-LIGAND FREE ENERGY PREDICTED BY IDOCK:   -3.72 KCAL/MOL
REMARK 924 INTRA-LIGAND FREE ENERGY PREDICTED BY IDOCK:   -0.28 KCAL/MOL
REMARK 927      BINDING AFFINITY PREDICTED BY RF-SCORE:    0.00 PKD
ROOT
HETATM    1  C   UNL     1      -9.788  14.370  65.934  1.00  0.00    -0.336 C  
HETATM    2  C   UNL     1      -9.136  15.065  67.126  1.00  0.00    -0.229 C  
ENDROOT
BRANCH   2   3
HETATM    3  C   UNL     1      -7.689  14.600  67.445  1.00  0.00    -0.201 C  
BRANCH   3   4
HETATM    4  N   UNL     1      -7.498  14.261  68.878  1.00  0.00    -0.126 NA 
HETATM    5  H   UNL     1      -7.630  14.954  69.614  1.00  0.00     0.000 HD 
BRANCH   4   6
HETATM    6  C   UNL     1      -7.110  12.877  69.182  1.00  0.00     0.033 C  
HETATM    7  C   UNL     1      -5.662  12.892  69.685  1.00  0.00    -0.104 C  
HETATM    8  C   UNL     1      -7.228  11.937  67.982  1.00  0.00    -0.090 C  
ENDBRANCH   4   6
ENDBRANCH   3   4
BRANCH   3   9
HETATM    9  C   UNL     1      -6.639  15.675  66.982  1.00  0.00     0.159 C  
HETATM   10  H   UNL     1      -4.681  15.778  66.677  1.00  0.00     0.000 HD 
HETATM   11  O   UNL     1      -5.316  15.128  66.956  1.00  0.00    -0.050 OA 
BRANCH   9  12
HETATM   12  C   UNL     1      -6.674  17.004  67.740  1.00  0.00    -0.163 A  
HETATM   13  C   UNL     1      -7.669  18.003  67.602  1.00  0.00    -0.215 A  
HETATM   14  C   UNL     1      -8.754  17.940  66.608  1.00  0.00    -0.280 C  
HETATM   15  C   UNL     1      -9.764  18.818  66.628  1.00  0.00    -0.370 C  
HETATM   16  C   UNL     1      -9.814  19.903  67.627  1.00  0.00    -0.393 C  
HETATM   17  N   UNL     1      -8.731  20.031  68.446  1.00  0.00    -0.155 N  
HETATM   18  O   UNL     1     -10.779  20.655  67.702  1.00  0.00     0.193 OA 
HETATM   19  H   UNL     1      -8.699  20.832  69.078  1.00  0.00     0.000 HD 
HETATM   20  C   UNL     1      -7.656  19.125  68.471  1.00  0.00    -0.334 A  
HETATM   21  C   UNL     1      -6.617  19.292  69.392  1.00  0.00    -0.312 A  
HETATM   22  O   UNL     1      -6.533  20.369  70.230  1.00  0.00    -0.386 OA 
HETATM   23  C   UNL     1      -5.611  18.345  69.497  1.00  0.00    -0.222 A  
HETATM   24  H   UNL     1      -5.828  20.483  70.856  1.00  0.00     0.000 HD 
HETATM   25  C   UNL     1      -5.645  17.212  68.686  1.00  0.00    -0.135 A  
ENDBRANCH   9  12
ENDBRANCH   3   9
ENDBRANCH   2   3
TORSDOF 5
ENDMDL
MODEL      299
REMARK 921   NORMALIZED FREE ENERGY PREDICTED BY IDOCK:   -2.40 KCAL/MOL
REMARK 922        TOTAL FREE ENERGY PREDICTED BY IDOCK:   -3.95 KCAL/MOL
REMARK 923 INTER-LIGAND FREE ENERGY PREDICTED BY IDOCK:   -4.20 KCAL/MOL
REMARK 924 INTRA-LIGAND FREE ENERGY PREDICTED BY IDOCK:    0.24 KCAL/MOL
REMARK 927      BINDING AFFINITY PREDICTED BY RF-SCORE:    0.00 PKD
ROOT
HETATM    1  C   UNL     1      -8.657   7.100  65.592  1.00  0.00    -0.119 C  
HETATM    2  C   UNL     1      -8.488   6.976  67.104  1.00  0.00    -0.121 C  
ENDROOT
BRANCH   2   3
HETATM    3  C   UNL     1      -8.854   8.251  67.911  1.00  0.00    -0.138 C  
BRANCH   3   4
HETATM    4  N   UNL     1     -10.185   8.157  68.562  1.00  0.00    -0.204 NA 
HETATM    5  H   UNL     1     -11.044   8.381  68.058  1.00  0.00     0.000 HD 
BRANCH   4   6
HETATM    6  C   UNL     1     -10.205   7.725  69.965  1.00  0.00    -0.210 C  
HETATM    7  C   UNL     1     -11.008   8.755  70.766  1.00  0.00    -0.294 C  
HETATM    8  C   UNL     1      -8.810   7.576  70.573  1.00  0.00    -0.147 C  
ENDBRANCH   4   6
ENDBRANCH   3   4
BRANCH   3   9
HETATM    9  C   UNL     1      -8.766   9.533  67.005  1.00  0.00    -0.128 C  
HETATM   10  H   UNL     1      -7.350  10.695  66.241  1.00  0.00     0.000 HD 
HETATM   11  O   UNL     1      -7.404   9.920  66.788  1.00  0.00    -0.093 OA 
BRANCH   9  12
HETATM   12  C   UNL     1      -9.613  10.724  67.458  1.00  0.00    -0.176 A  
HETATM   13  C   UNL     1      -9.114  11.910  68.050  1.00  0.00    -0.189 A  
HETATM   14  C   UNL     1      -7.702  12.104  68.421  1.00  0.00    -0.134 C  
HETATM   15  C   UNL     1      -7.247  13.298  68.819  1.00  0.00    -0.088 C  
HETATM   16  C   UNL     1      -8.150  14.460  68.932  1.00  0.00    -0.095 C  
HETATM   17  N   UNL     1      -9.477  14.228  68.723  1.00  0.00    -0.324 N  
HETATM   18  O   UNL     1      -7.720  15.574  69.214  1.00  0.00    -0.191 OA 
HETATM   19  H   UNL     1     -10.131  14.993  68.891  1.00  0.00     0.000 HD 
HETATM   20  C   UNL     1      -9.997  12.995  68.290  1.00  0.00    -0.235 A  
HETATM   21  C   UNL     1     -11.365  12.862  68.032  1.00  0.00    -0.292 A  
HETATM   22  O   UNL     1     -12.268  13.859  68.275  1.00  0.00    -0.477 OA 
HETATM   23  C   UNL     1     -11.869  11.685  67.501  1.00  0.00    -0.196 A  
HETATM   24  H   UNL     1     -13.197  13.769  68.100  1.00  0.00     0.000 HD 
HETATM   25  C   UNL     1     -11.002  10.634  67.210  1.00  0.00    -0.348 A  
ENDBRANCH   9  12
ENDBRANCH   3   9
ENDBRANCH   2   3
TORSDOF 5
ENDMDL
MODEL      300
REMARK 921   NORMALIZED FREE ENERGY PREDICTED BY IDOCK:   -2.35 KCAL/MOL
REMARK 922        TOTAL FREE ENERGY PREDICTED BY IDOCK:   -3.89 KCAL/MOL
REMARK 923 INTER-LIGAND FREE ENERGY PREDICTED BY IDOCK:   -3.16 KCAL/MOL
REMARK 924 INTRA-LIGAND FREE ENERGY PREDICTED BY IDOCK:   -0.72 KCAL/MOL
REMARK 927      BINDING AFFINITY PREDICTED BY RF-SCORE:    0.00 PKD
ROOT
HETATM    1  C   UNL     1      -9.451   2.868  70.041  1.00  0.00    -0.183 C  
HETATM    2  C   UNL     1      -9.560   4.151  70.859  1.00  0.00    -0.250 C  
ENDROOT
BRANCH   2   3
HETATM    3  C   UNL     1      -9.633   5.458  70.023  1.00  0.00    -0.169 C  
BRANCH   3   4
HETATM    4  N   UNL     1     -10.650   5.393  68.944  1.00  0.00    -0.174 NA 
HETATM    5  H   UNL     1     -11.603   5.078  69.125  1.00  0.00     0.000 HD 
BRANCH   4   6
HETATM    6  C   UNL     1     -10.217   5.805  67.602  1.00  0.00    -0.193 C  
HETATM    7  C   UNL     1     -10.808   7.190  67.319  1.00  0.00    -0.382 C  
HETATM    8  C   UNL     1     -10.640   4.830  66.503  1.00  0.00    -0.158 C  
ENDBRANCH   4   6
ENDBRANCH   3   4
BRANCH   3   9
HETATM    9  C   UNL     1      -8.222   5.829  69.437  1.00  0.00    -0.108 C  
HETATM   10  H   UNL     1      -6.357   5.163  69.569  1.00  0.00     0.000 HD 
HETATM   11  O   UNL     1      -7.210   4.939  69.923  1.00  0.00    -0.052 OA 
BRANCH   9  12
HETATM   12  C   UNL     1      -7.799   7.290  69.601  1.00  0.00    -0.118 A  
HETATM   13  C   UNL     1      -7.345   8.136  68.559  1.00  0.00    -0.093 A  
HETATM   14  C   UNL     1      -7.106   7.675  67.181  1.00  0.00    -0.085 C  
HETATM   15  C   UNL     1      -6.842   8.542  66.196  1.00  0.00    -0.072 C  
HETATM   16  C   UNL     1      -6.748   9.991  66.458  1.00  0.00    -0.082 C  
HETATM   17  N   UNL     1      -6.830  10.384  67.762  1.00  0.00    -0.073 N  
HETATM   18  O   UNL     1      -6.592  10.794  65.545  1.00  0.00    -0.094 OA 
HETATM   19  H   UNL     1      -6.671  11.369  67.978  1.00  0.00     0.000 HD 
HETATM   20  C   UNL     1      -7.121   9.512  68.826  1.00  0.00    -0.068 A  
HETATM   21  C   UNL     1      -7.257  10.010  70.125  1.00  0.00    -0.161 A  
HETATM   22  O   UNL     1      -7.021  11.317  70.448  1.00  0.00    -0.457 OA 
HETATM   23  C   UNL     1      -7.650   9.177  71.161  1.00  0.00    -0.093 A  
HETATM   24  H   UNL     1      -7.113  11.656  71.331  1.00  0.00     0.000 HD 
HETATM   25  C   UNL     1      -7.926   7.836  70.898  1.00  0.00    -0.097 A  
ENDBRANCH   9  12
ENDBRANCH   3   9
ENDBRANCH   2   3
TORSDOF 5
ENDMDL
MODEL      301
REMARK 921   NORMALIZED FREE ENERGY PREDICTED BY IDOCK:   -2.35 KCAL/MOL
REMARK 922        TOTAL FREE ENERGY PREDICTED BY IDOCK:   -3.88 KCAL/MOL
REMARK 923 INTER-LIGAND FREE ENERGY PREDICTED BY IDOCK:   -3.16 KCAL/MOL
REMARK 924 INTRA-LIGAND FREE ENERGY PREDICTED BY IDOCK:   -0.72 KCAL/MOL
REMARK 927      BINDING AFFINITY PREDICTED BY RF-SCORE:    0.00 PKD
ROOT
HETATM    1  C   UNL     1     -11.143   4.115  73.267  1.00  0.00    -0.318 C  
HETATM    2  C   UNL     1      -9.952   4.515  72.402  1.00  0.00    -0.229 C  
ENDROOT
BRANCH   2   3
HETATM    3  C   UNL     1     -10.314   5.005  70.973  1.00  0.00    -0.184 C  
BRANCH   3   4
HETATM    4  N   UNL     1      -9.205   4.821  70.004  1.00  0.00    -0.110 NA 
HETATM    5  H   UNL     1      -8.934   5.558  69.354  1.00  0.00     0.000 HD 
BRANCH   4   6
HETATM    6  C   UNL     1      -8.516   3.524  70.029  1.00  0.00    -0.056 C  
HETATM    7  C   UNL     1      -7.142   3.705  69.375  1.00  0.00    -0.045 C  
HETATM    8  C   UNL     1      -9.285   2.415  69.310  1.00  0.00    -0.193 C  
ENDBRANCH   4   6
ENDBRANCH   3   4
BRANCH   3   9
HETATM    9  C   UNL     1     -10.789   6.504  70.998  1.00  0.00    -0.253 C  
HETATM   10  H   UNL     1     -12.326   7.567  70.331  1.00  0.00     0.000 HD 
HETATM   11  O   UNL     1     -12.039   6.661  70.317  1.00  0.00    -0.350 OA 
BRANCH   9  12
HETATM   12  C   UNL     1      -9.764   7.532  70.518  1.00  0.00    -0.179 A  
HETATM   13  C   UNL     1      -8.669   8.016  71.275  1.00  0.00    -0.159 A  
HETATM   14  C   UNL     1      -8.441   7.674  72.689  1.00  0.00    -0.166 C  
HETATM   15  C   UNL     1      -7.307   8.016  73.312  1.00  0.00    -0.163 C  
HETATM   16  C   UNL     1      -6.253   8.779  72.615  1.00  0.00    -0.040 C  
HETATM   17  N   UNL     1      -6.542   9.210  71.353  1.00  0.00    -0.082 N  
HETATM   18  O   UNL     1      -5.179   9.020  73.155  1.00  0.00    -0.067 OA 
HETATM   19  H   UNL     1      -5.869   9.821  70.889  1.00  0.00     0.000 HD 
HETATM   20  C   UNL     1      -7.712   8.862  70.656  1.00  0.00    -0.107 A  
HETATM   21  C   UNL     1      -7.897   9.290  69.338  1.00  0.00    -0.083 A  
HETATM   22  O   UNL     1      -7.028  10.132  68.700  1.00  0.00    -0.060 OA 
HETATM   23  C   UNL     1      -8.994   8.863  68.606  1.00  0.00    -0.137 A  
HETATM   24  H   UNL     1      -7.154  10.423  67.805  1.00  0.00     0.000 HD 
HETATM   25  C   UNL     1      -9.910   7.988  69.188  1.00  0.00    -0.178 A  
ENDBRANCH   9  12
ENDBRANCH   3   9
ENDBRANCH   2   3
TORSDOF 5
ENDMDL
MODEL      302
REMARK 921   NORMALIZED FREE ENERGY PREDICTED BY IDOCK:   -2.33 KCAL/MOL
REMARK 922        TOTAL FREE ENERGY PREDICTED BY IDOCK:   -3.87 KCAL/MOL
REMARK 923 INTER-LIGAND FREE ENERGY PREDICTED BY IDOCK:   -3.87 KCAL/MOL
REMARK 924 INTRA-LIGAND FREE ENERGY PREDICTED BY IDOCK:    0.00 KCAL/MOL
REMARK 927      BINDING AFFINITY PREDICTED BY RF-SCORE:    0.00 PKD
ROOT
HETATM    1  C   UNL     1      -6.215   3.751  65.706  1.00  0.00    -0.031 C  
HETATM    2  C   UNL     1      -6.695   4.338  64.382  1.00  0.00    -0.044 C  
ENDROOT
BRANCH   2   3
HETATM    3  C   UNL     1      -8.023   5.140  64.464  1.00  0.00    -0.106 C  
BRANCH   3   4
HETATM    4  N   UNL     1      -8.817   5.064  63.212  1.00  0.00    -0.295 NA 
HETATM    5  H   UNL     1      -8.759   5.789  62.497  1.00  0.00     0.000 HD 
BRANCH   4   6
HETATM    6  C   UNL     1      -9.690   3.893  63.055  1.00  0.00    -0.150 C  
HETATM    7  C   UNL     1     -10.894   4.072  63.985  1.00  0.00    -0.115 C  
HETATM    8  C   UNL     1      -8.990   2.570  63.367  1.00  0.00    -0.092 C  
ENDBRANCH   4   6
ENDBRANCH   3   4
BRANCH   3   9
HETATM    9  C   UNL     1      -7.751   6.637  64.861  1.00  0.00    -0.109 C  
HETATM   10  H   UNL     1      -6.256   7.709  65.607  1.00  0.00     0.000 HD 
HETATM   11  O   UNL     1      -6.421   6.804  65.366  1.00  0.00    -0.044 OA 
BRANCH   9  12
HETATM   12  C   UNL     1      -8.781   7.272  65.797  1.00  0.00    -0.129 A  
HETATM   13  C   UNL     1      -9.356   6.648  66.932  1.00  0.00    -0.171 A  
HETATM   14  C   UNL     1      -9.119   5.241  67.295  1.00  0.00    -0.112 C  
HETATM   15  C   UNL     1      -9.544   4.744  68.463  1.00  0.00    -0.218 C  
HETATM   16  C   UNL     1     -10.296   5.581  69.419  1.00  0.00    -0.278 C  
HETATM   17  N   UNL     1     -10.630   6.836  69.005  1.00  0.00    -0.216 N  
HETATM   18  O   UNL     1     -10.612   5.154  70.524  1.00  0.00    -0.242 OA 
HETATM   19  H   UNL     1     -11.232   7.397  69.608  1.00  0.00     0.000 HD 
HETATM   20  C   UNL     1     -10.192   7.403  67.794  1.00  0.00    -0.196 A  
HETATM   21  C   UNL     1     -10.522   8.725  67.478  1.00  0.00    -0.271 A  
HETATM   22  O   UNL     1     -11.350   9.489  68.252  1.00  0.00    -0.505 OA 
HETATM   23  C   UNL     1     -10.006   9.326  66.341  1.00  0.00    -0.356 A  
HETATM   24  H   UNL     1     -11.575  10.387  68.037  1.00  0.00     0.000 HD 
HETATM   25  C   UNL     1      -9.140   8.610  65.517  1.00  0.00    -0.190 A  
ENDBRANCH   9  12
ENDBRANCH   3   9
ENDBRANCH   2   3
TORSDOF 5
ENDMDL
MODEL      303
REMARK 921   NORMALIZED FREE ENERGY PREDICTED BY IDOCK:   -2.33 KCAL/MOL
REMARK 922        TOTAL FREE ENERGY PREDICTED BY IDOCK:   -3.86 KCAL/MOL
REMARK 923 INTER-LIGAND FREE ENERGY PREDICTED BY IDOCK:   -3.83 KCAL/MOL
REMARK 924 INTRA-LIGAND FREE ENERGY PREDICTED BY IDOCK:   -0.03 KCAL/MOL
REMARK 927      BINDING AFFINITY PREDICTED BY RF-SCORE:    0.00 PKD
ROOT
HETATM    1  C   UNL     1     -10.860  17.951  66.387  1.00  0.00     0.042 C  
HETATM    2  C   UNL     1     -10.283  17.027  67.455  1.00  0.00    -0.323 C  
ENDROOT
BRANCH   2   3
HETATM    3  C   UNL     1      -9.002  16.256  67.033  1.00  0.00    -0.206 C  
BRANCH   3   4
HETATM    4  N   UNL     1      -8.259  16.933  65.941  1.00  0.00    -0.454 NA 
HETATM    5  H   UNL     1      -8.675  17.081  65.022  1.00  0.00     0.000 HD 
BRANCH   4   6
HETATM    6  C   UNL     1      -6.894  17.379  66.250  1.00  0.00    -0.272 C  
HETATM    7  C   UNL     1      -6.744  17.424  67.774  1.00  0.00    -0.172 C  
HETATM    8  C   UNL     1      -6.556  18.749  65.660  1.00  0.00    -0.308 C  
ENDBRANCH   4   6
ENDBRANCH   3   4
BRANCH   3   9
HETATM    9  C   UNL     1      -9.345  14.773  66.639  1.00  0.00    -0.268 C  
HETATM   10  H   UNL     1     -10.947  13.727  66.113  1.00  0.00     0.000 HD 
HETATM   11  O   UNL     1     -10.740  14.623  66.351  1.00  0.00    -0.298 OA 
BRANCH   9  12
HETATM   12  C   UNL     1      -8.862  13.699  67.616  1.00  0.00    -0.194 A  
HETATM   13  C   UNL     1      -9.669  12.680  68.180  1.00  0.00    -0.219 A  
HETATM   14  C   UNL     1     -11.126  12.594  67.987  1.00  0.00    -0.288 C  
HETATM   15  C   UNL     1     -11.818  11.524  68.397  1.00  0.00    -0.353 C  
HETATM   16  C   UNL     1     -11.152  10.402  69.087  1.00  0.00    -0.246 C  
HETATM   17  N   UNL     1      -9.831  10.564  69.384  1.00  0.00    -0.336 N  
HETATM   18  O   UNL     1     -11.767   9.385  69.387  1.00  0.00     0.221 OA 
HETATM   19  H   UNL     1      -9.373   9.845  69.946  1.00  0.00     0.000 HD 
HETATM   20  C   UNL     1      -9.062  11.663  68.961  1.00  0.00     0.198 A  
HETATM   21  C   UNL     1      -7.695  11.716  69.250  1.00  0.00     0.166 A  
HETATM   22  O   UNL     1      -7.062  10.784  70.024  1.00  0.00    -0.266 OA 
HETATM   23  C   UNL     1      -6.908  12.739  68.744  1.00  0.00    -0.096 A  
HETATM   24  H   UNL     1      -6.133  10.820  70.221  1.00  0.00     0.000 HD 
HETATM   25  C   UNL     1      -7.485  13.713  67.931  1.00  0.00    -0.158 A  
ENDBRANCH   9  12
ENDBRANCH   3   9
ENDBRANCH   2   3
TORSDOF 5
ENDMDL
MODEL      304
REMARK 921   NORMALIZED FREE ENERGY PREDICTED BY IDOCK:   -2.17 KCAL/MOL
REMARK 922        TOTAL FREE ENERGY PREDICTED BY IDOCK:   -3.66 KCAL/MOL
REMARK 923 INTER-LIGAND FREE ENERGY PREDICTED BY IDOCK:   -3.41 KCAL/MOL
REMARK 924 INTRA-LIGAND FREE ENERGY PREDICTED BY IDOCK:   -0.25 KCAL/MOL
REMARK 927      BINDING AFFINITY PREDICTED BY RF-SCORE:    0.00 PKD
ROOT
HETATM    1  C   UNL     1      -7.409  10.831  63.252  1.00  0.00     0.231 C  
HETATM    2  C   UNL     1      -8.640   9.930  63.263  1.00  0.00    -0.204 C  
ENDROOT
BRANCH   2   3
HETATM    3  C   UNL     1      -9.265   9.691  64.665  1.00  0.00    -0.234 C  
BRANCH   3   4
HETATM    4  N   UNL     1      -9.663  10.953  65.339  1.00  0.00    -0.222 NA 
HETATM    5  H   UNL     1      -9.548  11.082  66.344  1.00  0.00     0.000 HD 
BRANCH   4   6
HETATM    6  C   UNL     1     -10.230  12.006  64.486  1.00  0.00    -0.286 C  
HETATM    7  C   UNL     1     -10.547  13.214  65.374  1.00  0.00    -0.311 C  
HETATM    8  C   UNL     1     -11.492  11.569  63.743  1.00  0.00    -0.380 C  
ENDBRANCH   4   6
ENDBRANCH   3   4
BRANCH   3   9
HETATM    9  C   UNL     1      -8.295   8.855  65.576  1.00  0.00    -0.136 C  
HETATM   10  H   UNL     1      -6.998   7.368  65.362  1.00  0.00     0.000 HD 
HETATM   11  O   UNL     1      -7.585   7.874  64.812  1.00  0.00    -0.095 OA 
BRANCH   9  12
HETATM   12  C   UNL     1      -8.927   8.233  66.823  1.00  0.00    -0.174 A  
HETATM   13  C   UNL     1      -8.333   8.182  68.108  1.00  0.00    -0.129 A  
HETATM   14  C   UNL     1      -6.956   8.624  68.387  1.00  0.00    -0.066 C  
HETATM   15  C   UNL     1      -6.497   8.716  69.641  1.00  0.00    -0.039 C  
HETATM   16  C   UNL     1      -7.344   8.346  70.792  1.00  0.00    -0.060 C  
HETATM   17  N   UNL     1      -8.563   7.804  70.508  1.00  0.00    -0.131 N  
HETATM   18  O   UNL     1      -6.957   8.510  71.944  1.00  0.00    -0.084 OA 
HETATM   19  H   UNL     1      -9.125   7.452  71.283  1.00  0.00     0.000 HD 
HETATM   20  C   UNL     1      -9.091   7.703  69.208  1.00  0.00    -0.145 A  
HETATM   21  C   UNL     1     -10.380   7.198  69.011  1.00  0.00    -0.199 A  
HETATM   22  O   UNL     1     -11.143   6.693  70.026  1.00  0.00    -0.282 OA 
HETATM   23  C   UNL     1     -10.949   7.196  67.747  1.00  0.00    -0.187 A  
HETATM   24  H   UNL     1     -12.019   6.349  69.893  1.00  0.00     0.000 HD 
HETATM   25  C   UNL     1     -10.234   7.715  66.670  1.00  0.00    -0.272 A  
ENDBRANCH   9  12
ENDBRANCH   3   9
ENDBRANCH   2   3
TORSDOF 5
ENDMDL
MODEL      305
REMARK 921   NORMALIZED FREE ENERGY PREDICTED BY IDOCK:   -2.12 KCAL/MOL
REMARK 922        TOTAL FREE ENERGY PREDICTED BY IDOCK:   -3.58 KCAL/MOL
REMARK 923 INTER-LIGAND FREE ENERGY PREDICTED BY IDOCK:   -2.96 KCAL/MOL
REMARK 924 INTRA-LIGAND FREE ENERGY PREDICTED BY IDOCK:   -0.62 KCAL/MOL
REMARK 927      BINDING AFFINITY PREDICTED BY RF-SCORE:    0.00 PKD
ROOT
HETATM    1  C   UNL     1     -10.374   8.252  69.426  1.00  0.00    -0.223 C  
HETATM    2  C   UNL     1      -9.264   7.346  69.949  1.00  0.00    -0.144 C  
ENDROOT
BRANCH   2   3
HETATM    3  C   UNL     1      -7.849   7.649  69.383  1.00  0.00    -0.123 C  
BRANCH   3   4
HETATM    4  N   UNL     1      -7.885   8.531  68.189  1.00  0.00    -0.102 NA 
HETATM    5  H   UNL     1      -8.297   8.223  67.308  1.00  0.00     0.000 HD 
BRANCH   4   6
HETATM    6  C   UNL     1      -7.300   9.870  68.340  1.00  0.00    -0.078 C  
HETATM    7  C   UNL     1      -6.710   9.972  69.751  1.00  0.00    -0.086 C  
HETATM    8  C   UNL     1      -8.307  10.999  68.121  1.00  0.00    -0.130 C  
ENDBRANCH   4   6
ENDBRANCH   3   4
BRANCH   3   9
HETATM    9  C   UNL     1      -7.073   6.318  69.069  1.00  0.00    -0.081 C  
HETATM   10  H   UNL     1      -5.631   5.713  67.848  1.00  0.00     0.000 HD 
HETATM   11  O   UNL     1      -6.100   6.517  68.038  1.00  0.00    -0.025 OA 
BRANCH   9  12
HETATM   12  C   UNL     1      -7.946   5.095  68.778  1.00  0.00    -0.082 A  
HETATM   13  C   UNL     1      -8.634   4.848  67.564  1.00  0.00    -0.104 A  
HETATM   14  C   UNL     1      -8.694   5.810  66.450  1.00  0.00    -0.128 C  
HETATM   15  C   UNL     1      -9.209   5.466  65.264  1.00  0.00    -0.009 C  
HETATM   16  C   UNL     1      -9.768   4.119  65.035  1.00  0.00    -0.194 C  
HETATM   17  N   UNL     1      -9.834   3.291  66.117  1.00  0.00    -0.401 N  
HETATM   18  O   UNL     1     -10.162   3.773  63.927  1.00  0.00    -0.190 OA 
HETATM   19  H   UNL     1     -10.304   2.392  66.007  1.00  0.00     0.000 HD 
HETATM   20  C   UNL     1      -9.292   3.604  67.377  1.00  0.00    -0.203 A  
HETATM   21  C   UNL     1      -9.341   2.669  68.415  1.00  0.00    -0.197 A  
HETATM   22  O   UNL     1      -9.989   1.470  68.305  1.00  0.00    -0.279 OA 
HETATM   23  C   UNL     1      -8.715   2.926  69.624  1.00  0.00    -0.131 A  
HETATM   24  H   UNL     1     -10.023   0.834  69.010  1.00  0.00     0.000 HD 
HETATM   25  C   UNL     1      -8.019   4.121  69.798  1.00  0.00    -0.056 A  
ENDBRANCH   9  12
ENDBRANCH   3   9
ENDBRANCH   2   3
TORSDOF 5
ENDMDL
MODEL      306
REMARK 921   NORMALIZED FREE ENERGY PREDICTED BY IDOCK:   -2.01 KCAL/MOL
REMARK 922        TOTAL FREE ENERGY PREDICTED BY IDOCK:   -3.45 KCAL/MOL
REMARK 923 INTER-LIGAND FREE ENERGY PREDICTED BY IDOCK:   -3.05 KCAL/MOL
REMARK 924 INTRA-LIGAND FREE ENERGY PREDICTED BY IDOCK:   -0.39 KCAL/MOL
REMARK 927      BINDING AFFINITY PREDICTED BY RF-SCORE:    0.00 PKD
ROOT
HETATM    1  C   UNL     1      -6.034   6.452  65.074  1.00  0.00    -0.029 C  
HETATM    2  C   UNL     1      -7.056   6.826  66.144  1.00  0.00    -0.066 C  
ENDROOT
BRANCH   2   3
HETATM    3  C   UNL     1      -7.602   5.632  66.974  1.00  0.00    -0.096 C  
BRANCH   3   4
HETATM    4  N   UNL     1      -8.728   4.935  66.304  1.00  0.00    -0.114 NA 
HETATM    5  H   UNL     1      -9.526   5.446  65.927  1.00  0.00     0.000 HD 
BRANCH   4   6
HETATM    6  C   UNL     1      -8.636   3.472  66.211  1.00  0.00    -0.117 C  
HETATM    7  C   UNL     1      -7.190   3.068  66.518  1.00  0.00    -0.066 C  
HETATM    8  C   UNL     1      -9.042   2.925  64.841  1.00  0.00    -0.141 C  
ENDBRANCH   4   6
ENDBRANCH   3   4
BRANCH   3   9
HETATM    9  C   UNL     1      -8.015   6.097  68.419  1.00  0.00    -0.108 C  
HETATM   10  H   UNL     1      -9.574   5.909  69.631  1.00  0.00     0.000 HD 
HETATM   11  O   UNL     1      -9.325   5.628  68.758  1.00  0.00    -0.119 OA 
BRANCH   9  12
HETATM   12  C   UNL     1      -7.873   7.594  68.699  1.00  0.00    -0.121 A  
HETATM   13  C   UNL     1      -8.830   8.586  68.371  1.00  0.00    -0.139 A  
HETATM   14  C   UNL     1     -10.053   8.313  67.599  1.00  0.00    -0.268 C  
HETATM   15  C   UNL     1     -11.007   9.242  67.460  1.00  0.00    -0.047 C  
HETATM   16  C   UNL     1     -10.855  10.587  68.049  1.00  0.00    -0.263 C  
HETATM   17  N   UNL     1      -9.656  10.867  68.637  1.00  0.00    -0.184 N  
HETATM   18  O   UNL     1     -11.762  11.411  67.996  1.00  0.00    -0.484 OA 
HETATM   19  H   UNL     1      -9.492  11.819  68.964  1.00  0.00     0.000 HD 
HETATM   20  C   UNL     1      -8.634   9.918  68.818  1.00  0.00    -0.130 A  
HETATM   21  C   UNL     1      -7.462  10.271  69.495  1.00  0.00    -0.142 A  
HETATM   22  O   UNL     1      -7.202  11.545  69.918  1.00  0.00    -0.341 OA 
HETATM   23  C   UNL     1      -6.496   9.317  69.773  1.00  0.00    -0.040 A  
HETATM   24  H   UNL     1      -6.406  11.785  70.377  1.00  0.00     0.000 HD 
HETATM   25  C   UNL     1      -6.705   7.994  69.388  1.00  0.00    -0.039 A  
ENDBRANCH   9  12
ENDBRANCH   3   9
ENDBRANCH   2   3
TORSDOF 5
ENDMDL
MODEL      307
REMARK 921   NORMALIZED FREE ENERGY PREDICTED BY IDOCK:   -1.90 KCAL/MOL
REMARK 922        TOTAL FREE ENERGY PREDICTED BY IDOCK:   -3.30 KCAL/MOL
REMARK 923 INTER-LIGAND FREE ENERGY PREDICTED BY IDOCK:   -3.16 KCAL/MOL
REMARK 924 INTRA-LIGAND FREE ENERGY PREDICTED BY IDOCK:   -0.14 KCAL/MOL
REMARK 927      BINDING AFFINITY PREDICTED BY RF-SCORE:    0.00 PKD
ROOT
HETATM    1  C   UNL     1      -9.516  11.789  67.632  1.00  0.00    -0.180 C  
HETATM    2  C   UNL     1      -8.071  12.025  68.062  1.00  0.00    -0.153 C  
ENDROOT
BRANCH   2   3
HETATM    3  C   UNL     1      -7.223  12.872  67.074  1.00  0.00     0.173 C  
BRANCH   3   4
HETATM    4  N   UNL     1      -6.041  12.138  66.557  1.00  0.00    -0.473 NA 
HETATM    5  H   UNL     1      -5.093  12.378  66.848  1.00  0.00     0.000 HD 
BRANCH   4   6
HETATM    6  C   UNL     1      -6.303  11.049  65.607  1.00  0.00     0.087 C  
HETATM    7  C   UNL     1      -5.154  11.018  64.594  1.00  0.00     0.086 C  
HETATM    8  C   UNL     1      -7.635  11.197  64.870  1.00  0.00     0.671 C  
ENDBRANCH   4   6
ENDBRANCH   3   4
BRANCH   3   9
HETATM    9  C   UNL     1      -6.791  14.234  67.730  1.00  0.00    -0.175 C  
HETATM   10  H   UNL     1      -6.305  14.904  69.534  1.00  0.00     0.000 HD 
HETATM   11  O   UNL     1      -6.566  14.081  69.137  1.00  0.00    -0.102 OA 
BRANCH   9  12
HETATM   12  C   UNL     1      -7.703  15.428  67.442  1.00  0.00    -0.224 A  
HETATM   13  C   UNL     1      -7.541  16.732  67.971  1.00  0.00    -0.173 A  
HETATM   14  C   UNL     1      -6.525  17.083  68.977  1.00  0.00    -0.202 C  
HETATM   15  C   UNL     1      -6.298  18.357  69.320  1.00  0.00    -0.269 C  
HETATM   16  C   UNL     1      -7.083  19.458  68.726  1.00  0.00    -0.347 C  
HETATM   17  N   UNL     1      -8.114  19.103  67.907  1.00  0.00    -0.281 N  
HETATM   18  O   UNL     1      -6.821  20.630  68.973  1.00  0.00    -0.063 OA 
HETATM   19  H   UNL     1      -8.730  19.841  67.563  1.00  0.00     0.000 HD 
HETATM   20  C   UNL     1      -8.378  17.781  67.508  1.00  0.00    -0.226 A  
HETATM   21  C   UNL     1      -9.414  17.512  66.608  1.00  0.00    -0.275 A  
HETATM   22  O   UNL     1     -10.272  18.475  66.154  1.00  0.00    -0.395 OA 
HETATM   23  C   UNL     1      -9.612  16.228  66.126  1.00  0.00    -0.362 A  
HETATM   24  H   UNL     1     -10.976  18.292  65.543  1.00  0.00     0.000 HD 
HETATM   25  C   UNL     1      -8.761  15.201  66.532  1.00  0.00    -0.280 A  
ENDBRANCH   9  12
ENDBRANCH   3   9
ENDBRANCH   2   3
TORSDOF 5
ENDMDL
MODEL      308
REMARK 921   NORMALIZED FREE ENERGY PREDICTED BY IDOCK:   -1.85 KCAL/MOL
REMARK 922        TOTAL FREE ENERGY PREDICTED BY IDOCK:   -3.25 KCAL/MOL
REMARK 923 INTER-LIGAND FREE ENERGY PREDICTED BY IDOCK:   -2.21 KCAL/MOL
REMARK 924 INTRA-LIGAND FREE ENERGY PREDICTED BY IDOCK:   -1.04 KCAL/MOL
REMARK 927      BINDING AFFINITY PREDICTED BY RF-SCORE:    0.00 PKD
ROOT
HETATM    1  C   UNL     1      -9.380   2.800  70.067  1.00  0.00    -0.202 C  
HETATM    2  C   UNL     1      -9.069   4.238  70.470  1.00  0.00    -0.169 C  
ENDROOT
BRANCH   2   3
HETATM    3  C   UNL     1      -8.146   5.009  69.486  1.00  0.00    -0.078 C  
BRANCH   3   4
HETATM    4  N   UNL     1      -6.935   5.558  70.146  1.00  0.00    -0.062 NA 
HETATM    5  H   UNL     1      -6.347   4.983  70.750  1.00  0.00     0.000 HD 
BRANCH   4   6
HETATM    6  C   UNL     1      -6.624   6.970  69.886  1.00  0.00    -0.044 C  
HETATM    7  C   UNL     1      -5.392   7.022  68.976  1.00  0.00    -0.014 C  
HETATM    8  C   UNL     1      -6.359   7.776  71.157  1.00  0.00    -0.034 C  
ENDBRANCH   4   6
ENDBRANCH   3   4
BRANCH   3   9
HETATM    9  C   UNL     1      -8.941   6.146  68.746  1.00  0.00    -0.123 C  
HETATM   10  H   UNL     1     -10.788   6.872  68.728  1.00  0.00     0.000 HD 
HETATM   11  O   UNL     1     -10.307   6.185  69.175  1.00  0.00    -0.179 OA 
BRANCH   9  12
HETATM   12  C   UNL     1      -8.840   6.139  67.219  1.00  0.00    -0.107 A  
HETATM   13  C   UNL     1      -8.408   7.225  66.420  1.00  0.00    -0.124 A  
HETATM   14  C   UNL     1      -8.107   8.563  66.956  1.00  0.00    -0.103 C  
HETATM   15  C   UNL     1      -7.541   9.506  66.193  1.00  0.00    -0.100 C  
HETATM   16  C   UNL     1      -7.226   9.251  64.773  1.00  0.00    -0.103 C  
HETATM   17  N   UNL     1      -7.643   8.059  64.257  1.00  0.00    -0.110 N  
HETATM   18  O   UNL     1      -6.632  10.082  64.095  1.00  0.00    -0.123 OA 
HETATM   19  H   UNL     1      -7.524   7.901  63.256  1.00  0.00     0.000 HD 
HETATM   20  C   UNL     1      -8.226   7.035  65.025  1.00  0.00    -0.090 A  
HETATM   21  C   UNL     1      -8.560   5.815  64.429  1.00  0.00     0.054 A  
HETATM   22  O   UNL     1      -8.439   5.585  63.087  1.00  0.00    -0.210 OA 
HETATM   23  C   UNL     1      -9.034   4.763  65.198  1.00  0.00    -0.152 A  
HETATM   24  H   UNL     1      -8.666   4.756  62.682  1.00  0.00     0.000 HD 
HETATM   25  C   UNL     1      -9.163   4.922  66.577  1.00  0.00    -0.135 A  
ENDBRANCH   9  12
ENDBRANCH   3   9
ENDBRANCH   2   3
TORSDOF 5
ENDMDL
MODEL      309
REMARK 921   NORMALIZED FREE ENERGY PREDICTED BY IDOCK:   -1.83 KCAL/MOL
REMARK 922        TOTAL FREE ENERGY PREDICTED BY IDOCK:   -3.22 KCAL/MOL
REMARK 923 INTER-LIGAND FREE ENERGY PREDICTED BY IDOCK:   -2.82 KCAL/MOL
REMARK 924 INTRA-LIGAND FREE ENERGY PREDICTED BY IDOCK:   -0.40 KCAL/MOL
REMARK 927      BINDING AFFINITY PREDICTED BY RF-SCORE:    0.00 PKD
ROOT
HETATM    1  C   UNL     1      -7.450  18.176  69.718  1.00  0.00     0.681 C  
HETATM    2  C   UNL     1      -6.760  17.458  68.562  1.00  0.00    -0.195 C  
ENDROOT
BRANCH   2   3
HETATM    3  C   UNL     1      -6.682  15.913  68.703  1.00  0.00    -0.119 C  
BRANCH   3   4
HETATM    4  N   UNL     1      -5.344  15.443  69.141  1.00  0.00    -0.095 NA 
HETATM    5  H   UNL     1      -4.486  15.858  68.780  1.00  0.00     0.000 HD 
BRANCH   4   6
HETATM    6  C   UNL     1      -5.318  14.350  70.123  1.00  0.00    -0.100 C  
HETATM    7  C   UNL     1      -6.438  13.368  69.768  1.00  0.00    -0.033 C  
HETATM    8  C   UNL     1      -5.490  14.828  71.565  1.00  0.00    -0.062 C  
ENDBRANCH   4   6
ENDBRANCH   3   4
BRANCH   3   9
HETATM    9  C   UNL     1      -7.110  15.206  67.365  1.00  0.00    -0.187 C  
HETATM   10  H   UNL     1      -6.938  15.528  65.415  1.00  0.00     0.000 HD 
HETATM   11  O   UNL     1      -6.680  15.955  66.223  1.00  0.00     0.315 OA 
BRANCH   9  12
HETATM   12  C   UNL     1      -8.590  14.834  67.256  1.00  0.00    -0.230 A  
HETATM   13  C   UNL     1      -9.099  13.519  67.117  1.00  0.00    -0.232 A  
HETATM   14  C   UNL     1      -8.248  12.331  66.937  1.00  0.00    -0.112 C  
HETATM   15  C   UNL     1      -8.762  11.096  66.981  1.00  0.00    -0.148 C  
HETATM   16  C   UNL     1     -10.209  10.878  67.178  1.00  0.00    -0.210 C  
HETATM   17  N   UNL     1     -10.999  11.989  67.198  1.00  0.00    -0.255 N  
HETATM   18  O   UNL     1     -10.670   9.749  67.303  1.00  0.00    -0.264 OA 
HETATM   19  H   UNL     1     -12.010  11.859  67.236  1.00  0.00     0.000 HD 
HETATM   20  C   UNL     1     -10.501  13.304  67.172  1.00  0.00    -0.248 A  
HETATM   21  C   UNL     1     -11.378  14.389  67.267  1.00  0.00    -0.342 A  
HETATM   22  O   UNL     1     -12.737  14.246  67.289  1.00  0.00    -0.444 OA 
HETATM   23  C   UNL     1     -10.889  15.683  67.351  1.00  0.00    -0.315 A  
HETATM   24  H   UNL     1     -13.333  14.983  67.354  1.00  0.00     0.000 HD 
HETATM   25  C   UNL     1      -9.512  15.900  67.354  1.00  0.00    -0.220 A  
ENDBRANCH   9  12
ENDBRANCH   3   9
ENDBRANCH   2   3
TORSDOF 5
ENDMDL
MODEL      310
REMARK 921   NORMALIZED FREE ENERGY PREDICTED BY IDOCK:   -1.79 KCAL/MOL
REMARK 922        TOTAL FREE ENERGY PREDICTED BY IDOCK:   -3.16 KCAL/MOL
REMARK 923 INTER-LIGAND FREE ENERGY PREDICTED BY IDOCK:   -3.99 KCAL/MOL
REMARK 924 INTRA-LIGAND FREE ENERGY PREDICTED BY IDOCK:    0.83 KCAL/MOL
REMARK 927      BINDING AFFINITY PREDICTED BY RF-SCORE:    0.00 PKD
ROOT
HETATM    1  C   UNL     1      -5.613   5.463  71.501  1.00  0.00    -0.009 C  
HETATM    2  C   UNL     1      -7.045   5.121  71.905  1.00  0.00    -0.075 C  
ENDROOT
BRANCH   2   3
HETATM    3  C   UNL     1      -7.931   6.342  72.274  1.00  0.00    -0.103 C  
BRANCH   3   4
HETATM    4  N   UNL     1      -9.382   6.031  72.237  1.00  0.00    -0.144 NA 
HETATM    5  H   UNL     1     -10.063   6.695  71.868  1.00  0.00     0.000 HD 
BRANCH   4   6
HETATM    6  C   UNL     1      -9.789   4.719  72.758  1.00  0.00    -0.144 C  
HETATM    7  C   UNL     1      -9.044   4.482  74.076  1.00  0.00    -0.107 C  
HETATM    8  C   UNL     1      -9.504   3.569  71.792  1.00  0.00    -0.212 C  
ENDBRANCH   4   6
ENDBRANCH   3   4
BRANCH   3   9
HETATM    9  C   UNL     1      -7.601   7.574  71.354  1.00  0.00    -0.081 C  
HETATM   10  H   UNL     1      -7.382   9.536  71.551  1.00  0.00     0.000 HD 
HETATM   11  O   UNL     1      -7.581   8.792  72.107  1.00  0.00    -0.304 OA 
BRANCH   9  12
HETATM   12  C   UNL     1      -8.466   7.713  70.099  1.00  0.00    -0.138 A  
HETATM   13  C   UNL     1      -9.570   8.590  69.955  1.00  0.00    -0.170 A  
HETATM   14  C   UNL     1     -10.109   9.409  71.054  1.00  0.00    -0.353 C  
HETATM   15  C   UNL     1     -11.039  10.344  70.830  1.00  0.00    -0.084 C  
HETATM   16  C   UNL     1     -11.585  10.570  69.478  1.00  0.00    -0.260 C  
HETATM   17  N   UNL     1     -11.180   9.708  68.501  1.00  0.00    -0.494 N  
HETATM   18  O   UNL     1     -12.374  11.482  69.254  1.00  0.00    -0.242 OA 
HETATM   19  H   UNL     1     -11.617   9.783  67.583  1.00  0.00     0.000 HD 
HETATM   20  C   UNL     1     -10.195   8.722  68.688  1.00  0.00    -0.194 A  
HETATM   21  C   UNL     1      -9.787   7.925  67.614  1.00  0.00    -0.165 A  
HETATM   22  O   UNL     1     -10.374   7.983  66.380  1.00  0.00    -0.471 OA 
HETATM   23  C   UNL     1      -8.742   7.026  67.761  1.00  0.00    -0.121 A  
HETATM   24  H   UNL     1     -10.097   7.441  65.650  1.00  0.00     0.000 HD 
HETATM   25  C   UNL     1      -8.085   6.930  68.986  1.00  0.00    -0.117 A  
ENDBRANCH   9  12
ENDBRANCH   3   9
ENDBRANCH   2   3
TORSDOF 5
ENDMDL
MODEL      311
REMARK 921   NORMALIZED FREE ENERGY PREDICTED BY IDOCK:   -1.72 KCAL/MOL
REMARK 922        TOTAL FREE ENERGY PREDICTED BY IDOCK:   -3.07 KCAL/MOL
REMARK 923 INTER-LIGAND FREE ENERGY PREDICTED BY IDOCK:   -3.31 KCAL/MOL
REMARK 924 INTRA-LIGAND FREE ENERGY PREDICTED BY IDOCK:    0.24 KCAL/MOL
REMARK 927      BINDING AFFINITY PREDICTED BY RF-SCORE:    0.00 PKD
ROOT
HETATM    1  C   UNL     1      -9.091  17.554  66.517  1.00  0.00    -0.284 C  
HETATM    2  C   UNL     1      -8.926  17.000  67.929  1.00  0.00    -0.228 C  
ENDROOT
BRANCH   2   3
HETATM    3  C   UNL     1      -7.498  16.491  68.271  1.00  0.00    -0.171 C  
BRANCH   3   4
HETATM    4  N   UNL     1      -6.465  17.549  68.141  1.00  0.00    -0.174 NA 
HETATM    5  H   UNL     1      -5.779  17.537  67.387  1.00  0.00     0.000 HD 
BRANCH   4   6
HETATM    6  C   UNL     1      -6.480  18.613  69.153  1.00  0.00    -0.269 C  
HETATM    7  C   UNL     1      -6.760  19.940  68.439  1.00  0.00    -0.332 C  
HETATM    8  C   UNL     1      -5.174  18.718  69.941  1.00  0.00    -0.202 C  
ENDBRANCH   4   6
ENDBRANCH   3   4
BRANCH   3   9
HETATM    9  C   UNL     1      -7.126  15.237  67.398  1.00  0.00    -0.191 C  
HETATM   10  H   UNL     1      -7.759  14.372  65.729  1.00  0.00     0.000 HD 
HETATM   11  O   UNL     1      -7.984  15.129  66.256  1.00  0.00     0.288 OA 
BRANCH   9  12
HETATM   12  C   UNL     1      -7.037  13.908  68.151  1.00  0.00    -0.118 A  
HETATM   13  C   UNL     1      -8.134  13.069  68.469  1.00  0.00    -0.082 A  
HETATM   14  C   UNL     1      -9.538  13.432  68.216  1.00  0.00    -0.220 C  
HETATM   15  C   UNL     1     -10.525  12.542  68.375  1.00  0.00    -0.250 C  
HETATM   16  C   UNL     1     -10.246  11.170  68.844  1.00  0.00    -0.194 C  
HETATM   17  N   UNL     1      -8.961  10.896  69.210  1.00  0.00    -0.388 N  
HETATM   18  O   UNL     1     -11.135  10.328  68.910  1.00  0.00    -0.230 OA 
HETATM   19  H   UNL     1      -8.765   9.987  69.628  1.00  0.00     0.000 HD 
HETATM   20  C   UNL     1      -7.892  11.795  69.045  1.00  0.00     0.065 A  
HETATM   21  C   UNL     1      -6.592  11.408  69.383  1.00  0.00    -0.119 A  
HETATM   22  O   UNL     1      -6.302  10.208  69.971  1.00  0.00    -0.062 OA 
HETATM   23  C   UNL     1      -5.518  12.245  69.122  1.00  0.00    -0.064 A  
HETATM   24  H   UNL     1      -5.419   9.945  70.201  1.00  0.00     0.000 HD 
HETATM   25  C   UNL     1      -5.739  13.476  68.506  1.00  0.00    -0.088 A  
ENDBRANCH   9  12
ENDBRANCH   3   9
ENDBRANCH   2   3
TORSDOF 5
ENDMDL
MODEL      312
REMARK 921   NORMALIZED FREE ENERGY PREDICTED BY IDOCK:   -1.71 KCAL/MOL
REMARK 922        TOTAL FREE ENERGY PREDICTED BY IDOCK:   -3.06 KCAL/MOL
REMARK 923 INTER-LIGAND FREE ENERGY PREDICTED BY IDOCK:   -3.41 KCAL/MOL
REMARK 924 INTRA-LIGAND FREE ENERGY PREDICTED BY IDOCK:    0.35 KCAL/MOL
REMARK 927      BINDING AFFINITY PREDICTED BY RF-SCORE:    0.00 PKD
ROOT
HETATM    1  C   UNL     1      -9.784  16.758  66.737  1.00  0.00    -0.273 C  
HETATM    2  C   UNL     1      -9.640  15.678  67.804  1.00  0.00    -0.209 C  
ENDROOT
BRANCH   2   3
HETATM    3  C   UNL     1      -8.488  14.665  67.560  1.00  0.00    -0.188 C  
BRANCH   3   4
HETATM    4  N   UNL     1      -7.296  15.290  66.934  1.00  0.00    -0.289 NA 
HETATM    5  H   UNL     1      -7.266  15.506  65.938  1.00  0.00     0.000 HD 
BRANCH   4   6
HETATM    6  C   UNL     1      -6.162  15.583  67.820  1.00  0.00    -0.157 C  
HETATM    7  C   UNL     1      -6.280  14.680  69.053  1.00  0.00    -0.091 C  
HETATM    8  C   UNL     1      -6.099  17.047  68.259  1.00  0.00    -0.135 C  
ENDBRANCH   4   6
ENDBRANCH   3   4
BRANCH   3   9
HETATM    9  C   UNL     1      -8.988  13.442  66.708  1.00  0.00    -0.179 C  
HETATM   10  H   UNL     1     -10.719  12.600  66.224  1.00  0.00     0.000 HD 
HETATM   11  O   UNL     1     -10.416  13.339  66.739  1.00  0.00    -0.266 OA 
BRANCH   9  12
HETATM   12  C   UNL     1      -8.330  12.098  67.027  1.00  0.00    -0.173 A  
HETATM   13  C   UNL     1      -8.993  10.846  67.061  1.00  0.00    -0.148 A  
HETATM   14  C   UNL     1     -10.449  10.690  66.907  1.00  0.00    -0.304 C  
HETATM   15  C   UNL     1     -11.007   9.481  66.776  1.00  0.00     0.123 C  
HETATM   16  C   UNL     1     -10.188   8.253  66.814  1.00  0.00    -0.304 C  
HETATM   17  N   UNL     1      -8.864   8.409  67.101  1.00  0.00    -0.128 N  
HETATM   18  O   UNL     1     -10.685   7.151  66.610  1.00  0.00    -0.245 OA 
HETATM   19  H   UNL     1      -8.298   7.570  67.229  1.00  0.00     0.000 HD 
HETATM   20  C   UNL     1      -8.233   9.659  67.231  1.00  0.00    -0.114 A  
HETATM   21  C   UNL     1      -6.855   9.730  67.456  1.00  0.00    -0.082 A  
HETATM   22  O   UNL     1      -6.077   8.624  67.661  1.00  0.00    -0.047 OA 
HETATM   23  C   UNL     1      -6.207  10.955  67.477  1.00  0.00    -0.053 A  
HETATM   24  H   UNL     1      -5.141   8.672  67.815  1.00  0.00     0.000 HD 
HETATM   25  C   UNL     1      -6.935  12.123  67.256  1.00  0.00    -0.148 A  
ENDBRANCH   9  12
ENDBRANCH   3   9
ENDBRANCH   2   3
TORSDOF 5
ENDMDL
MODEL      313
REMARK 921   NORMALIZED FREE ENERGY PREDICTED BY IDOCK:   -1.61 KCAL/MOL
REMARK 922        TOTAL FREE ENERGY PREDICTED BY IDOCK:   -2.93 KCAL/MOL
REMARK 923 INTER-LIGAND FREE ENERGY PREDICTED BY IDOCK:   -2.93 KCAL/MOL
REMARK 924 INTRA-LIGAND FREE ENERGY PREDICTED BY IDOCK:    0.00 KCAL/MOL
REMARK 927      BINDING AFFINITY PREDICTED BY RF-SCORE:    0.00 PKD
ROOT
HETATM    1  C   UNL     1      -9.658   2.937  74.003  1.00  0.00    -0.120 C  
HETATM    2  C   UNL     1      -8.836   4.215  74.143  1.00  0.00    -0.095 C  
ENDROOT
BRANCH   2   3
HETATM    3  C   UNL     1      -7.927   4.547  72.928  1.00  0.00    -0.092 C  
BRANCH   3   4
HETATM    4  N   UNL     1      -7.858   6.002  72.643  1.00  0.00    -0.103 NA 
HETATM    5  H   UNL     1      -8.663   6.613  72.779  1.00  0.00     0.000 HD 
BRANCH   4   6
HETATM    6  C   UNL     1      -6.572   6.519  72.157  1.00  0.00    -0.059 C  
HETATM    7  C   UNL     1      -5.455   5.830  72.948  1.00  0.00    -0.027 C  
HETATM    8  C   UNL     1      -6.438   8.036  72.293  1.00  0.00    -0.066 C  
ENDBRANCH   4   6
ENDBRANCH   3   4
BRANCH   3   9
HETATM    9  C   UNL     1      -8.384   3.750  71.652  1.00  0.00    -0.077 C  
HETATM   10  H   UNL     1      -7.598   2.453  70.372  1.00  0.00     0.000 HD 
HETATM   11  O   UNL     1      -7.322   2.935  71.143  1.00  0.00    -0.033 OA 
BRANCH   9  12
HETATM   12  C   UNL     1      -9.020   4.587  70.540  1.00  0.00    -0.155 A  
HETATM   13  C   UNL     1      -8.495   4.755  69.235  1.00  0.00    -0.087 A  
HETATM   14  C   UNL     1      -7.185   4.233  68.811  1.00  0.00    -0.055 C  
HETATM   15  C   UNL     1      -6.807   4.268  67.527  1.00  0.00    -0.052 C  
HETATM   16  C   UNL     1      -7.675   4.863  66.492  1.00  0.00    -0.095 C  
HETATM   17  N   UNL     1      -8.818   5.469  66.924  1.00  0.00    -0.112 N  
HETATM   18  O   UNL     1      -7.370   4.821  65.305  1.00  0.00    -0.070 OA 
HETATM   19  H   UNL     1      -9.384   5.971  66.240  1.00  0.00     0.000 HD 
HETATM   20  C   UNL     1      -9.261   5.443  68.259  1.00  0.00    -0.111 A  
HETATM   21  C   UNL     1     -10.482   6.031  68.604  1.00  0.00    -0.241 A  
HETATM   22  O   UNL     1     -11.246   6.734  67.716  1.00  0.00    -0.536 OA 
HETATM   23  C   UNL     1     -10.978   5.915  69.893  1.00  0.00    -0.444 A  
HETATM   24  H   UNL     1     -12.075   7.134  67.951  1.00  0.00     0.000 HD 
HETATM   25  C   UNL     1     -10.259   5.195  70.846  1.00  0.00    -0.299 A  
ENDBRANCH   9  12
ENDBRANCH   3   9
ENDBRANCH   2   3
TORSDOF 5
ENDMDL
MODEL      314
REMARK 921   NORMALIZED FREE ENERGY PREDICTED BY IDOCK:   -1.48 KCAL/MOL
REMARK 922        TOTAL FREE ENERGY PREDICTED BY IDOCK:   -2.76 KCAL/MOL
REMARK 923 INTER-LIGAND FREE ENERGY PREDICTED BY IDOCK:   -2.85 KCAL/MOL
REMARK 924 INTRA-LIGAND FREE ENERGY PREDICTED BY IDOCK:    0.09 KCAL/MOL
REMARK 927      BINDING AFFINITY PREDICTED BY RF-SCORE:    0.00 PKD
ROOT
HETATM    1  C   UNL     1      -6.832  10.332  70.064  1.00  0.00    -0.146 C  
HETATM    2  C   UNL     1      -6.260   8.926  70.216  1.00  0.00    -0.038 C  
ENDROOT
BRANCH   2   3
HETATM    3  C   UNL     1      -6.843   7.871  69.236  1.00  0.00    -0.048 C  
BRANCH   3   4
HETATM    4  N   UNL     1      -5.797   7.211  68.415  1.00  0.00    -0.022 NA 
HETATM    5  H   UNL     1      -5.243   7.730  67.734  1.00  0.00     0.000 HD 
BRANCH   4   6
HETATM    6  C   UNL     1      -5.599   5.771  68.632  1.00  0.00    -0.011 C  
HETATM    7  C   UNL     1      -5.384   5.112  67.265  1.00  0.00    -0.012 C  
HETATM    8  C   UNL     1      -6.772   5.100  69.347  1.00  0.00    -0.052 C  
ENDBRANCH   4   6
ENDBRANCH   3   4
BRANCH   3   9
HETATM    9  C   UNL     1      -7.951   8.509  68.320  1.00  0.00    -0.114 C  
HETATM   10  H   UNL     1      -9.485   9.750  68.521  1.00  0.00     0.000 HD 
HETATM   11  O   UNL     1      -8.815   9.365  69.074  1.00  0.00    -0.134 OA 
BRANCH   9  12
HETATM   12  C   UNL     1      -8.754   7.524  67.468  1.00  0.00    -0.125 A  
HETATM   13  C   UNL     1      -8.395   7.076  66.172  1.00  0.00    -0.130 A  
HETATM   14  C   UNL     1      -7.245   7.601  65.418  1.00  0.00    -0.065 C  
HETATM   15  C   UNL     1      -6.846   7.031  64.275  1.00  0.00    -0.047 C  
HETATM   16  C   UNL     1      -7.565   5.873  63.708  1.00  0.00    -0.082 C  
HETATM   17  N   UNL     1      -8.710   5.492  64.343  1.00  0.00    -0.335 N  
HETATM   18  O   UNL     1      -7.153   5.296  62.707  1.00  0.00    -0.036 OA 
HETATM   19  H   UNL     1      -9.276   4.758  63.915  1.00  0.00     0.000 HD 
HETATM   20  C   UNL     1      -9.158   6.051  65.553  1.00  0.00     0.040 A  
HETATM   21  C   UNL     1     -10.307   5.553  66.174  1.00  0.00    -0.094 A  
HETATM   22  O   UNL     1     -11.099   4.592  65.611  1.00  0.00    -0.826 OA 
HETATM   23  C   UNL     1     -10.694   6.024  67.420  1.00  0.00    -0.393 A  
HETATM   24  H   UNL     1     -11.880   4.254  66.033  1.00  0.00     0.000 HD 
HETATM   25  C   UNL     1      -9.921   6.991  68.060  1.00  0.00    -0.178 A  
ENDBRANCH   9  12
ENDBRANCH   3   9
ENDBRANCH   2   3
TORSDOF 5
ENDMDL
MODEL      315
REMARK 921   NORMALIZED FREE ENERGY PREDICTED BY IDOCK:   -1.10 KCAL/MOL
REMARK 922        TOTAL FREE ENERGY PREDICTED BY IDOCK:   -2.27 KCAL/MOL
REMARK 923 INTER-LIGAND FREE ENERGY PREDICTED BY IDOCK:   -1.50 KCAL/MOL
REMARK 924 INTRA-LIGAND FREE ENERGY PREDICTED BY IDOCK:   -0.77 KCAL/MOL
REMARK 927      BINDING AFFINITY PREDICTED BY RF-SCORE:    0.00 PKD
ROOT
HETATM    1  C   UNL     1      -6.835  10.333  70.068  1.00  0.00    -0.146 C  
HETATM    2  C   UNL     1      -6.293   8.916  70.229  1.00  0.00    -0.039 C  
ENDROOT
BRANCH   2   3
HETATM    3  C   UNL     1      -6.906   7.865  69.263  1.00  0.00    -0.048 C  
BRANCH   3   4
HETATM    4  N   UNL     1      -6.865   6.487  69.813  1.00  0.00    -0.056 NA 
HETATM    5  H   UNL     1      -5.983   6.005  69.983  1.00  0.00     0.000 HD 
BRANCH   4   6
HETATM    6  C   UNL     1      -8.159   5.854  70.101  1.00  0.00    -0.110 C  
HETATM    7  C   UNL     1      -8.076   4.388  69.662  1.00  0.00    -0.061 C  
HETATM    8  C   UNL     1      -9.336   6.535  69.402  1.00  0.00    -0.143 C  
ENDBRANCH   4   6
ENDBRANCH   3   4
BRANCH   3   9
HETATM    9  C   UNL     1      -6.209   7.924  67.855  1.00  0.00    -0.050 C  
HETATM   10  H   UNL     1      -5.576   9.314  66.588  1.00  0.00     0.000 HD 
HETATM   11  O   UNL     1      -5.997   9.278  67.438  1.00  0.00    -0.048 OA 
BRANCH   9  12
HETATM   12  C   UNL     1      -6.877   7.104  66.750  1.00  0.00    -0.068 A  
HETATM   13  C   UNL     1      -6.602   5.746  66.455  1.00  0.00    -0.055 A  
HETATM   14  C   UNL     1      -5.535   4.969  67.108  1.00  0.00    -0.013 C  
HETATM   15  C   UNL     1      -5.424   3.649  66.922  1.00  0.00    -0.017 C  
HETATM   16  C   UNL     1      -6.347   2.924  66.026  1.00  0.00    -0.028 C  
HETATM   17  N   UNL     1      -7.236   3.680  65.320  1.00  0.00    -0.066 N  
HETATM   18  O   UNL     1      -6.302   1.703  65.919  1.00  0.00    -0.022 OA 
HETATM   19  H   UNL     1      -7.818   3.213  64.624  1.00  0.00     0.000 HD 
HETATM   20  C   UNL     1      -7.398   5.066  65.496  1.00  0.00    -0.073 A  
HETATM   21  C   UNL     1      -8.382   5.754  64.780  1.00  0.00    -0.116 A  
HETATM   22  O   UNL     1      -9.155   5.161  63.821  1.00  0.00    -0.348 OA 
HETATM   23  C   UNL     1      -8.622   7.097  65.026  1.00  0.00     0.105 A  
HETATM   24  H   UNL     1      -9.824   5.628  63.335  1.00  0.00     0.000 HD 
HETATM   25  C   UNL     1      -7.883   7.759  66.005  1.00  0.00    -0.100 A  
ENDBRANCH   9  12
ENDBRANCH   3   9
ENDBRANCH   2   3
TORSDOF 5
ENDMDL
MODEL      316
REMARK 921   NORMALIZED FREE ENERGY PREDICTED BY IDOCK:   -0.86 KCAL/MOL
REMARK 922        TOTAL FREE ENERGY PREDICTED BY IDOCK:   -1.96 KCAL/MOL
REMARK 923 INTER-LIGAND FREE ENERGY PREDICTED BY IDOCK:   -2.69 KCAL/MOL
REMARK 924 INTRA-LIGAND FREE ENERGY PREDICTED BY IDOCK:    0.73 KCAL/MOL
REMARK 927      BINDING AFFINITY PREDICTED BY RF-SCORE:    0.00 PKD
ROOT
HETATM    1  C   UNL     1      -5.705   2.709  65.613  1.00  0.00    -0.018 C  
HETATM    2  C   UNL     1      -6.497   2.861  64.318  1.00  0.00    -0.031 C  
ENDROOT
BRANCH   2   3
HETATM    3  C   UNL     1      -7.815   3.673  64.445  1.00  0.00    -0.085 C  
BRANCH   3   4
HETATM    4  N   UNL     1      -8.688   3.542  63.252  1.00  0.00    -0.093 NA 
HETATM    5  H   UNL     1      -8.323   3.227  62.354  1.00  0.00     0.000 HD 
BRANCH   4   6
HETATM    6  C   UNL     1     -10.105   3.886  63.431  1.00  0.00    -0.172 C  
HETATM    7  C   UNL     1     -10.499   3.538  64.870  1.00  0.00     0.132 C  
HETATM    8  C   UNL     1     -11.032   3.162  62.454  1.00  0.00    -0.108 C  
ENDBRANCH   4   6
ENDBRANCH   3   4
BRANCH   3   9
HETATM    9  C   UNL     1      -7.513   5.186  64.752  1.00  0.00    -0.076 C  
HETATM   10  H   UNL     1      -5.931   6.315  65.152  1.00  0.00     0.000 HD 
HETATM   11  O   UNL     1      -6.114   5.401  64.967  1.00  0.00    -0.024 OA 
BRANCH   9  12
HETATM   12  C   UNL     1      -8.348   5.815  65.870  1.00  0.00    -0.130 A  
HETATM   13  C   UNL     1      -8.648   7.194  65.994  1.00  0.00    -0.158 A  
HETATM   14  C   UNL     1      -8.087   8.232  65.114  1.00  0.00    -0.142 C  
HETATM   15  C   UNL     1      -8.529   9.495  65.162  1.00  0.00    -0.160 C  
HETATM   16  C   UNL     1      -9.574   9.902  66.121  1.00  0.00    -0.218 C  
HETATM   17  N   UNL     1      -9.978   8.962  67.023  1.00  0.00    -0.210 N  
HETATM   18  O   UNL     1     -10.041  11.036  66.110  1.00  0.00    -0.221 OA 
HETATM   19  H   UNL     1     -10.627   9.248  67.757  1.00  0.00     0.000 HD 
HETATM   20  C   UNL     1      -9.552   7.622  67.001  1.00  0.00    -0.175 A  
HETATM   21  C   UNL     1     -10.070   6.705  67.921  1.00  0.00    -0.150 A  
HETATM   22  O   UNL     1     -10.917   7.065  68.932  1.00  0.00    -0.377 OA 
HETATM   23  C   UNL     1      -9.740   5.362  67.837  1.00  0.00    -0.165 A  
HETATM   24  H   UNL     1     -11.269   6.442  69.557  1.00  0.00     0.000 HD 
HETATM   25  C   UNL     1      -8.896   4.922  66.818  1.00  0.00    -0.110 A  
ENDBRANCH   9  12
ENDBRANCH   3   9
ENDBRANCH   2   3
TORSDOF 5
ENDMDL
MODEL      317
REMARK 921   NORMALIZED FREE ENERGY PREDICTED BY IDOCK:   -0.56 KCAL/MOL
REMARK 922        TOTAL FREE ENERGY PREDICTED BY IDOCK:   -1.57 KCAL/MOL
REMARK 923 INTER-LIGAND FREE ENERGY PREDICTED BY IDOCK:   -2.12 KCAL/MOL
REMARK 924 INTRA-LIGAND FREE ENERGY PREDICTED BY IDOCK:    0.55 KCAL/MOL
REMARK 927      BINDING AFFINITY PREDICTED BY RF-SCORE:    0.00 PKD
ROOT
HETATM    1  C   UNL     1     -11.951  10.381  70.627  1.00  0.00    -0.448 C  
HETATM    2  C   UNL     1     -10.491   9.956  70.749  1.00  0.00    -0.253 C  
ENDROOT
BRANCH   2   3
HETATM    3  C   UNL     1      -9.603  10.302  69.523  1.00  0.00    -0.202 C  
BRANCH   3   4
HETATM    4  N   UNL     1      -9.614  11.750  69.196  1.00  0.00    -0.386 NA 
HETATM    5  H   UNL     1     -10.486  12.271  69.105  1.00  0.00     0.000 HD 
BRANCH   4   6
HETATM    6  C   UNL     1      -8.307  12.395  69.011  1.00  0.00     0.395 C  
HETATM    7  C   UNL     1      -8.506  13.909  69.134  1.00  0.00     0.323 C  
HETATM    8  C   UNL     1      -7.655  12.069  67.668  1.00  0.00    -0.136 C  
ENDBRANCH   4   6
ENDBRANCH   3   4
BRANCH   3   9
HETATM    9  C   UNL     1     -10.016   9.444  68.271  1.00  0.00    -0.174 C  
HETATM   10  H   UNL     1     -11.663   9.063  67.233  1.00  0.00     0.000 HD 
HETATM   11  O   UNL     1     -11.413   9.581  67.989  1.00  0.00     0.155 OA 
BRANCH   9  12
HETATM   12  C   UNL     1      -9.601   7.972  68.310  1.00  0.00    -0.156 A  
HETATM   13  C   UNL     1      -8.545   7.437  69.088  1.00  0.00    -0.136 A  
HETATM   14  C   UNL     1      -7.618   8.261  69.882  1.00  0.00    -0.080 C  
HETATM   15  C   UNL     1      -6.747   7.703  70.731  1.00  0.00    -0.042 C  
HETATM   16  C   UNL     1      -6.658   6.237  70.880  1.00  0.00    -0.053 C  
HETATM   17  N   UNL     1      -7.421   5.487  70.034  1.00  0.00    -0.068 N  
HETATM   18  O   UNL     1      -5.922   5.726  71.718  1.00  0.00    -0.031 OA 
HETATM   19  H   UNL     1      -7.304   4.474  70.052  1.00  0.00     0.000 HD 
HETATM   20  C   UNL     1      -8.360   6.030  69.138  1.00  0.00    -0.114 A  
HETATM   21  C   UNL     1      -9.153   5.186  68.355  1.00  0.00    -0.112 A  
HETATM   22  O   UNL     1      -8.998   3.827  68.336  1.00  0.00    -0.104 OA 
HETATM   23  C   UNL     1     -10.154   5.707  67.551  1.00  0.00    -0.208 A  
HETATM   24  H   UNL     1      -9.536   3.253  67.804  1.00  0.00     0.000 HD 
HETATM   25  C   UNL     1     -10.380   7.082  67.537  1.00  0.00    -0.288 A  
ENDBRANCH   9  12
ENDBRANCH   3   9
ENDBRANCH   2   3
TORSDOF 5
ENDMDL
MODEL      318
REMARK 921   NORMALIZED FREE ENERGY PREDICTED BY IDOCK:   -0.24 KCAL/MOL
REMARK 922        TOTAL FREE ENERGY PREDICTED BY IDOCK:   -1.16 KCAL/MOL
REMARK 923 INTER-LIGAND FREE ENERGY PREDICTED BY IDOCK:   -1.73 KCAL/MOL
REMARK 924 INTRA-LIGAND FREE ENERGY PREDICTED BY IDOCK:    0.57 KCAL/MOL
REMARK 927      BINDING AFFINITY PREDICTED BY RF-SCORE:    0.00 PKD
ROOT
HETATM    1  C   UNL     1      -7.271  17.336  70.475  1.00  0.00     2.587 C  
HETATM    2  C   UNL     1      -6.512  16.655  69.340  1.00  0.00    -0.220 C  
ENDROOT
BRANCH   2   3
HETATM    3  C   UNL     1      -6.495  15.103  69.401  1.00  0.00    -0.136 C  
BRANCH   3   4
HETATM    4  N   UNL     1      -5.192  14.560  69.860  1.00  0.00    -0.092 NA 
HETATM    5  H   UNL     1      -4.309  15.000  69.602  1.00  0.00     0.000 HD 
BRANCH   4   6
HETATM    6  C   UNL     1      -5.238  13.360  70.705  1.00  0.00    -0.130 C  
HETATM    7  C   UNL     1      -6.422  12.502  70.244  1.00  0.00     0.306 C  
HETATM    8  C   UNL     1      -5.378  13.672  72.195  1.00  0.00    -0.145 C  
ENDBRANCH   4   6
ENDBRANCH   3   4
BRANCH   3   9
HETATM    9  C   UNL     1      -6.900  14.483  68.014  1.00  0.00    -0.145 C  
HETATM   10  H   UNL     1      -5.988  13.818  66.382  1.00  0.00     0.000 HD 
HETATM   11  O   UNL     1      -5.744  14.192  67.221  1.00  0.00    -0.297 OA 
BRANCH   9  12
HETATM   12  C   UNL     1      -7.937  15.273  67.212  1.00  0.00    -0.231 A  
HETATM   13  C   UNL     1      -9.212  14.795  66.822  1.00  0.00    -0.282 A  
HETATM   14  C   UNL     1      -9.665  13.411  67.041  1.00  0.00    -0.239 C  
HETATM   15  C   UNL     1     -10.934  13.052  66.810  1.00  0.00    -0.299 C  
HETATM   16  C   UNL     1     -11.921  14.023  66.297  1.00  0.00    -0.432 C  
HETATM   17  N   UNL     1     -11.450  15.259  65.966  1.00  0.00    -0.169 N  
HETATM   18  O   UNL     1     -13.102  13.720  66.166  1.00  0.00    -0.186 OA 
HETATM   19  H   UNL     1     -12.092  15.914  65.519  1.00  0.00     0.000 HD 
HETATM   20  C   UNL     1     -10.130  15.684  66.205  1.00  0.00    -0.313 A  
HETATM   21  C   UNL     1      -9.748  16.993  65.898  1.00  0.00    -0.142 A  
HETATM   22  O   UNL     1     -10.577  17.883  65.273  1.00  0.00    -0.637 OA 
HETATM   23  C   UNL     1      -8.483  17.453  66.229  1.00  0.00    -0.260 A  
HETATM   24  H   UNL     1     -10.318  18.772  65.064  1.00  0.00     0.000 HD 
HETATM   25  C   UNL     1      -7.593  16.605  66.886  1.00  0.00    -0.262 A  
ENDBRANCH   9  12
ENDBRANCH   3   9
ENDBRANCH   2   3
TORSDOF 5
ENDMDL
MODEL      319
REMARK 921   NORMALIZED FREE ENERGY PREDICTED BY IDOCK:    0.58 KCAL/MOL
REMARK 922        TOTAL FREE ENERGY PREDICTED BY IDOCK:   -0.10 KCAL/MOL
REMARK 923 INTER-LIGAND FREE ENERGY PREDICTED BY IDOCK:   -2.14 KCAL/MOL
REMARK 924 INTRA-LIGAND FREE ENERGY PREDICTED BY IDOCK:    2.04 KCAL/MOL
REMARK 927      BINDING AFFINITY PREDICTED BY RF-SCORE:    0.00 PKD
ROOT
HETATM    1  C   UNL     1      -9.446   6.136  66.465  1.00  0.00    -0.178 C  
HETATM    2  C   UNL     1      -9.734   7.627  66.320  1.00  0.00    -0.126 C  
ENDROOT
BRANCH   2   3
HETATM    3  C   UNL     1      -8.486   8.548  66.411  1.00  0.00    -0.117 C  
BRANCH   3   4
HETATM    4  N   UNL     1      -8.199   9.252  65.136  1.00  0.00    -0.134 NA 
HETATM    5  H   UNL     1      -8.571  10.182  64.943  1.00  0.00     0.000 HD 
BRANCH   4   6
HETATM    6  C   UNL     1      -7.352   8.544  64.167  1.00  0.00    -0.103 C  
HETATM    7  C   UNL     1      -6.165   9.450  63.826  1.00  0.00    -0.093 C  
HETATM    8  C   UNL     1      -8.090   8.159  62.885  1.00  0.00    -0.143 C  
ENDBRANCH   4   6
ENDBRANCH   3   4
BRANCH   3   9
HETATM    9  C   UNL     1      -7.228   7.740  66.897  1.00  0.00    -0.089 C  
HETATM   10  H   UNL     1      -6.427   5.950  66.596  1.00  0.00     0.000 HD 
HETATM   11  O   UNL     1      -7.187   6.438  66.302  1.00  0.00    -0.069 OA 
BRANCH   9  12
HETATM   12  C   UNL     1      -7.036   7.662  68.413  1.00  0.00    -0.072 A  
HETATM   13  C   UNL     1      -7.887   8.250  69.380  1.00  0.00    -0.104 A  
HETATM   14  C   UNL     1      -9.021   9.127  69.042  1.00  0.00    -0.143 C  
HETATM   15  C   UNL     1      -9.896   9.520  69.976  1.00  0.00    -0.269 C  
HETATM   16  C   UNL     1      -9.740   9.116  71.387  1.00  0.00    -0.268 C  
HETATM   17  N   UNL     1      -8.609   8.424  71.705  1.00  0.00    -0.160 N  
HETATM   18  O   UNL     1     -10.586   9.403  72.228  1.00  0.00     0.152 OA 
HETATM   19  H   UNL     1      -8.432   8.219  72.689  1.00  0.00     0.000 HD 
HETATM   20  C   UNL     1      -7.671   7.978  70.756  1.00  0.00    -0.082 A  
HETATM   21  C   UNL     1      -6.573   7.213  71.161  1.00  0.00    -0.044 A  
HETATM   22  O   UNL     1      -6.295   6.948  72.473  1.00  0.00    -0.052 OA 
HETATM   23  C   UNL     1      -5.705   6.678  70.222  1.00  0.00    -0.023 A  
HETATM   24  H   UNL     1      -5.548   6.429  72.748  1.00  0.00     0.000 HD 
HETATM   25  C   UNL     1      -5.940   6.893  68.866  1.00  0.00    -0.026 A  
ENDBRANCH   9  12
ENDBRANCH   3   9
ENDBRANCH   2   3
TORSDOF 5
ENDMDL
MODEL      320
REMARK 921   NORMALIZED FREE ENERGY PREDICTED BY IDOCK:    0.92 KCAL/MOL
REMARK 922        TOTAL FREE ENERGY PREDICTED BY IDOCK:    0.34 KCAL/MOL
REMARK 923 INTER-LIGAND FREE ENERGY PREDICTED BY IDOCK:   -1.71 KCAL/MOL
REMARK 924 INTRA-LIGAND FREE ENERGY PREDICTED BY IDOCK:    2.05 KCAL/MOL
REMARK 927      BINDING AFFINITY PREDICTED BY RF-SCORE:    0.00 PKD
ROOT
HETATM    1  C   UNL     1     -10.647  15.612  66.296  1.00  0.00    -0.310 C  
HETATM    2  C   UNL     1     -10.806  14.971  67.671  1.00  0.00    -0.291 C  
ENDROOT
BRANCH   2   3
HETATM    3  C   UNL     1      -9.519  14.959  68.542  1.00  0.00    -0.210 C  
BRANCH   3   4
HETATM    4  N   UNL     1      -8.740  16.217  68.432  1.00  0.00    -0.197 NA 
HETATM    5  H   UNL     1      -9.177  17.130  68.559  1.00  0.00     0.000 HD 
BRANCH   4   6
HETATM    6  C   UNL     1      -7.308  16.083  68.132  1.00  0.00    -0.127 C  
HETATM    7  C   UNL     1      -6.561  15.915  69.459  1.00  0.00    -0.191 C  
HETATM    8  C   UNL     1      -6.735  17.275  67.366  1.00  0.00    -0.175 C  
ENDBRANCH   4   6
ENDBRANCH   3   4
BRANCH   3   9
HETATM    9  C   UNL     1      -8.621  13.715  68.197  1.00  0.00    -0.176 C  
HETATM   10  H   UNL     1      -7.094  13.293  67.003  1.00  0.00     0.000 HD 
HETATM   11  O   UNL     1      -7.637  14.045  67.211  1.00  0.00    -0.171 OA 
BRANCH   9  12
HETATM   12  C   UNL     1      -9.375  12.437  67.821  1.00  0.00    -0.196 A  
HETATM   13  C   UNL     1      -9.161  11.674  66.647  1.00  0.00    -0.196 A  
HETATM   14  C   UNL     1      -8.253  12.083  65.562  1.00  0.00     1.042 C  
HETATM   15  C   UNL     1      -7.955  11.252  64.556  1.00  0.00     0.832 C  
HETATM   16  C   UNL     1      -8.551   9.904  64.477  1.00  0.00    -0.186 C  
HETATM   17  N   UNL     1      -9.498   9.597  65.410  1.00  0.00    -0.262 N  
HETATM   18  O   UNL     1      -8.216   9.110  63.604  1.00  0.00    -0.155 OA 
HETATM   19  H   UNL     1      -9.993   8.710  65.317  1.00  0.00     0.000 HD 
HETATM   20  C   UNL     1      -9.830  10.432  66.492  1.00  0.00    -0.206 A  
HETATM   21  C   UNL     1     -10.763  10.009  67.443  1.00  0.00    -0.274 A  
HETATM   22  O   UNL     1     -11.463   8.840  67.330  1.00  0.00     0.216 OA 
HETATM   23  C   UNL     1     -11.017  10.776  68.570  1.00  0.00    -0.291 A  
HETATM   24  H   UNL     1     -12.097   8.553  67.977  1.00  0.00     0.000 HD 
HETATM   25  C   UNL     1     -10.324  11.971  68.758  1.00  0.00    -0.181 A  
ENDBRANCH   9  12
ENDBRANCH   3   9
ENDBRANCH   2   3
TORSDOF 5
ENDMDL
MODEL      321
REMARK 921   NORMALIZED FREE ENERGY PREDICTED BY IDOCK:    5.74 KCAL/MOL
REMARK 922        TOTAL FREE ENERGY PREDICTED BY IDOCK:    6.57 KCAL/MOL
REMARK 923 INTER-LIGAND FREE ENERGY PREDICTED BY IDOCK:    6.05 KCAL/MOL
REMARK 924 INTRA-LIGAND FREE ENERGY PREDICTED BY IDOCK:    0.51 KCAL/MOL
REMARK 927      BINDING AFFINITY PREDICTED BY RF-SCORE:    0.00 PKD
ROOT
HETATM    1  C   UNL     1      -8.399  18.779  68.848  1.00  0.00    -0.244 C  
HETATM    2  C   UNL     1      -9.472  18.394  67.833  1.00  0.00    -0.299 C  
ENDROOT
BRANCH   2   3
HETATM    3  C   UNL     1      -9.821  16.882  67.790  1.00  0.00    -0.252 C  
BRANCH   3   4
HETATM    4  N   UNL     1     -10.766  16.480  68.862  1.00  0.00    -0.316 NA 
HETATM    5  H   UNL     1     -10.542  15.733  69.520  1.00  0.00     0.000 HD 
BRANCH   4   6
HETATM    6  C   UNL     1     -12.038  17.211  68.930  1.00  0.00     2.167 C  
HETATM    7  C   UNL     1     -13.131  16.221  69.346  1.00  0.00     2.399 C  
HETATM    8  C   UNL     1     -12.424  17.878  67.609  1.00  0.00     4.570 C  
ENDBRANCH   4   6
ENDBRANCH   3   4
BRANCH   3   9
HETATM    9  C   UNL     1      -8.518  16.003  67.837  1.00  0.00    -0.162 C  
HETATM   10  H   UNL     1      -6.792  15.885  66.864  1.00  0.00     0.000 HD 
HETATM   11  O   UNL     1      -7.580  16.416  66.836  1.00  0.00    -0.189 OA 
BRANCH   9  12
HETATM   12  C   UNL     1      -8.737  14.489  67.798  1.00  0.00    -0.174 A  
HETATM   13  C   UNL     1      -7.762  13.510  68.110  1.00  0.00    -0.139 A  
HETATM   14  C   UNL     1      -6.353  13.826  68.401  1.00  0.00    -0.099 C  
HETATM   15  C   UNL     1      -5.511  12.890  68.855  1.00  0.00    -0.071 C  
HETATM   16  C   UNL     1      -5.954  11.495  69.050  1.00  0.00    -0.052 C  
HETATM   17  N   UNL     1      -7.219  11.190  68.640  1.00  0.00    -0.090 N  
HETATM   18  O   UNL     1      -5.210  10.655  69.544  1.00  0.00    -0.038 OA 
HETATM   19  H   UNL     1      -7.513  10.214  68.674  1.00  0.00     0.000 HD 
HETATM   20  C   UNL     1      -8.141  12.144  68.172  1.00  0.00    -0.161 A  
HETATM   21  C   UNL     1      -9.443  11.757  67.838  1.00  0.00    -0.191 A  
HETATM   22  O   UNL     1      -9.856  10.453  67.847  1.00  0.00    -0.151 OA 
HETATM   23  C   UNL     1     -10.389  12.704  67.481  1.00  0.00    -0.220 A  
HETATM   24  H   UNL     1     -10.739  10.190  67.619  1.00  0.00     0.000 HD 
HETATM   25  C   UNL     1     -10.041  14.054  67.471  1.00  0.00    -0.237 A  
ENDBRANCH   9  12
ENDBRANCH   3   9
ENDBRANCH   2   3
TORSDOF 5
ENDMDL
MODEL      322
REMARK 921   NORMALIZED FREE ENERGY PREDICTED BY IDOCK:   12.95 KCAL/MOL
REMARK 922        TOTAL FREE ENERGY PREDICTED BY IDOCK:   15.89 KCAL/MOL
REMARK 923 INTER-LIGAND FREE ENERGY PREDICTED BY IDOCK:    6.48 KCAL/MOL
REMARK 924 INTRA-LIGAND FREE ENERGY PREDICTED BY IDOCK:    9.41 KCAL/MOL
REMARK 927      BINDING AFFINITY PREDICTED BY RF-SCORE:    0.00 PKD
ROOT
HETATM    1  C   UNL     1      -6.606   5.546  63.692  1.00  0.00    -0.033 C  
HETATM    2  C   UNL     1      -7.419   6.679  64.309  1.00  0.00    -0.096 C  
ENDROOT
BRANCH   2   3
HETATM    3  C   UNL     1      -8.750   6.242  64.981  1.00  0.00     0.102 C  
BRANCH   3   4
HETATM    4  N   UNL     1      -9.842   7.229  64.790  1.00  0.00     2.061 NA 
HETATM    5  H   UNL     1     -10.627   7.290  65.437  1.00  0.00     0.000 HD 
BRANCH   4   6
HETATM    6  C   UNL     1      -9.734   8.114  63.622  1.00  0.00     3.783 C  
HETATM    7  C   UNL     1      -9.429   7.246  62.397  1.00  0.00     1.988 C  
HETATM    8  C   UNL     1      -8.655   9.187  63.773  1.00  0.00    -0.185 C  
ENDBRANCH   4   6
ENDBRANCH   3   4
BRANCH   3   9
HETATM    9  C   UNL     1      -8.533   5.940  66.509  1.00  0.00    -0.113 C  
HETATM   10  H   UNL     1      -9.654   5.603  68.112  1.00  0.00     0.000 HD 
HETATM   11  O   UNL     1      -9.784   5.785  67.188  1.00  0.00    -0.123 OA 
BRANCH   9  12
HETATM   12  C   UNL     1      -7.616   6.912  67.253  1.00  0.00    -0.108 A  
HETATM   13  C   UNL     1      -6.893   7.977  66.661  1.00  0.00    -0.068 A  
HETATM   14  C   UNL     1      -6.838   8.215  65.209  1.00  0.00    -0.059 C  
HETATM   15  C   UNL     1      -6.285   9.327  64.708  1.00  0.00    -0.071 C  
HETATM   16  C   UNL     1      -5.679  10.342  65.592  1.00  0.00    -0.105 C  
HETATM   17  N   UNL     1      -5.612  10.038  66.920  1.00  0.00    -0.045 N  
HETATM   18  O   UNL     1      -5.249  11.400  65.144  1.00  0.00    -0.172 OA 
HETATM   19  H   UNL     1      -5.111  10.679  67.535  1.00  0.00     0.000 HD 
HETATM   20  C   UNL     1      -6.192   8.890  67.490  1.00  0.00    -0.052 A  
HETATM   21  C   UNL     1      -6.137   8.689  68.873  1.00  0.00    -0.044 A  
HETATM   22  O   UNL     1      -5.449   9.516  69.717  1.00  0.00    -0.033 OA 
HETATM   23  C   UNL     1      -6.798   7.619  69.455  1.00  0.00    -0.044 A  
HETATM   24  H   UNL     1      -5.411   9.379  70.657  1.00  0.00     0.000 HD 
HETATM   25  C   UNL     1      -7.535   6.748  68.655  1.00  0.00    -0.099 A  
ENDBRANCH   9  12
ENDBRANCH   3   9
ENDBRANCH   2   3
TORSDOF 5
ENDMDL
MODEL      323
REMARK 921   NORMALIZED FREE ENERGY PREDICTED BY IDOCK:   14.78 KCAL/MOL
REMARK 922        TOTAL FREE ENERGY PREDICTED BY IDOCK:   18.24 KCAL/MOL
REMARK 923 INTER-LIGAND FREE ENERGY PREDICTED BY IDOCK:   17.01 KCAL/MOL
REMARK 924 INTRA-LIGAND FREE ENERGY PREDICTED BY IDOCK:    1.24 KCAL/MOL
REMARK 927      BINDING AFFINITY PREDICTED BY RF-SCORE:    0.00 PKD
ROOT
HETATM    1  C   UNL     1      -5.653  18.171  71.155  1.00  0.00     0.100 C  
HETATM    2  C   UNL     1      -6.919  17.682  71.853  1.00  0.00     6.422 C  
ENDROOT
BRANCH   2   3
HETATM    3  C   UNL     1      -7.702  16.576  71.094  1.00  0.00     5.366 C  
BRANCH   3   4
HETATM    4  N   UNL     1      -7.124  15.224  71.294  1.00  0.00     1.235 NA 
HETATM    5  H   UNL     1      -7.207  14.732  72.183  1.00  0.00     0.000 HD 
BRANCH   4   6
HETATM    6  C   UNL     1      -6.426  14.628  70.147  1.00  0.00    -0.166 C  
HETATM    7  C   UNL     1      -7.465  13.903  69.285  1.00  0.00     0.103 C  
HETATM    8  C   UNL     1      -5.320  13.652  70.550  1.00  0.00    -0.126 C  
ENDBRANCH   4   6
ENDBRANCH   3   4
BRANCH   3   9
HETATM    9  C   UNL     1      -7.809  16.916  69.562  1.00  0.00     0.332 C  
HETATM   10  H   UNL     1      -7.241  18.372  68.339  1.00  0.00     0.000 HD 
HETATM   11  O   UNL     1      -7.176  18.166  69.264  1.00  0.00    -0.208 OA 
BRANCH   9  12
HETATM   12  C   UNL     1      -9.216  16.852  68.966  1.00  0.00    -0.177 A  
HETATM   13  C   UNL     1      -9.576  16.165  67.780  1.00  0.00    -0.223 A  
HETATM   14  C   UNL     1      -8.602  15.511  66.890  1.00  0.00    -0.289 C  
HETATM   15  C   UNL     1      -9.002  14.732  65.878  1.00  0.00     0.246 C  
HETATM   16  C   UNL     1     -10.435  14.525  65.593  1.00  0.00    -0.336 C  
HETATM   17  N   UNL     1     -11.319  15.252  66.337  1.00  0.00    -0.231 N  
HETATM   18  O   UNL     1     -10.805  13.746  64.721  1.00  0.00    -0.357 OA 
HETATM   19  H   UNL     1     -12.308  15.199  66.093  1.00  0.00     0.000 HD 
HETATM   20  C   UNL     1     -10.945  16.068  67.419  1.00  0.00    -0.237 A  
HETATM   21  C   UNL     1     -11.922  16.725  68.173  1.00  0.00     0.944 A  
HETATM   22  O   UNL     1     -13.251  16.696  67.854  1.00  0.00     2.782 OA 
HETATM   23  C   UNL     1     -11.572  17.443  69.306  1.00  0.00     1.656 A  
HETATM   24  H   UNL     1     -13.915  17.142  68.366  1.00  0.00     0.000 HD 
HETATM   25  C   UNL     1     -10.237  17.498  69.700  1.00  0.00     0.173 A  
ENDBRANCH   9  12
ENDBRANCH   3   9
ENDBRANCH   2   3
TORSDOF 5
ENDMDL
