MODEL        1
REMARK 921   NORMALIZED FREE ENERGY PREDICTED BY IDOCK:   -6.17 KCAL/MOL
REMARK 922        TOTAL FREE ENERGY PREDICTED BY IDOCK:   -8.79 KCAL/MOL
REMARK 923 INTER-LIGAND FREE ENERGY PREDICTED BY IDOCK:   -7.97 KCAL/MOL
REMARK 924 INTRA-LIGAND FREE ENERGY PREDICTED BY IDOCK:   -0.82 KCAL/MOL
REMARK 927      BINDING AFFINITY PREDICTED BY RF-SCORE:    0.00 PKD
ROOT
HETATM    1  C   UNL     1     -14.177   8.425  71.612  1.00  0.00    -0.516 C  
HETATM    2  C   UNL     1     -13.417   9.712  71.947  1.00  0.00    -0.413 C  
ENDROOT
BRANCH   2   3
HETATM    3  N   UNL     1     -11.942   9.641  71.811  1.00  0.00    -0.381 NA 
BRANCH   3   4
HETATM    4  C   UNL     1     -11.475   8.245  71.819  1.00  0.00    -0.293 C  
HETATM    5  C   UNL     1     -10.660   7.804  73.028  1.00  0.00    -0.441 C  
ENDBRANCH   3   4
BRANCH   3   6
HETATM    6  C   UNL     1     -11.440  10.461  70.654  1.00  0.00    -0.349 C  
HETATM    7  C   UNL     1     -10.840   9.494  69.593  1.00  0.00    -0.255 C  
BRANCH   6   8
HETATM    8  C   UNL     1     -12.468  11.347  69.839  1.00  0.00    -0.125 C  
BRANCH   8   9
HETATM    9  N   UNL     1     -12.131  12.787  69.618  1.00  0.00    -0.264 NA 
HETATM   10  C   UNL     1     -12.384  13.678  70.705  1.00  0.00    -0.368 A  
HETATM   11  C   UNL     1     -13.315  13.384  71.726  1.00  0.00    -0.479 A  
HETATM   12  C   UNL     1     -13.388  14.126  72.910  1.00  0.00    -0.532 A  
HETATM   13  C   UNL     1     -12.556  15.217  73.094  1.00  0.00    -0.585 A  
HETATM   14  C   UNL     1     -11.722  15.610  72.056  1.00  0.00    -0.551 A  
HETATM   15  C   UNL     1     -11.662  14.880  70.853  1.00  0.00    -0.323 A  
HETATM   16  S   UNL     1     -10.612  15.561  69.599  1.00  0.00    -0.303 SA 
HETATM   17  C   UNL     1     -10.766  14.373  68.286  1.00  0.00    -0.242 A  
HETATM   18  C   UNL     1     -10.085  14.712  67.099  1.00  0.00    -0.244 A  
HETATM   19  C   UNL     1     -10.022  13.824  66.031  1.00  0.00    -0.319 A  
HETATM   20  C   UNL     1     -10.649  12.596  66.145  1.00  0.00    -0.280 A  
HETATM   21  C   UNL     1     -11.351  12.264  67.310  1.00  0.00    -0.392 A  
HETATM   22  C   UNL     1     -11.431  13.132  68.423  1.00  0.00    -0.315 A  
ENDBRANCH   8   9
ENDBRANCH   6   8
ENDBRANCH   3   6
ENDBRANCH   2   3
TORSDOF 5
ENDMDL
MODEL        2
REMARK 921   NORMALIZED FREE ENERGY PREDICTED BY IDOCK:   -6.07 KCAL/MOL
REMARK 922        TOTAL FREE ENERGY PREDICTED BY IDOCK:   -8.67 KCAL/MOL
REMARK 923 INTER-LIGAND FREE ENERGY PREDICTED BY IDOCK:   -7.62 KCAL/MOL
REMARK 924 INTRA-LIGAND FREE ENERGY PREDICTED BY IDOCK:   -1.05 KCAL/MOL
REMARK 927      BINDING AFFINITY PREDICTED BY RF-SCORE:    0.00 PKD
ROOT
HETATM    1  C   UNL     1     -10.395  18.634  67.954  1.00  0.00    -0.442 C  
HETATM    2  C   UNL     1     -10.465  17.238  68.579  1.00  0.00    -0.375 C  
ENDROOT
BRANCH   2   3
HETATM    3  N   UNL     1     -11.034  16.176  67.715  1.00  0.00    -0.319 NA 
BRANCH   3   4
HETATM    4  C   UNL     1     -10.389  16.165  66.392  1.00  0.00    -0.315 C  
HETATM    5  C   UNL     1      -9.207  15.221  66.215  1.00  0.00    -0.350 C  
ENDBRANCH   3   4
BRANCH   3   6
HETATM    6  C   UNL     1     -11.063  14.840  68.406  1.00  0.00    -0.263 C  
HETATM    7  C   UNL     1     -11.164  15.084  69.939  1.00  0.00    -0.303 C  
BRANCH   6   8
HETATM    8  C   UNL     1     -12.249  13.839  68.090  1.00  0.00    -0.143 C  
BRANCH   8   9
HETATM    9  N   UNL     1     -11.898  12.466  67.615  1.00  0.00    -0.465 NA 
HETATM   10  C   UNL     1     -11.680  12.309  66.213  1.00  0.00    -0.366 A  
HETATM   11  C   UNL     1     -12.209  13.205  65.258  1.00  0.00    -0.502 A  
HETATM   12  C   UNL     1     -11.801  13.202  63.919  1.00  0.00    -0.533 A  
HETATM   13  C   UNL     1     -10.874  12.272  63.482  1.00  0.00    -0.508 A  
HETATM   14  C   UNL     1     -10.432  11.295  64.366  1.00  0.00    -0.407 A  
HETATM   15  C   UNL     1     -10.859  11.280  65.708  1.00  0.00    -0.194 A  
HETATM   16  S   UNL     1     -10.270   9.921  66.680  1.00  0.00    -0.209 SA 
HETATM   17  C   UNL     1     -10.972  10.262  68.277  1.00  0.00    -0.264 A  
HETATM   18  C   UNL     1     -10.729   9.274  69.252  1.00  0.00    -0.211 A  
HETATM   19  C   UNL     1     -11.118   9.461  70.574  1.00  0.00    -0.330 A  
HETATM   20  C   UNL     1     -11.759  10.637  70.921  1.00  0.00    -0.387 A  
HETATM   21  C   UNL     1     -12.029  11.611  69.952  1.00  0.00    -0.414 A  
HETATM   22  C   UNL     1     -11.641  11.465  68.600  1.00  0.00    -0.320 A  
ENDBRANCH   8   9
ENDBRANCH   6   8
ENDBRANCH   3   6
ENDBRANCH   2   3
TORSDOF 5
ENDMDL
MODEL        3
REMARK 921   NORMALIZED FREE ENERGY PREDICTED BY IDOCK:   -6.05 KCAL/MOL
REMARK 922        TOTAL FREE ENERGY PREDICTED BY IDOCK:   -8.63 KCAL/MOL
REMARK 923 INTER-LIGAND FREE ENERGY PREDICTED BY IDOCK:   -7.56 KCAL/MOL
REMARK 924 INTRA-LIGAND FREE ENERGY PREDICTED BY IDOCK:   -1.07 KCAL/MOL
REMARK 927      BINDING AFFINITY PREDICTED BY RF-SCORE:    0.00 PKD
ROOT
HETATM    1  C   UNL     1      -7.267  17.398  66.264  1.00  0.00    -0.346 C  
HETATM    2  C   UNL     1      -8.732  17.285  66.694  1.00  0.00    -0.257 C  
ENDROOT
BRANCH   2   3
HETATM    3  N   UNL     1      -9.153  15.954  67.194  1.00  0.00    -0.204 NA 
BRANCH   3   4
HETATM    4  C   UNL     1      -7.991  15.080  67.421  1.00  0.00    -0.194 C  
HETATM    5  C   UNL     1      -8.255  13.767  68.148  1.00  0.00    -0.160 C  
ENDBRANCH   3   4
BRANCH   3   6
HETATM    6  C   UNL     1     -10.093  16.059  68.364  1.00  0.00    -0.229 C  
HETATM    7  C   UNL     1     -10.178  17.553  68.790  1.00  0.00    -0.373 C  
BRANCH   6   8
HETATM    8  C   UNL     1     -11.602  15.619  68.177  1.00  0.00    -0.283 C  
BRANCH   8   9
HETATM    9  N   UNL     1     -12.028  14.310  68.762  1.00  0.00    -0.327 NA 
HETATM   10  C   UNL     1     -11.760  13.144  67.983  1.00  0.00    -0.355 A  
HETATM   11  C   UNL     1     -11.568  13.193  66.585  1.00  0.00    -0.403 A  
HETATM   12  C   UNL     1     -11.066  12.107  65.858  1.00  0.00    -0.360 A  
HETATM   13  C   UNL     1     -10.776  10.918  66.505  1.00  0.00    -0.270 A  
HETATM   14  C   UNL     1     -11.076  10.796  67.856  1.00  0.00    -0.369 A  
HETATM   15  C   UNL     1     -11.603  11.879  68.585  1.00  0.00    -0.310 A  
HETATM   16  S   UNL     1     -12.008  11.535  70.276  1.00  0.00    -0.347 SA 
HETATM   17  C   UNL     1     -12.592  13.109  70.857  1.00  0.00    -0.295 A  
HETATM   18  C   UNL     1     -13.073  13.109  72.182  1.00  0.00    -0.481 A  
HETATM   19  C   UNL     1     -13.453  14.292  72.807  1.00  0.00    -0.590 A  
HETATM   20  C   UNL     1     -13.360  15.479  72.102  1.00  0.00    -0.561 A  
HETATM   21  C   UNL     1     -12.911  15.483  70.776  1.00  0.00    -0.513 A  
HETATM   22  C   UNL     1     -12.504  14.305  70.108  1.00  0.00    -0.335 A  
ENDBRANCH   8   9
ENDBRANCH   6   8
ENDBRANCH   3   6
ENDBRANCH   2   3
TORSDOF 5
ENDMDL
MODEL        4
REMARK 921   NORMALIZED FREE ENERGY PREDICTED BY IDOCK:   -5.97 KCAL/MOL
REMARK 922        TOTAL FREE ENERGY PREDICTED BY IDOCK:   -8.54 KCAL/MOL
REMARK 923 INTER-LIGAND FREE ENERGY PREDICTED BY IDOCK:   -8.04 KCAL/MOL
REMARK 924 INTRA-LIGAND FREE ENERGY PREDICTED BY IDOCK:   -0.50 KCAL/MOL
REMARK 927      BINDING AFFINITY PREDICTED BY RF-SCORE:    0.00 PKD
ROOT
HETATM    1  C   UNL     1     -10.532  19.602  66.839  1.00  0.00    -0.606 C  
HETATM    2  C   UNL     1     -10.565  18.407  67.796  1.00  0.00    -0.391 C  
ENDROOT
BRANCH   2   3
HETATM    3  N   UNL     1      -9.626  17.305  67.479  1.00  0.00    -0.255 NA 
BRANCH   3   4
HETATM    4  C   UNL     1      -8.245  17.661  67.844  1.00  0.00    -0.234 C  
HETATM    5  C   UNL     1      -7.172  17.403  66.794  1.00  0.00    -0.254 C  
ENDBRANCH   3   4
BRANCH   3   6
HETATM    6  C   UNL     1     -10.096  15.985  68.028  1.00  0.00    -0.240 C  
HETATM    7  C   UNL     1      -9.441  15.774  69.423  1.00  0.00    -0.275 C  
BRANCH   6   8
HETATM    8  C   UNL     1     -11.643  15.768  68.284  1.00  0.00    -0.298 C  
BRANCH   8   9
HETATM    9  N   UNL     1     -12.082  14.456  68.851  1.00  0.00    -0.291 NA 
HETATM   10  C   UNL     1     -11.874  13.304  68.034  1.00  0.00    -0.355 A  
HETATM   11  C   UNL     1     -11.731  13.384  66.631  1.00  0.00    -0.428 A  
HETATM   12  C   UNL     1     -11.285  12.304  65.860  1.00  0.00    -0.381 A  
HETATM   13  C   UNL     1     -11.004  11.092  66.467  1.00  0.00    -0.270 A  
HETATM   14  C   UNL     1     -11.259  10.943  67.824  1.00  0.00    -0.384 A  
HETATM   15  C   UNL     1     -11.730  12.020  68.599  1.00  0.00    -0.326 A  
HETATM   16  S   UNL     1     -12.084  11.643  70.294  1.00  0.00    -0.328 SA 
HETATM   17  C   UNL     1     -12.604  13.216  70.935  1.00  0.00    -0.295 A  
HETATM   18  C   UNL     1     -13.037  13.194  72.276  1.00  0.00    -0.458 A  
HETATM   19  C   UNL     1     -13.362  14.370  72.943  1.00  0.00    -0.575 A  
HETATM   20  C   UNL     1     -13.263  15.572  72.265  1.00  0.00    -0.539 A  
HETATM   21  C   UNL     1     -12.861  15.599  70.924  1.00  0.00    -0.498 A  
HETATM   22  C   UNL     1     -12.510  14.428  70.213  1.00  0.00    -0.354 A  
ENDBRANCH   8   9
ENDBRANCH   6   8
ENDBRANCH   3   6
ENDBRANCH   2   3
TORSDOF 5
ENDMDL
MODEL        5
REMARK 921   NORMALIZED FREE ENERGY PREDICTED BY IDOCK:   -5.95 KCAL/MOL
REMARK 922        TOTAL FREE ENERGY PREDICTED BY IDOCK:   -8.51 KCAL/MOL
REMARK 923 INTER-LIGAND FREE ENERGY PREDICTED BY IDOCK:   -7.93 KCAL/MOL
REMARK 924 INTRA-LIGAND FREE ENERGY PREDICTED BY IDOCK:   -0.58 KCAL/MOL
REMARK 927      BINDING AFFINITY PREDICTED BY RF-SCORE:    0.00 PKD
ROOT
HETATM    1  C   UNL     1     -10.486   7.652  71.254  1.00  0.00    -0.223 C  
HETATM    2  C   UNL     1     -10.580   9.155  71.529  1.00  0.00    -0.358 C  
ENDROOT
BRANCH   2   3
HETATM    3  N   UNL     1     -11.729   9.852  70.903  1.00  0.00    -0.334 NA 
BRANCH   3   4
HETATM    4  C   UNL     1     -12.813  10.067  71.875  1.00  0.00    -0.426 C  
HETATM    5  C   UNL     1     -13.718   8.876  72.165  1.00  0.00    -0.527 C  
ENDBRANCH   3   4
BRANCH   3   6
HETATM    6  C   UNL     1     -11.305  11.087  70.157  1.00  0.00    -0.251 C  
HETATM    7  C   UNL     1     -10.300  10.667  69.046  1.00  0.00    -0.237 C  
BRANCH   6   8
HETATM    8  C   UNL     1     -12.402  11.936  69.392  1.00  0.00     0.003 C  
BRANCH   8   9
HETATM    9  N   UNL     1     -12.218  13.418  69.323  1.00  0.00    -0.245 NA 
HETATM   10  C   UNL     1     -12.415  14.145  70.535  1.00  0.00    -0.361 A  
HETATM   11  C   UNL     1     -13.189  13.641  71.605  1.00  0.00    -0.447 A  
HETATM   12  C   UNL     1     -13.184  14.229  72.875  1.00  0.00    -0.593 A  
HETATM   13  C   UNL     1     -12.433  15.368  73.106  1.00  0.00    -0.572 A  
HETATM   14  C   UNL     1     -11.765  15.962  72.043  1.00  0.00    -0.588 A  
HETATM   15  C   UNL     1     -11.786  15.387  70.758  1.00  0.00    -0.353 A  
HETATM   16  S   UNL     1     -10.956  16.312  69.495  1.00  0.00    -0.334 SA 
HETATM   17  C   UNL     1     -11.163  15.277  68.065  1.00  0.00    -0.326 A  
HETATM   18  C   UNL     1     -10.660  15.819  66.865  1.00  0.00    -0.317 A  
HETATM   19  C   UNL     1     -10.648  15.074  65.691  1.00  0.00    -0.360 A  
HETATM   20  C   UNL     1     -11.149  13.784  65.714  1.00  0.00    -0.290 A  
HETATM   21  C   UNL     1     -11.677  13.250  66.896  1.00  0.00    -0.437 A  
HETATM   22  C   UNL     1     -11.697  13.969  68.113  1.00  0.00    -0.352 A  
ENDBRANCH   8   9
ENDBRANCH   6   8
ENDBRANCH   3   6
ENDBRANCH   2   3
TORSDOF 5
ENDMDL
MODEL        6
REMARK 921   NORMALIZED FREE ENERGY PREDICTED BY IDOCK:   -5.95 KCAL/MOL
REMARK 922        TOTAL FREE ENERGY PREDICTED BY IDOCK:   -8.51 KCAL/MOL
REMARK 923 INTER-LIGAND FREE ENERGY PREDICTED BY IDOCK:   -7.96 KCAL/MOL
REMARK 924 INTRA-LIGAND FREE ENERGY PREDICTED BY IDOCK:   -0.55 KCAL/MOL
REMARK 927      BINDING AFFINITY PREDICTED BY RF-SCORE:    0.00 PKD
ROOT
HETATM    1  C   UNL     1      -6.988  17.018  66.461  1.00  0.00    -0.291 C  
HETATM    2  C   UNL     1      -8.451  16.649  66.198  1.00  0.00    -0.273 C  
ENDROOT
BRANCH   2   3
HETATM    3  N   UNL     1      -9.406  17.004  67.275  1.00  0.00    -0.234 NA 
BRANCH   3   4
HETATM    4  C   UNL     1     -10.458  17.904  66.777  1.00  0.00    -0.311 C  
HETATM    5  C   UNL     1     -10.501  19.304  67.377  1.00  0.00    -0.564 C  
ENDBRANCH   3   4
BRANCH   3   6
HETATM    6  C   UNL     1      -9.916  15.789  68.003  1.00  0.00    -0.222 C  
HETATM    7  C   UNL     1      -9.349  15.813  69.451  1.00  0.00    -0.269 C  
BRANCH   6   8
HETATM    8  C   UNL     1     -11.477  15.611  68.196  1.00  0.00    -0.322 C  
BRANCH   8   9
HETATM    9  N   UNL     1     -11.974  14.298  68.711  1.00  0.00    -0.327 NA 
HETATM   10  C   UNL     1     -11.724  13.154  67.895  1.00  0.00    -0.357 A  
HETATM   11  C   UNL     1     -11.481  13.251  66.507  1.00  0.00    -0.372 A  
HETATM   12  C   UNL     1     -10.997  12.175  65.753  1.00  0.00    -0.338 A  
HETATM   13  C   UNL     1     -10.776  10.951  66.360  1.00  0.00    -0.257 A  
HETATM   14  C   UNL     1     -11.129  10.788  67.693  1.00  0.00    -0.384 A  
HETATM   15  C   UNL     1     -11.638  11.861  68.449  1.00  0.00    -0.317 A  
HETATM   16  S   UNL     1     -12.116  11.466  70.109  1.00  0.00    -0.353 SA 
HETATM   17  C   UNL     1     -12.658  13.038  70.735  1.00  0.00    -0.241 A  
HETATM   18  C   UNL     1     -13.186  13.004  72.042  1.00  0.00    -0.543 A  
HETATM   19  C   UNL     1     -13.541  14.176  72.702  1.00  0.00    -0.618 A  
HETATM   20  C   UNL     1     -13.377  15.385  72.050  1.00  0.00    -0.545 A  
HETATM   21  C   UNL     1     -12.881  15.424  70.741  1.00  0.00    -0.524 A  
HETATM   22  C   UNL     1     -12.497  14.258  70.039  1.00  0.00    -0.300 A  
ENDBRANCH   8   9
ENDBRANCH   6   8
ENDBRANCH   3   6
ENDBRANCH   2   3
TORSDOF 5
ENDMDL
MODEL        7
REMARK 921   NORMALIZED FREE ENERGY PREDICTED BY IDOCK:   -5.91 KCAL/MOL
REMARK 922        TOTAL FREE ENERGY PREDICTED BY IDOCK:   -8.45 KCAL/MOL
REMARK 923 INTER-LIGAND FREE ENERGY PREDICTED BY IDOCK:   -7.49 KCAL/MOL
REMARK 924 INTRA-LIGAND FREE ENERGY PREDICTED BY IDOCK:   -0.96 KCAL/MOL
REMARK 927      BINDING AFFINITY PREDICTED BY RF-SCORE:    0.00 PKD
ROOT
HETATM    1  C   UNL     1      -7.215  15.685  67.346  1.00  0.00    -0.241 C  
HETATM    2  C   UNL     1      -8.509  14.874  67.248  1.00  0.00    -0.208 C  
ENDROOT
BRANCH   2   3
HETATM    3  N   UNL     1      -9.626  15.340  68.105  1.00  0.00    -0.202 NA 
BRANCH   3   4
HETATM    4  C   UNL     1      -9.257  16.561  68.840  1.00  0.00    -0.258 C  
HETATM    5  C   UNL     1     -10.190  17.756  68.693  1.00  0.00    -0.377 C  
ENDBRANCH   3   4
BRANCH   3   6
HETATM    6  C   UNL     1     -10.921  15.436  67.346  1.00  0.00    -0.312 C  
HETATM    7  C   UNL     1     -10.606  15.335  65.826  1.00  0.00    -0.359 C  
BRANCH   6   8
HETATM    8  C   UNL     1     -12.035  14.337  67.589  1.00  0.00    -0.365 C  
BRANCH   8   9
HETATM    9  N   UNL     1     -11.833  13.370  68.711  1.00  0.00    -0.338 NA 
HETATM   10  C   UNL     1     -12.335  13.760  69.990  1.00  0.00    -0.300 A  
HETATM   11  C   UNL     1     -12.564  15.110  70.336  1.00  0.00    -0.405 A  
HETATM   12  C   UNL     1     -13.279  15.479  71.481  1.00  0.00    -0.589 A  
HETATM   13  C   UNL     1     -13.756  14.506  72.341  1.00  0.00    -0.583 A  
HETATM   14  C   UNL     1     -13.436  13.177  72.098  1.00  0.00    -0.653 A  
HETATM   15  C   UNL     1     -12.696  12.802  70.959  1.00  0.00    -0.243 A  
HETATM   16  S   UNL     1     -12.300  11.079  70.840  1.00  0.00    -0.403 SA 
HETATM   17  C   UNL     1     -11.421  10.996  69.298  1.00  0.00    -0.300 A  
HETATM   18  C   UNL     1     -10.902   9.724  68.982  1.00  0.00    -0.223 A  
HETATM   19  C   UNL     1     -10.292   9.484  67.755  1.00  0.00    -0.291 A  
HETATM   20  C   UNL     1     -10.194  10.520  66.844  1.00  0.00    -0.280 A  
HETATM   21  C   UNL     1     -10.682  11.793  67.162  1.00  0.00    -0.283 A  
HETATM   22  C   UNL     1     -11.318  12.077  68.393  1.00  0.00    -0.279 A  
ENDBRANCH   8   9
ENDBRANCH   6   8
ENDBRANCH   3   6
ENDBRANCH   2   3
TORSDOF 5
ENDMDL
MODEL        8
REMARK 921   NORMALIZED FREE ENERGY PREDICTED BY IDOCK:   -5.89 KCAL/MOL
REMARK 922        TOTAL FREE ENERGY PREDICTED BY IDOCK:   -8.42 KCAL/MOL
REMARK 923 INTER-LIGAND FREE ENERGY PREDICTED BY IDOCK:   -7.78 KCAL/MOL
REMARK 924 INTRA-LIGAND FREE ENERGY PREDICTED BY IDOCK:   -0.65 KCAL/MOL
REMARK 927      BINDING AFFINITY PREDICTED BY RF-SCORE:    0.00 PKD
ROOT
HETATM    1  C   UNL     1     -13.761   9.329  72.311  1.00  0.00    -0.527 C  
HETATM    2  C   UNL     1     -12.632   8.758  71.448  1.00  0.00    -0.294 C  
ENDROOT
BRANCH   2   3
HETATM    3  N   UNL     1     -11.336   9.474  71.531  1.00  0.00    -0.390 NA 
BRANCH   3   4
HETATM    4  C   UNL     1     -10.305   8.634  72.162  1.00  0.00    -0.333 C  
HETATM    5  C   UNL     1     -10.795   7.550  73.114  1.00  0.00    -0.448 C  
ENDBRANCH   3   4
BRANCH   3   6
HETATM    6  C   UNL     1     -10.933  10.071  70.210  1.00  0.00    -0.316 C  
HETATM    7  C   UNL     1     -10.645   8.909  69.216  1.00  0.00    -0.219 C  
BRANCH   6   8
HETATM    8  C   UNL     1     -11.960  10.999  69.443  1.00  0.00    -0.337 C  
BRANCH   8   9
HETATM    9  N   UNL     1     -11.703  12.472  69.434  1.00  0.00    -0.310 NA 
HETATM   10  C   UNL     1     -10.944  12.983  68.337  1.00  0.00    -0.262 A  
HETATM   11  C   UNL     1     -10.076  12.173  67.573  1.00  0.00    -0.204 A  
HETATM   12  C   UNL     1      -9.525  12.601  66.360  1.00  0.00    -0.231 A  
HETATM   13  C   UNL     1      -9.795  13.874  65.890  1.00  0.00    -0.287 A  
HETATM   14  C   UNL     1     -10.539  14.740  66.681  1.00  0.00    -0.299 A  
HETATM   15  C   UNL     1     -11.076  14.321  67.914  1.00  0.00    -0.278 A  
HETATM   16  S   UNL     1     -11.928  15.569  68.839  1.00  0.00    -0.199 SA 
HETATM   17  C   UNL     1     -12.477  14.674  70.272  1.00  0.00    -0.346 A  
HETATM   18  C   UNL     1     -13.128  15.459  71.245  1.00  0.00    -0.564 A  
HETATM   19  C   UNL     1     -13.712  14.874  72.364  1.00  0.00    -0.576 A  
HETATM   20  C   UNL     1     -13.638  13.500  72.515  1.00  0.00    -0.674 A  
HETATM   21  C   UNL     1     -12.968  12.718  71.567  1.00  0.00    -0.388 A  
HETATM   22  C   UNL     1     -12.371  13.271  70.411  1.00  0.00    -0.295 A  
ENDBRANCH   8   9
ENDBRANCH   6   8
ENDBRANCH   3   6
ENDBRANCH   2   3
TORSDOF 5
ENDMDL
MODEL        9
REMARK 921   NORMALIZED FREE ENERGY PREDICTED BY IDOCK:   -5.84 KCAL/MOL
REMARK 922        TOTAL FREE ENERGY PREDICTED BY IDOCK:   -8.37 KCAL/MOL
REMARK 923 INTER-LIGAND FREE ENERGY PREDICTED BY IDOCK:   -7.84 KCAL/MOL
REMARK 924 INTRA-LIGAND FREE ENERGY PREDICTED BY IDOCK:   -0.53 KCAL/MOL
REMARK 927      BINDING AFFINITY PREDICTED BY RF-SCORE:    0.00 PKD
ROOT
HETATM    1  C   UNL     1     -10.953   6.580  69.604  1.00  0.00    -0.394 C  
HETATM    2  C   UNL     1     -12.080   6.739  70.628  1.00  0.00    -0.314 C  
ENDROOT
BRANCH   2   3
HETATM    3  N   UNL     1     -11.887   7.810  71.635  1.00  0.00    -0.276 NA 
BRANCH   3   4
HETATM    4  C   UNL     1     -10.463   7.976  71.966  1.00  0.00    -0.246 C  
HETATM    5  C   UNL     1     -10.038   7.583  73.375  1.00  0.00    -0.393 C  
ENDBRANCH   3   4
BRANCH   3   6
HETATM    6  C   UNL     1     -12.592   9.083  71.250  1.00  0.00    -0.280 C  
HETATM    7  C   UNL     1     -13.843   9.243  72.160  1.00  0.00    -0.478 C  
BRANCH   6   8
HETATM    8  C   UNL     1     -11.823  10.459  71.395  1.00  0.00    -0.222 C  
BRANCH   8   9
HETATM    9  N   UNL     1     -12.072  11.513  70.364  1.00  0.00    -0.372 NA 
HETATM   10  C   UNL     1     -12.656  12.732  70.823  1.00  0.00    -0.225 A  
HETATM   11  C   UNL     1     -13.402  12.812  72.020  1.00  0.00    -0.565 A  
HETATM   12  C   UNL     1     -13.763  14.035  72.598  1.00  0.00    -0.586 A  
HETATM   13  C   UNL     1     -13.422  15.221  71.973  1.00  0.00    -0.547 A  
HETATM   14  C   UNL     1     -12.804  15.174  70.730  1.00  0.00    -0.473 A  
HETATM   15  C   UNL     1     -12.459  13.946  70.134  1.00  0.00    -0.292 A  
HETATM   16  S   UNL     1     -11.753  14.056  68.513  1.00  0.00    -0.368 SA 
HETATM   17  C   UNL     1     -11.428  12.354  68.121  1.00  0.00    -0.318 A  
HETATM   18  C   UNL     1     -10.928  12.131  66.822  1.00  0.00    -0.325 A  
HETATM   19  C   UNL     1     -10.520  10.864  66.419  1.00  0.00    -0.307 A  
HETATM   20  C   UNL     1     -10.620   9.814  67.314  1.00  0.00    -0.320 A  
HETATM   21  C   UNL     1     -11.142  10.022  68.596  1.00  0.00    -0.223 A  
HETATM   22  C   UNL     1     -11.557  11.296  69.050  1.00  0.00    -0.319 A  
ENDBRANCH   8   9
ENDBRANCH   6   8
ENDBRANCH   3   6
ENDBRANCH   2   3
TORSDOF 5
ENDMDL
MODEL       10
REMARK 921   NORMALIZED FREE ENERGY PREDICTED BY IDOCK:   -5.79 KCAL/MOL
REMARK 922        TOTAL FREE ENERGY PREDICTED BY IDOCK:   -8.29 KCAL/MOL
REMARK 923 INTER-LIGAND FREE ENERGY PREDICTED BY IDOCK:   -7.83 KCAL/MOL
REMARK 924 INTRA-LIGAND FREE ENERGY PREDICTED BY IDOCK:   -0.46 KCAL/MOL
REMARK 927      BINDING AFFINITY PREDICTED BY RF-SCORE:    0.00 PKD
ROOT
HETATM    1  C   UNL     1     -11.266  15.020  65.563  1.00  0.00    -0.344 C  
HETATM    2  C   UNL     1     -12.156  14.067  66.365  1.00  0.00    -0.455 C  
ENDROOT
BRANCH   2   3
HETATM    3  N   UNL     1     -12.147  12.653  65.920  1.00  0.00    -0.563 NA 
BRANCH   3   4
HETATM    4  C   UNL     1     -11.599  12.528  64.559  1.00  0.00    -0.348 C  
HETATM    5  C   UNL     1     -12.581  12.140  63.461  1.00  0.00    -0.621 C  
ENDBRANCH   3   4
BRANCH   3   6
HETATM    6  C   UNL     1     -11.509  11.743  66.935  1.00  0.00    -0.293 C  
HETATM    7  C   UNL     1     -10.413  10.903  66.219  1.00  0.00    -0.304 C  
BRANCH   6   8
HETATM    8  C   UNL     1     -10.764  12.383  68.177  1.00  0.00    -0.221 C  
BRANCH   8   9
HETATM    9  N   UNL     1     -11.306  12.100  69.541  1.00  0.00    -0.240 NA 
HETATM   10  C   UNL     1     -11.918  13.192  70.227  1.00  0.00    -0.292 A  
HETATM   11  C   UNL     1     -11.632  14.540  69.915  1.00  0.00    -0.340 A  
HETATM   12  C   UNL     1     -12.400  15.603  70.404  1.00  0.00    -0.427 A  
HETATM   13  C   UNL     1     -13.460  15.352  71.258  1.00  0.00    -0.598 A  
HETATM   14  C   UNL     1     -13.686  14.051  71.687  1.00  0.00    -0.419 A  
HETATM   15  C   UNL     1     -12.901  12.982  71.215  1.00  0.00    -0.281 A  
HETATM   16  S   UNL     1     -13.264  11.398  71.923  1.00  0.00    -0.211 SA 
HETATM   17  C   UNL     1     -12.125  10.330  71.075  1.00  0.00    -0.386 A  
HETATM   18  C   UNL     1     -12.135   8.990  71.510  1.00  0.00    -0.410 A  
HETATM   19  C   UNL     1     -11.380   8.019  70.860  1.00  0.00    -0.291 A  
HETATM   20  C   UNL     1     -10.606   8.391  69.775  1.00  0.00    -0.221 A  
HETATM   21  C   UNL     1     -10.569   9.726  69.355  1.00  0.00    -0.248 A  
HETATM   22  C   UNL     1     -11.329  10.741  69.981  1.00  0.00    -0.319 A  
ENDBRANCH   8   9
ENDBRANCH   6   8
ENDBRANCH   3   6
ENDBRANCH   2   3
TORSDOF 5
ENDMDL
MODEL       11
REMARK 921   NORMALIZED FREE ENERGY PREDICTED BY IDOCK:   -5.75 KCAL/MOL
REMARK 922        TOTAL FREE ENERGY PREDICTED BY IDOCK:   -8.25 KCAL/MOL
REMARK 923 INTER-LIGAND FREE ENERGY PREDICTED BY IDOCK:   -7.45 KCAL/MOL
REMARK 924 INTRA-LIGAND FREE ENERGY PREDICTED BY IDOCK:   -0.80 KCAL/MOL
REMARK 927      BINDING AFFINITY PREDICTED BY RF-SCORE:    0.00 PKD
ROOT
HETATM    1  C   UNL     1      -8.906  10.986  62.557  1.00  0.00    -0.358 C  
HETATM    2  C   UNL     1      -9.819  10.627  63.732  1.00  0.00    -0.335 C  
ENDROOT
BRANCH   2   3
HETATM    3  N   UNL     1     -10.251  11.763  64.581  1.00  0.00    -0.271 NA 
BRANCH   3   4
HETATM    4  C   UNL     1     -11.334  12.524  63.939  1.00  0.00    -0.438 C  
HETATM    5  C   UNL     1     -12.579  12.784  64.778  1.00  0.00    -0.518 C  
ENDBRANCH   3   4
BRANCH   3   6
HETATM    6  C   UNL     1     -10.542  11.336  65.995  1.00  0.00    -0.258 C  
HETATM    7  C   UNL     1     -10.009   9.887  66.187  1.00  0.00    -0.331 C  
BRANCH   6   8
HETATM    8  C   UNL     1      -9.899  12.151  67.189  1.00  0.00    -0.197 C  
BRANCH   8   9
HETATM    9  N   UNL     1     -10.749  13.171  67.878  1.00  0.00    -0.231 NA 
HETATM   10  C   UNL     1     -11.564  12.705  68.953  1.00  0.00    -0.317 A  
HETATM   11  C   UNL     1     -11.952  11.352  69.080  1.00  0.00    -0.395 A  
HETATM   12  C   UNL     1     -12.536  10.846  70.247  1.00  0.00    -0.383 A  
HETATM   13  C   UNL     1     -12.788  11.690  71.315  1.00  0.00    -0.430 A  
HETATM   14  C   UNL     1     -12.540  13.049  71.172  1.00  0.00    -0.388 A  
HETATM   15  C   UNL     1     -11.974  13.566  69.991  1.00  0.00    -0.340 A  
HETATM   16  S   UNL     1     -11.798  15.329  69.938  1.00  0.00    -0.359 SA 
HETATM   17  C   UNL     1     -11.036  15.588  68.353  1.00  0.00    -0.315 A  
HETATM   18  C   UNL     1     -10.851  16.941  68.001  1.00  0.00    -0.338 A  
HETATM   19  C   UNL     1     -10.164  17.292  66.844  1.00  0.00    -0.322 A  
HETATM   20  C   UNL     1      -9.668  16.288  66.031  1.00  0.00    -0.370 A  
HETATM   21  C   UNL     1      -9.873  14.943  66.360  1.00  0.00    -0.292 A  
HETATM   22  C   UNL     1     -10.555  14.543  67.532  1.00  0.00    -0.262 A  
ENDBRANCH   8   9
ENDBRANCH   6   8
ENDBRANCH   3   6
ENDBRANCH   2   3
TORSDOF 5
ENDMDL
MODEL       12
REMARK 921   NORMALIZED FREE ENERGY PREDICTED BY IDOCK:   -5.73 KCAL/MOL
REMARK 922        TOTAL FREE ENERGY PREDICTED BY IDOCK:   -8.23 KCAL/MOL
REMARK 923 INTER-LIGAND FREE ENERGY PREDICTED BY IDOCK:   -7.58 KCAL/MOL
REMARK 924 INTRA-LIGAND FREE ENERGY PREDICTED BY IDOCK:   -0.64 KCAL/MOL
REMARK 927      BINDING AFFINITY PREDICTED BY RF-SCORE:    0.00 PKD
ROOT
HETATM    1  C   UNL     1      -9.537  15.353  65.841  1.00  0.00    -0.386 C  
HETATM    2  C   UNL     1     -10.708  15.655  66.781  1.00  0.00    -0.300 C  
ENDROOT
BRANCH   2   3
HETATM    3  N   UNL     1     -10.421  15.517  68.229  1.00  0.00    -0.238 NA 
BRANCH   3   4
HETATM    4  C   UNL     1     -10.696  16.771  68.947  1.00  0.00    -0.333 C  
HETATM    5  C   UNL     1     -10.109  18.044  68.350  1.00  0.00    -0.392 C  
ENDBRANCH   3   4
BRANCH   3   6
HETATM    6  C   UNL     1     -11.078  14.300  68.823  1.00  0.00    -0.256 C  
HETATM    7  C   UNL     1     -11.845  14.735  70.104  1.00  0.00    -0.360 C  
BRANCH   6   8
HETATM    8  C   UNL     1     -12.155  13.516  67.968  1.00  0.00    -0.262 C  
BRANCH   8   9
HETATM    9  N   UNL     1     -11.773  12.182  67.413  1.00  0.00    -0.509 NA 
HETATM   10  C   UNL     1     -11.648  12.090  65.993  1.00  0.00    -0.305 A  
HETATM   11  C   UNL     1     -12.288  12.994  65.116  1.00  0.00    -0.536 A  
HETATM   12  C   UNL     1     -11.977  13.063  63.753  1.00  0.00    -0.585 A  
HETATM   13  C   UNL     1     -11.039  12.199  63.214  1.00  0.00    -0.408 A  
HETATM   14  C   UNL     1     -10.488  11.214  64.023  1.00  0.00    -0.447 A  
HETATM   15  C   UNL     1     -10.816  11.126  65.390  1.00  0.00    -0.142 A  
HETATM   16  S   UNL     1     -10.092   9.763  66.261  1.00  0.00    -0.217 SA 
HETATM   17  C   UNL     1     -10.693  10.006  67.916  1.00  0.00    -0.272 A  
HETATM   18  C   UNL     1     -10.333   8.995  68.830  1.00  0.00    -0.236 A  
HETATM   19  C   UNL     1     -10.635   9.111  70.182  1.00  0.00    -0.258 A  
HETATM   20  C   UNL     1     -11.306  10.238  70.622  1.00  0.00    -0.431 A  
HETATM   21  C   UNL     1     -11.692  11.233  69.716  1.00  0.00    -0.422 A  
HETATM   22  C   UNL     1     -11.396  11.159  68.335  1.00  0.00    -0.288 A  
ENDBRANCH   8   9
ENDBRANCH   6   8
ENDBRANCH   3   6
ENDBRANCH   2   3
TORSDOF 5
ENDMDL
MODEL       13
REMARK 921   NORMALIZED FREE ENERGY PREDICTED BY IDOCK:   -5.73 KCAL/MOL
REMARK 922        TOTAL FREE ENERGY PREDICTED BY IDOCK:   -8.22 KCAL/MOL
REMARK 923 INTER-LIGAND FREE ENERGY PREDICTED BY IDOCK:   -8.03 KCAL/MOL
REMARK 924 INTRA-LIGAND FREE ENERGY PREDICTED BY IDOCK:   -0.19 KCAL/MOL
REMARK 927      BINDING AFFINITY PREDICTED BY RF-SCORE:    0.00 PKD
ROOT
HETATM    1  C   UNL     1      -7.498  19.627  68.336  1.00  0.00    -0.359 C  
HETATM    2  C   UNL     1      -8.359  18.614  67.576  1.00  0.00    -0.265 C  
ENDROOT
BRANCH   2   3
HETATM    3  N   UNL     1      -9.673  18.301  68.188  1.00  0.00    -0.311 NA 
BRANCH   3   4
HETATM    4  C   UNL     1     -10.753  19.071  67.549  1.00  0.00    -0.446 C  
HETATM    5  C   UNL     1     -10.523  19.503  66.106  1.00  0.00    -0.613 C  
ENDBRANCH   3   4
BRANCH   3   6
HETATM    6  C   UNL     1      -9.924  16.820  68.265  1.00  0.00    -0.273 C  
HETATM    7  C   UNL     1      -8.954  16.214  69.320  1.00  0.00    -0.200 C  
BRANCH   6   8
HETATM    8  C   UNL     1     -11.354  16.306  68.707  1.00  0.00    -0.329 C  
BRANCH   8   9
HETATM    9  N   UNL     1     -11.446  14.964  69.361  1.00  0.00    -0.281 NA 
HETATM   10  C   UNL     1     -11.831  14.946  70.735  1.00  0.00    -0.312 A  
HETATM   11  C   UNL     1     -11.673  16.066  71.582  1.00  0.00    -0.583 A  
HETATM   12  C   UNL     1     -12.267  16.139  72.847  1.00  0.00    -0.640 A  
HETATM   13  C   UNL     1     -13.009  15.072  73.324  1.00  0.00    -0.642 A  
HETATM   14  C   UNL     1     -13.075  13.907  72.571  1.00  0.00    -0.533 A  
HETATM   15  C   UNL     1     -12.459  13.821  71.307  1.00  0.00    -0.345 A  
HETATM   16  S   UNL     1     -12.565  12.241  70.513  1.00  0.00    -0.011 SA 
HETATM   17  C   UNL     1     -11.729  12.531  68.972  1.00  0.00    -0.318 A  
HETATM   18  C   UNL     1     -11.586  11.392  68.154  1.00  0.00    -0.364 A  
HETATM   19  C   UNL     1     -11.056  11.493  66.872  1.00  0.00    -0.366 A  
HETATM   20  C   UNL     1     -10.659  12.735  66.409  1.00  0.00    -0.273 A  
HETATM   21  C   UNL     1     -10.770  13.865  67.228  1.00  0.00    -0.286 A  
HETATM   22  C   UNL     1     -11.314  13.809  68.532  1.00  0.00    -0.285 A  
ENDBRANCH   8   9
ENDBRANCH   6   8
ENDBRANCH   3   6
ENDBRANCH   2   3
TORSDOF 5
ENDMDL
MODEL       14
REMARK 921   NORMALIZED FREE ENERGY PREDICTED BY IDOCK:   -5.69 KCAL/MOL
REMARK 922        TOTAL FREE ENERGY PREDICTED BY IDOCK:   -8.17 KCAL/MOL
REMARK 923 INTER-LIGAND FREE ENERGY PREDICTED BY IDOCK:   -7.79 KCAL/MOL
REMARK 924 INTRA-LIGAND FREE ENERGY PREDICTED BY IDOCK:   -0.38 KCAL/MOL
REMARK 927      BINDING AFFINITY PREDICTED BY RF-SCORE:    0.00 PKD
ROOT
HETATM    1  C   UNL     1     -10.476  19.305  65.997  1.00  0.00    -0.573 C  
HETATM    2  C   UNL     1     -10.148  17.951  66.630  1.00  0.00    -0.362 C  
ENDROOT
BRANCH   2   3
HETATM    3  N   UNL     1      -9.078  17.172  65.961  1.00  0.00    -0.513 NA 
BRANCH   3   4
HETATM    4  C   UNL     1      -7.771  17.412  66.595  1.00  0.00    -0.258 C  
HETATM    5  C   UNL     1      -6.760  18.220  65.792  1.00  0.00    -0.317 C  
ENDBRANCH   3   4
BRANCH   3   6
HETATM    6  C   UNL     1      -9.443  15.720  65.813  1.00  0.00    -0.299 C  
HETATM    7  C   UNL     1      -8.721  14.917  66.933  1.00  0.00    -0.276 C  
BRANCH   6   8
HETATM    8  C   UNL     1     -10.962  15.294  65.942  1.00  0.00    -0.325 C  
BRANCH   8   9
HETATM    9  N   UNL     1     -11.266  13.950  66.523  1.00  0.00    -0.315 NA 
HETATM   10  C   UNL     1     -11.029  12.821  65.682  1.00  0.00    -0.273 A  
HETATM   11  C   UNL     1     -10.988  12.919  64.274  1.00  0.00    -0.419 A  
HETATM   12  C   UNL     1     -10.518  11.879  63.463  1.00  0.00    -0.505 A  
HETATM   13  C   UNL     1     -10.109  10.688  64.036  1.00  0.00    -0.378 A  
HETATM   14  C   UNL     1     -10.260  10.512  65.405  1.00  0.00    -0.340 A  
HETATM   15  C   UNL     1     -10.755  11.548  66.222  1.00  0.00    -0.272 A  
HETATM   16  S   UNL     1     -10.965  11.135  67.933  1.00  0.00    -0.276 SA 
HETATM   17  C   UNL     1     -11.554  12.663  68.624  1.00  0.00    -0.316 A  
HETATM   18  C   UNL     1     -11.893  12.602  69.990  1.00  0.00    -0.358 A  
HETATM   19  C   UNL     1     -12.257  13.747  70.691  1.00  0.00    -0.434 A  
HETATM   20  C   UNL     1     -12.291  14.957  70.020  1.00  0.00    -0.358 A  
HETATM   21  C   UNL     1     -11.983  15.020  68.656  1.00  0.00    -0.278 A  
HETATM   22  C   UNL     1     -11.597  13.883  67.910  1.00  0.00    -0.342 A  
ENDBRANCH   8   9
ENDBRANCH   6   8
ENDBRANCH   3   6
ENDBRANCH   2   3
TORSDOF 5
ENDMDL
MODEL       15
REMARK 921   NORMALIZED FREE ENERGY PREDICTED BY IDOCK:   -5.66 KCAL/MOL
REMARK 922        TOTAL FREE ENERGY PREDICTED BY IDOCK:   -8.13 KCAL/MOL
REMARK 923 INTER-LIGAND FREE ENERGY PREDICTED BY IDOCK:   -7.62 KCAL/MOL
REMARK 924 INTRA-LIGAND FREE ENERGY PREDICTED BY IDOCK:   -0.51 KCAL/MOL
REMARK 927      BINDING AFFINITY PREDICTED BY RF-SCORE:    0.00 PKD
ROOT
HETATM    1  C   UNL     1     -10.213  10.947  64.508  1.00  0.00    -0.422 C  
HETATM    2  C   UNL     1     -11.109  12.043  65.092  1.00  0.00    -0.318 C  
ENDROOT
BRANCH   2   3
HETATM    3  N   UNL     1     -10.404  13.247  65.595  1.00  0.00    -0.283 NA 
BRANCH   3   4
HETATM    4  C   UNL     1     -10.800  14.447  64.839  1.00  0.00    -0.416 C  
HETATM    5  C   UNL     1     -12.205  14.452  64.252  1.00  0.00    -0.450 C  
ENDBRANCH   3   4
BRANCH   3   6
HETATM    6  C   UNL     1     -10.514  13.385  67.089  1.00  0.00    -0.249 C  
HETATM    7  C   UNL     1     -10.222  14.866  67.465  1.00  0.00    -0.233 C  
BRANCH   6   8
HETATM    8  C   UNL     1     -11.898  13.068  67.789  1.00  0.00    -0.347 C  
BRANCH   8   9
HETATM    9  N   UNL     1     -11.869  12.464  69.156  1.00  0.00    -0.310 NA 
HETATM   10  C   UNL     1     -12.387  13.262  70.220  1.00  0.00    -0.264 A  
HETATM   11  C   UNL     1     -12.473  14.669  70.140  1.00  0.00    -0.369 A  
HETATM   12  C   UNL     1     -13.199  15.430  71.064  1.00  0.00    -0.560 A  
HETATM   13  C   UNL     1     -13.831  14.808  72.126  1.00  0.00    -0.578 A  
HETATM   14  C   UNL     1     -13.657  13.442  72.306  1.00  0.00    -0.703 A  
HETATM   15  C   UNL     1     -12.909  12.676  71.391  1.00  0.00    -0.261 A  
HETATM   16  S   UNL     1     -12.712  10.965  71.810  1.00  0.00    -0.238 SA 
HETATM   17  C   UNL     1     -11.770  10.342  70.438  1.00  0.00    -0.331 A  
HETATM   18  C   UNL     1     -11.388   8.990  70.549  1.00  0.00    -0.282 A  
HETATM   19  C   UNL     1     -10.749   8.338  69.500  1.00  0.00    -0.179 A  
HETATM   20  C   UNL     1     -10.482   9.042  68.339  1.00  0.00    -0.234 A  
HETATM   21  C   UNL     1     -10.833  10.393  68.233  1.00  0.00    -0.299 A  
HETATM   22  C   UNL     1     -11.494  11.090  69.270  1.00  0.00    -0.300 A  
ENDBRANCH   8   9
ENDBRANCH   6   8
ENDBRANCH   3   6
ENDBRANCH   2   3
TORSDOF 5
ENDMDL
MODEL       16
REMARK 921   NORMALIZED FREE ENERGY PREDICTED BY IDOCK:   -5.62 KCAL/MOL
REMARK 922        TOTAL FREE ENERGY PREDICTED BY IDOCK:   -8.08 KCAL/MOL
REMARK 923 INTER-LIGAND FREE ENERGY PREDICTED BY IDOCK:   -7.40 KCAL/MOL
REMARK 924 INTRA-LIGAND FREE ENERGY PREDICTED BY IDOCK:   -0.68 KCAL/MOL
REMARK 927      BINDING AFFINITY PREDICTED BY RF-SCORE:    0.00 PKD
ROOT
HETATM    1  C   UNL     1     -13.174  10.232  72.072  1.00  0.00    -0.516 C  
HETATM    2  C   UNL     1     -12.308   9.293  71.227  1.00  0.00    -0.328 C  
ENDROOT
BRANCH   2   3
HETATM    3  N   UNL     1     -10.915   9.744  70.990  1.00  0.00    -0.339 NA 
BRANCH   3   4
HETATM    4  C   UNL     1      -9.952   8.886  71.698  1.00  0.00    -0.327 C  
HETATM    5  C   UNL     1     -10.527   7.894  72.701  1.00  0.00    -0.384 C  
ENDBRANCH   3   4
BRANCH   3   6
HETATM    6  C   UNL     1     -10.624   9.934  69.526  1.00  0.00    -0.242 C  
HETATM    7  C   UNL     1     -10.417   8.532  68.883  1.00  0.00    -0.207 C  
BRANCH   6   8
HETATM    8  C   UNL     1     -11.713  10.628  68.611  1.00  0.00    -0.158 C  
BRANCH   8   9
HETATM    9  N   UNL     1     -11.374  11.949  67.998  1.00  0.00    -0.264 NA 
HETATM   10  C   UNL     1     -10.926  11.930  66.643  1.00  0.00    -0.291 A  
HETATM   11  C   UNL     1     -10.364  10.780  66.046  1.00  0.00    -0.300 A  
HETATM   12  C   UNL     1     -10.153  10.678  64.665  1.00  0.00    -0.417 A  
HETATM   13  C   UNL     1     -10.463  11.745  63.840  1.00  0.00    -0.437 A  
HETATM   14  C   UNL     1     -10.894  12.935  64.410  1.00  0.00    -0.404 A  
HETATM   15  C   UNL     1     -11.085  13.049  65.801  1.00  0.00    -0.278 A  
HETATM   16  S   UNL     1     -11.557  14.657  66.376  1.00  0.00    -0.302 SA 
HETATM   17  C   UNL     1     -11.734  14.400  68.126  1.00  0.00    -0.342 A  
HETATM   18  C   UNL     1     -12.031  15.561  68.867  1.00  0.00    -0.306 A  
HETATM   19  C   UNL     1     -12.310  15.491  70.228  1.00  0.00    -0.431 A  
HETATM   20  C   UNL     1     -12.285  14.257  70.852  1.00  0.00    -0.425 A  
HETATM   21  C   UNL     1     -11.963  13.102  70.127  1.00  0.00    -0.381 A  
HETATM   22  C   UNL     1     -11.684  13.128  68.741  1.00  0.00    -0.324 A  
ENDBRANCH   8   9
ENDBRANCH   6   8
ENDBRANCH   3   6
ENDBRANCH   2   3
TORSDOF 5
ENDMDL
MODEL       17
REMARK 921   NORMALIZED FREE ENERGY PREDICTED BY IDOCK:   -5.62 KCAL/MOL
REMARK 922        TOTAL FREE ENERGY PREDICTED BY IDOCK:   -8.07 KCAL/MOL
REMARK 923 INTER-LIGAND FREE ENERGY PREDICTED BY IDOCK:   -7.09 KCAL/MOL
REMARK 924 INTRA-LIGAND FREE ENERGY PREDICTED BY IDOCK:   -0.99 KCAL/MOL
REMARK 927      BINDING AFFINITY PREDICTED BY RF-SCORE:    0.00 PKD
ROOT
HETATM    1  C   UNL     1      -8.580  15.543  67.047  1.00  0.00    -0.262 C  
HETATM    2  C   UNL     1      -8.669  15.743  68.562  1.00  0.00    -0.184 C  
ENDROOT
BRANCH   2   3
HETATM    3  N   UNL     1      -9.914  16.381  69.054  1.00  0.00    -0.254 NA 
BRANCH   3   4
HETATM    4  C   UNL     1     -10.570  17.155  67.988  1.00  0.00    -0.374 C  
HETATM    5  C   UNL     1     -10.406  18.669  68.043  1.00  0.00    -0.421 C  
ENDBRANCH   3   4
BRANCH   3   6
HETATM    6  C   UNL     1     -10.813  15.400  69.757  1.00  0.00    -0.288 C  
HETATM    7  C   UNL     1     -11.383  16.087  71.031  1.00  0.00    -0.423 C  
BRANCH   6   8
HETATM    8  C   UNL     1     -12.092  14.854  69.001  1.00  0.00    -0.212 C  
BRANCH   8   9
HETATM    9  N   UNL     1     -12.086  13.427  68.555  1.00  0.00    -0.318 NA 
HETATM   10  C   UNL     1     -11.748  13.184  67.189  1.00  0.00    -0.377 A  
HETATM   11  C   UNL     1     -11.882  14.172  66.188  1.00  0.00    -0.420 A  
HETATM   12  C   UNL     1     -11.329  14.024  64.911  1.00  0.00    -0.354 A  
HETATM   13  C   UNL     1     -10.654  12.862  64.581  1.00  0.00    -0.384 A  
HETATM   14  C   UNL     1     -10.617  11.821  65.499  1.00  0.00    -0.323 A  
HETATM   15  C   UNL     1     -11.193  11.956  66.777  1.00  0.00    -0.327 A  
HETATM   16  S   UNL     1     -11.135  10.508  67.797  1.00  0.00    -0.277 SA 
HETATM   17  C   UNL     1     -11.904  11.067  69.298  1.00  0.00    -0.340 A  
HETATM   18  C   UNL     1     -12.072  10.072  70.282  1.00  0.00    -0.226 A  
HETATM   19  C   UNL     1     -12.553  10.390  71.548  1.00  0.00    -0.544 A  
HETATM   20  C   UNL     1     -12.876  11.706  71.828  1.00  0.00    -0.418 A  
HETATM   21  C   UNL     1     -12.739  12.695  70.846  1.00  0.00    -0.274 A  
HETATM   22  C   UNL     1     -12.243  12.416  69.551  1.00  0.00    -0.086 A  
ENDBRANCH   8   9
ENDBRANCH   6   8
ENDBRANCH   3   6
ENDBRANCH   2   3
TORSDOF 5
ENDMDL
MODEL       18
REMARK 921   NORMALIZED FREE ENERGY PREDICTED BY IDOCK:   -5.61 KCAL/MOL
REMARK 922        TOTAL FREE ENERGY PREDICTED BY IDOCK:   -8.07 KCAL/MOL
REMARK 923 INTER-LIGAND FREE ENERGY PREDICTED BY IDOCK:   -7.04 KCAL/MOL
REMARK 924 INTRA-LIGAND FREE ENERGY PREDICTED BY IDOCK:   -1.04 KCAL/MOL
REMARK 927      BINDING AFFINITY PREDICTED BY RF-SCORE:    0.00 PKD
ROOT
HETATM    1  C   UNL     1     -11.985  14.460  64.943  1.00  0.00    -0.430 C  
HETATM    2  C   UNL     1     -12.501  13.131  65.503  1.00  0.00    -0.458 C  
ENDROOT
BRANCH   2   3
HETATM    3  N   UNL     1     -11.552  11.994  65.434  1.00  0.00    -0.323 NA 
BRANCH   3   4
HETATM    4  C   UNL     1     -10.349  12.352  64.666  1.00  0.00    -0.307 C  
HETATM    5  C   UNL     1     -10.159  11.650  63.327  1.00  0.00    -0.454 C  
ENDBRANCH   3   4
BRANCH   3   6
HETATM    6  C   UNL     1     -11.274  11.405  66.791  1.00  0.00    -0.252 C  
HETATM    7  C   UNL     1     -10.785   9.941  66.597  1.00  0.00    -0.116 C  
BRANCH   6   8
HETATM    8  C   UNL     1     -10.166  12.071  67.704  1.00  0.00    -0.199 C  
BRANCH   8   9
HETATM    9  N   UNL     1     -10.584  13.178  68.618  1.00  0.00    -0.252 NA 
HETATM   10  C   UNL     1     -10.213  14.502  68.233  1.00  0.00    -0.234 A  
HETATM   11  C   UNL     1      -9.136  14.763  67.356  1.00  0.00    -0.202 A  
HETATM   12  C   UNL     1      -8.923  16.023  66.785  1.00  0.00    -0.275 A  
HETATM   13  C   UNL     1      -9.760  17.077  67.106  1.00  0.00    -0.259 A  
HETATM   14  C   UNL     1     -10.747  16.885  68.065  1.00  0.00    -0.364 A  
HETATM   15  C   UNL     1     -10.950  15.625  68.659  1.00  0.00    -0.294 A  
HETATM   16  S   UNL     1     -12.192  15.568  69.922  1.00  0.00    -0.261 SA 
HETATM   17  C   UNL     1     -12.182  13.854  70.391  1.00  0.00    -0.368 A  
HETATM   18  C   UNL     1     -13.037  13.530  71.464  1.00  0.00    -0.427 A  
HETATM   19  C   UNL     1     -13.218  12.210  71.861  1.00  0.00    -0.474 A  
HETATM   20  C   UNL     1     -12.537  11.211  71.190  1.00  0.00    -0.513 A  
HETATM   21  C   UNL     1     -11.664  11.528  70.142  1.00  0.00    -0.395 A  
HETATM   22  C   UNL     1     -11.460  12.855  69.699  1.00  0.00    -0.181 A  
ENDBRANCH   8   9
ENDBRANCH   6   8
ENDBRANCH   3   6
ENDBRANCH   2   3
TORSDOF 5
ENDMDL
MODEL       19
REMARK 921   NORMALIZED FREE ENERGY PREDICTED BY IDOCK:   -5.50 KCAL/MOL
REMARK 922        TOTAL FREE ENERGY PREDICTED BY IDOCK:   -7.92 KCAL/MOL
REMARK 923 INTER-LIGAND FREE ENERGY PREDICTED BY IDOCK:   -7.32 KCAL/MOL
REMARK 924 INTRA-LIGAND FREE ENERGY PREDICTED BY IDOCK:   -0.60 KCAL/MOL
REMARK 927      BINDING AFFINITY PREDICTED BY RF-SCORE:    0.00 PKD
ROOT
HETATM    1  C   UNL     1     -12.014  13.213  63.771  1.00  0.00    -0.572 C  
HETATM    2  C   UNL     1     -12.478  13.314  65.226  1.00  0.00    -0.489 C  
ENDROOT
BRANCH   2   3
HETATM    3  N   UNL     1     -11.399  13.394  66.240  1.00  0.00    -0.300 NA 
BRANCH   3   4
HETATM    4  C   UNL     1     -11.292  14.753  66.795  1.00  0.00    -0.346 C  
HETATM    5  C   UNL     1     -10.073  15.566  66.380  1.00  0.00    -0.301 C  
ENDBRANCH   3   4
BRANCH   3   6
HETATM    6  C   UNL     1     -11.511  12.305  67.272  1.00  0.00    -0.357 C  
HETATM    7  C   UNL     1     -11.035  10.971  66.628  1.00  0.00    -0.253 C  
BRANCH   6   8
HETATM    8  C   UNL     1     -10.663  12.421  68.604  1.00  0.00    -0.232 C  
BRANCH   8   9
HETATM    9  N   UNL     1     -11.327  12.052  69.892  1.00  0.00    -0.141 NA 
HETATM   10  C   UNL     1     -12.061  13.083  70.553  1.00  0.00    -0.292 A  
HETATM   11  C   UNL     1     -11.812  14.455  70.326  1.00  0.00    -0.382 A  
HETATM   12  C   UNL     1     -12.679  15.458  70.775  1.00  0.00    -0.516 A  
HETATM   13  C   UNL     1     -13.808  15.121  71.502  1.00  0.00    -0.597 A  
HETATM   14  C   UNL     1     -14.011  13.793  71.853  1.00  0.00    -0.464 A  
HETATM   15  C   UNL     1     -13.128  12.783  71.423  1.00  0.00    -0.227 A  
HETATM   16  S   UNL     1     -13.482  11.154  72.025  1.00  0.00     0.046 SA 
HETATM   17  C   UNL     1     -12.209  10.179  71.259  1.00  0.00    -0.398 A  
HETATM   18  C   UNL     1     -12.196   8.822  71.637  1.00  0.00    -0.399 A  
HETATM   19  C   UNL     1     -11.331   7.917  71.031  1.00  0.00    -0.292 A  
HETATM   20  C   UNL     1     -10.469   8.373  70.049  1.00  0.00    -0.224 A  
HETATM   21  C   UNL     1     -10.456   9.726  69.689  1.00  0.00    -0.263 A  
HETATM   22  C   UNL     1     -11.327  10.675  70.272  1.00  0.00    -0.319 A  
ENDBRANCH   8   9
ENDBRANCH   6   8
ENDBRANCH   3   6
ENDBRANCH   2   3
TORSDOF 5
ENDMDL
MODEL       20
REMARK 921   NORMALIZED FREE ENERGY PREDICTED BY IDOCK:   -5.49 KCAL/MOL
REMARK 922        TOTAL FREE ENERGY PREDICTED BY IDOCK:   -7.92 KCAL/MOL
REMARK 923 INTER-LIGAND FREE ENERGY PREDICTED BY IDOCK:   -7.16 KCAL/MOL
REMARK 924 INTRA-LIGAND FREE ENERGY PREDICTED BY IDOCK:   -0.76 KCAL/MOL
REMARK 927      BINDING AFFINITY PREDICTED BY RF-SCORE:    0.00 PKD
ROOT
HETATM    1  C   UNL     1     -10.621   9.587  68.298  1.00  0.00    -0.260 C  
HETATM    2  C   UNL     1     -10.549  10.707  69.340  1.00  0.00    -0.239 C  
ENDROOT
BRANCH   2   3
HETATM    3  N   UNL     1     -11.789  11.500  69.517  1.00  0.00    -0.326 NA 
BRANCH   3   4
HETATM    4  C   UNL     1     -12.199  11.535  70.931  1.00  0.00    -0.322 C  
HETATM    5  C   UNL     1     -12.944  10.315  71.457  1.00  0.00    -0.556 C  
ENDBRANCH   3   4
BRANCH   3   6
HETATM    6  C   UNL     1     -11.697  12.850  68.860  1.00  0.00    -0.327 C  
HETATM    7  C   UNL     1     -11.988  13.938  69.934  1.00  0.00    -0.405 C  
BRANCH   6   8
HETATM    8  C   UNL     1     -10.323  13.296  68.213  1.00  0.00    -0.249 C  
BRANCH   8   9
HETATM    9  N   UNL     1     -10.371  14.128  66.971  1.00  0.00    -0.266 NA 
HETATM   10  C   UNL     1     -10.732  13.457  65.764  1.00  0.00    -0.274 A  
HETATM   11  C   UNL     1     -10.586  12.062  65.598  1.00  0.00    -0.303 A  
HETATM   12  C   UNL     1     -11.159  11.370  64.525  1.00  0.00    -0.302 A  
HETATM   13  C   UNL     1     -11.867  12.061  63.557  1.00  0.00    -0.587 A  
HETATM   14  C   UNL     1     -11.918  13.448  63.622  1.00  0.00    -0.504 A  
HETATM   15  C   UNL     1     -11.322  14.150  64.687  1.00  0.00    -0.371 A  
HETATM   16  S   UNL     1     -11.404  15.917  64.577  1.00  0.00    -0.164 SA 
HETATM   17  C   UNL     1     -10.601  16.430  66.077  1.00  0.00    -0.269 A  
HETATM   18  C   UNL     1     -10.446  17.824  66.217  1.00  0.00    -0.307 A  
HETATM   19  C   UNL     1      -9.941  18.375  67.390  1.00  0.00    -0.347 A  
HETATM   20  C   UNL     1      -9.582  17.529  68.424  1.00  0.00    -0.303 A  
HETATM   21  C   UNL     1      -9.707  16.142  68.281  1.00  0.00    -0.220 A  
HETATM   22  C   UNL     1     -10.226  15.542  67.111  1.00  0.00    -0.260 A  
ENDBRANCH   8   9
ENDBRANCH   6   8
ENDBRANCH   3   6
ENDBRANCH   2   3
TORSDOF 5
ENDMDL
MODEL       21
REMARK 921   NORMALIZED FREE ENERGY PREDICTED BY IDOCK:   -5.48 KCAL/MOL
REMARK 922        TOTAL FREE ENERGY PREDICTED BY IDOCK:   -7.90 KCAL/MOL
REMARK 923 INTER-LIGAND FREE ENERGY PREDICTED BY IDOCK:   -6.88 KCAL/MOL
REMARK 924 INTRA-LIGAND FREE ENERGY PREDICTED BY IDOCK:   -1.02 KCAL/MOL
REMARK 927      BINDING AFFINITY PREDICTED BY RF-SCORE:    0.00 PKD
ROOT
HETATM    1  C   UNL     1      -9.693  11.617  63.124  1.00  0.00    -0.385 C  
HETATM    2  C   UNL     1     -10.542  11.057  64.269  1.00  0.00    -0.331 C  
ENDROOT
BRANCH   2   3
HETATM    3  N   UNL     1     -10.891  12.021  65.340  1.00  0.00    -0.282 NA 
BRANCH   3   4
HETATM    4  C   UNL     1     -12.099  12.787  64.992  1.00  0.00    -0.441 C  
HETATM    5  C   UNL     1     -12.028  14.297  65.178  1.00  0.00    -0.395 C  
ENDBRANCH   3   4
BRANCH   3   6
HETATM    6  C   UNL     1     -10.934  11.371  66.696  1.00  0.00    -0.285 C  
HETATM    7  C   UNL     1     -10.518   9.880  66.537  1.00  0.00    -0.213 C  
BRANCH   6   8
HETATM    8  C   UNL     1      -9.989  11.921  67.841  1.00  0.00    -0.191 C  
BRANCH   8   9
HETATM    9  N   UNL     1     -10.540  12.959  68.765  1.00  0.00    -0.225 NA 
HETATM   10  C   UNL     1     -10.262  14.321  68.438  1.00  0.00    -0.245 A  
HETATM   11  C   UNL     1      -9.171  14.697  67.624  1.00  0.00    -0.193 A  
HETATM   12  C   UNL     1      -9.036  15.989  67.101  1.00  0.00    -0.224 A  
HETATM   13  C   UNL     1      -9.972  16.960  67.411  1.00  0.00    -0.269 A  
HETATM   14  C   UNL     1     -10.983  16.657  68.314  1.00  0.00    -0.341 A  
HETATM   15  C   UNL     1     -11.109  15.365  68.860  1.00  0.00    -0.275 A  
HETATM   16  S   UNL     1     -12.400  15.166  70.058  1.00  0.00    -0.288 SA 
HETATM   17  C   UNL     1     -12.270  13.443  70.476  1.00  0.00    -0.352 A  
HETATM   18  C   UNL     1     -13.144  13.015  71.495  1.00  0.00    -0.400 A  
HETATM   19  C   UNL     1     -13.234  11.672  71.844  1.00  0.00    -0.475 A  
HETATM   20  C   UNL     1     -12.441  10.754  71.178  1.00  0.00    -0.519 A  
HETATM   21  C   UNL     1     -11.549  11.176  70.185  1.00  0.00    -0.410 A  
HETATM   22  C   UNL     1     -11.435  12.530  69.792  1.00  0.00    -0.141 A  
ENDBRANCH   8   9
ENDBRANCH   6   8
ENDBRANCH   3   6
ENDBRANCH   2   3
TORSDOF 5
ENDMDL
MODEL       22
REMARK 921   NORMALIZED FREE ENERGY PREDICTED BY IDOCK:   -5.41 KCAL/MOL
REMARK 922        TOTAL FREE ENERGY PREDICTED BY IDOCK:   -7.81 KCAL/MOL
REMARK 923 INTER-LIGAND FREE ENERGY PREDICTED BY IDOCK:   -7.05 KCAL/MOL
REMARK 924 INTRA-LIGAND FREE ENERGY PREDICTED BY IDOCK:   -0.76 KCAL/MOL
REMARK 927      BINDING AFFINITY PREDICTED BY RF-SCORE:    0.00 PKD
ROOT
HETATM    1  C   UNL     1     -10.852   6.557  67.311  1.00  0.00    -0.463 C  
HETATM    2  C   UNL     1     -10.199   7.903  66.989  1.00  0.00    -0.312 C  
ENDROOT
BRANCH   2   3
HETATM    3  N   UNL     1     -10.341   8.951  68.029  1.00  0.00    -0.214 NA 
BRANCH   3   4
HETATM    4  C   UNL     1      -9.586   8.600  69.243  1.00  0.00    -0.166 C  
HETATM    5  C   UNL     1      -8.725   9.698  69.854  1.00  0.00    -0.236 C  
ENDBRANCH   3   4
BRANCH   3   6
HETATM    6  C   UNL     1     -10.052  10.326  67.490  1.00  0.00    -0.198 C  
HETATM    7  C   UNL     1      -9.523  10.180  66.035  1.00  0.00    -0.248 C  
BRANCH   6   8
HETATM    8  C   UNL     1     -11.238  11.368  67.373  1.00  0.00    -0.305 C  
BRANCH   8   9
HETATM    9  N   UNL     1     -11.211  12.564  68.270  1.00  0.00    -0.245 NA 
HETATM   10  C   UNL     1     -10.689  13.770  67.713  1.00  0.00    -0.246 A  
HETATM   11  C   UNL     1      -9.814  13.777  66.604  1.00  0.00    -0.286 A  
HETATM   12  C   UNL     1      -9.498  14.949  65.907  1.00  0.00    -0.290 A  
HETATM   13  C   UNL     1     -10.018  16.162  66.322  1.00  0.00    -0.336 A  
HETATM   14  C   UNL     1     -10.775  16.206  67.486  1.00  0.00    -0.304 A  
HETATM   15  C   UNL     1     -11.076  15.034  68.204  1.00  0.00    -0.291 A  
HETATM   16  S   UNL     1     -11.981  15.272  69.709  1.00  0.00    -0.348 SA 
HETATM   17  C   UNL     1     -12.196  13.608  70.293  1.00  0.00    -0.353 A  
HETATM   18  C   UNL     1     -12.826  13.499  71.549  1.00  0.00    -0.440 A  
HETATM   19  C   UNL     1     -13.164  12.257  72.076  1.00  0.00    -0.508 A  
HETATM   20  C   UNL     1     -12.862  11.119  71.350  1.00  0.00    -0.544 A  
HETATM   21  C   UNL     1     -12.210  11.218  70.115  1.00  0.00    -0.410 A  
HETATM   22  C   UNL     1     -11.860  12.461  69.538  1.00  0.00    -0.303 A  
ENDBRANCH   8   9
ENDBRANCH   6   8
ENDBRANCH   3   6
ENDBRANCH   2   3
TORSDOF 5
ENDMDL
MODEL       23
REMARK 921   NORMALIZED FREE ENERGY PREDICTED BY IDOCK:   -5.38 KCAL/MOL
REMARK 922        TOTAL FREE ENERGY PREDICTED BY IDOCK:   -7.77 KCAL/MOL
REMARK 923 INTER-LIGAND FREE ENERGY PREDICTED BY IDOCK:   -7.09 KCAL/MOL
REMARK 924 INTRA-LIGAND FREE ENERGY PREDICTED BY IDOCK:   -0.68 KCAL/MOL
REMARK 927      BINDING AFFINITY PREDICTED BY RF-SCORE:    0.00 PKD
ROOT
HETATM    1  C   UNL     1      -8.817  16.252  66.083  1.00  0.00    -0.362 C  
HETATM    2  C   UNL     1      -9.646  14.983  65.865  1.00  0.00    -0.321 C  
ENDROOT
BRANCH   2   3
HETATM    3  N   UNL     1     -10.717  14.737  66.860  1.00  0.00    -0.302 NA 
BRANCH   3   4
HETATM    4  C   UNL     1     -10.836  15.861  67.802  1.00  0.00    -0.324 C  
HETATM    5  C   UNL     1     -11.808  15.681  68.961  1.00  0.00    -0.379 C  
ENDBRANCH   3   4
BRANCH   3   6
HETATM    6  C   UNL     1     -12.011  14.328  66.209  1.00  0.00    -0.412 C  
HETATM    7  C   UNL     1     -11.959  14.746  64.712  1.00  0.00    -0.408 C  
BRANCH   6   8
HETATM    8  C   UNL     1     -12.400  12.794  66.175  1.00  0.00    -0.120 C  
BRANCH   8   9
HETATM    9  N   UNL     1     -11.354  11.797  66.557  1.00  0.00    -0.376 NA 
HETATM   10  C   UNL     1     -11.321  11.396  67.927  1.00  0.00    -0.303 A  
HETATM   11  C   UNL     1     -11.864  12.190  68.962  1.00  0.00    -0.361 A  
HETATM   12  C   UNL     1     -12.056  11.701  70.260  1.00  0.00    -0.443 A  
HETATM   13  C   UNL     1     -11.672  10.409  70.574  1.00  0.00    -0.434 A  
HETATM   14  C   UNL     1     -11.017   9.648  69.615  1.00  0.00    -0.253 A  
HETATM   15  C   UNL     1     -10.801  10.145  68.315  1.00  0.00    -0.252 A  
HETATM   16  S   UNL     1      -9.878   9.084  67.236  1.00  0.00    -0.214 SA 
HETATM   17  C   UNL     1      -9.846  10.013  65.722  1.00  0.00    -0.278 A  
HETATM   18  C   UNL     1      -9.087   9.431  64.687  1.00  0.00    -0.228 A  
HETATM   19  C   UNL     1      -9.067   9.987  63.413  1.00  0.00    -0.301 A  
HETATM   20  C   UNL     1      -9.802  11.135  63.174  1.00  0.00    -0.403 A  
HETATM   21  C   UNL     1     -10.535  11.735  64.204  1.00  0.00    -0.394 A  
HETATM   22  C   UNL     1     -10.592  11.196  65.510  1.00  0.00    -0.225 A  
ENDBRANCH   8   9
ENDBRANCH   6   8
ENDBRANCH   3   6
ENDBRANCH   2   3
TORSDOF 5
ENDMDL
MODEL       24
REMARK 921   NORMALIZED FREE ENERGY PREDICTED BY IDOCK:   -5.38 KCAL/MOL
REMARK 922        TOTAL FREE ENERGY PREDICTED BY IDOCK:   -7.77 KCAL/MOL
REMARK 923 INTER-LIGAND FREE ENERGY PREDICTED BY IDOCK:   -7.13 KCAL/MOL
REMARK 924 INTRA-LIGAND FREE ENERGY PREDICTED BY IDOCK:   -0.64 KCAL/MOL
REMARK 927      BINDING AFFINITY PREDICTED BY RF-SCORE:    0.00 PKD
ROOT
HETATM    1  C   UNL     1     -10.141  16.897  67.216  1.00  0.00    -0.286 C  
HETATM    2  C   UNL     1      -9.884  15.389  67.285  1.00  0.00    -0.217 C  
ENDROOT
BRANCH   2   3
HETATM    3  N   UNL     1     -10.872  14.537  66.582  1.00  0.00    -0.305 NA 
BRANCH   3   4
HETATM    4  C   UNL     1     -10.846  14.779  65.130  1.00  0.00    -0.404 C  
HETATM    5  C   UNL     1     -12.173  14.661  64.393  1.00  0.00    -0.473 C  
ENDBRANCH   3   4
BRANCH   3   6
HETATM    6  C   UNL     1     -10.754  13.089  66.975  1.00  0.00    -0.258 C  
HETATM    7  C   UNL     1      -9.663  12.429  66.084  1.00  0.00    -0.254 C  
BRANCH   6   8
HETATM    8  C   UNL     1     -10.322  12.730  68.455  1.00  0.00    -0.243 C  
BRANCH   8   9
HETATM    9  N   UNL     1     -11.320  12.039  69.328  1.00  0.00    -0.265 NA 
HETATM   10  C   UNL     1     -11.266  10.612  69.355  1.00  0.00    -0.270 A  
HETATM   11  C   UNL     1     -10.687   9.855  68.314  1.00  0.00    -0.276 A  
HETATM   12  C   UNL     1     -10.411   8.488  68.444  1.00  0.00    -0.215 A  
HETATM   13  C   UNL     1     -10.744   7.825  69.612  1.00  0.00    -0.223 A  
HETATM   14  C   UNL     1     -11.432   8.512  70.604  1.00  0.00    -0.249 A  
HETATM   15  C   UNL     1     -11.732   9.881  70.467  1.00  0.00    -0.295 A  
HETATM   16  S   UNL     1     -12.687  10.588  71.783  1.00  0.00    -0.341 SA 
HETATM   17  C   UNL     1     -12.826  12.288  71.283  1.00  0.00    -0.239 A  
HETATM   18  C   UNL     1     -13.627  13.087  72.123  1.00  0.00    -0.618 A  
HETATM   19  C   UNL     1     -13.732  14.459  71.920  1.00  0.00    -0.518 A  
HETATM   20  C   UNL     1     -13.040  15.033  70.868  1.00  0.00    -0.462 A  
HETATM   21  C   UNL     1     -12.266  14.240  70.011  1.00  0.00    -0.417 A  
HETATM   22  C   UNL     1     -12.124  12.845  70.189  1.00  0.00    -0.302 A  
ENDBRANCH   8   9
ENDBRANCH   6   8
ENDBRANCH   3   6
ENDBRANCH   2   3
TORSDOF 5
ENDMDL
MODEL       25
REMARK 921   NORMALIZED FREE ENERGY PREDICTED BY IDOCK:   -5.35 KCAL/MOL
REMARK 922        TOTAL FREE ENERGY PREDICTED BY IDOCK:   -7.73 KCAL/MOL
REMARK 923 INTER-LIGAND FREE ENERGY PREDICTED BY IDOCK:   -7.02 KCAL/MOL
REMARK 924 INTRA-LIGAND FREE ENERGY PREDICTED BY IDOCK:   -0.71 KCAL/MOL
REMARK 927      BINDING AFFINITY PREDICTED BY RF-SCORE:    0.00 PKD
ROOT
HETATM    1  C   UNL     1      -7.301  18.772  65.840  1.00  0.00    -0.261 C  
HETATM    2  C   UNL     1      -7.682  18.663  67.319  1.00  0.00    -0.231 C  
ENDROOT
BRANCH   2   3
HETATM    3  N   UNL     1      -8.504  17.484  67.684  1.00  0.00    -0.213 NA 
BRANCH   3   4
HETATM    4  C   UNL     1      -7.708  16.489  68.421  1.00  0.00    -0.189 C  
HETATM    5  C   UNL     1      -7.127  15.339  67.607  1.00  0.00    -0.206 C  
ENDBRANCH   3   4
BRANCH   3   6
HETATM    6  C   UNL     1      -9.790  17.878  68.358  1.00  0.00    -0.355 C  
HETATM    7  C   UNL     1     -10.125  19.343  67.955  1.00  0.00    -0.516 C  
BRANCH   6   8
HETATM    8  C   UNL     1     -11.109  17.069  68.024  1.00  0.00    -0.149 C  
BRANCH   8   9
HETATM    9  N   UNL     1     -11.143  15.613  68.364  1.00  0.00    -0.309 NA 
HETATM   10  C   UNL     1     -11.509  15.275  69.702  1.00  0.00    -0.305 A  
HETATM   11  C   UNL     1     -11.380  16.184  70.775  1.00  0.00    -0.397 A  
HETATM   12  C   UNL     1     -11.959  15.951  72.028  1.00  0.00    -0.602 A  
HETATM   13  C   UNL     1     -12.656  14.778  72.260  1.00  0.00    -0.414 A  
HETATM   14  C   UNL     1     -12.689  13.808  71.267  1.00  0.00    -0.450 A  
HETATM   15  C   UNL     1     -12.088  14.028  70.013  1.00  0.00    -0.348 A  
HETATM   16  S   UNL     1     -12.147  12.660  68.887  1.00  0.00    -0.004 SA 
HETATM   17  C   UNL     1     -11.343  13.317  67.445  1.00  0.00    -0.303 A  
HETATM   18  C   UNL     1     -11.170  12.395  66.393  1.00  0.00    -0.365 A  
HETATM   19  C   UNL     1     -10.662  12.798  65.163  1.00  0.00    -0.319 A  
HETATM   20  C   UNL     1     -10.316  14.127  64.987  1.00  0.00    -0.443 A  
HETATM   21  C   UNL     1     -10.458  15.042  66.036  1.00  0.00    -0.326 A  
HETATM   22  C   UNL     1     -10.981  14.676  67.298  1.00  0.00    -0.317 A  
ENDBRANCH   8   9
ENDBRANCH   6   8
ENDBRANCH   3   6
ENDBRANCH   2   3
TORSDOF 5
ENDMDL
MODEL       26
REMARK 921   NORMALIZED FREE ENERGY PREDICTED BY IDOCK:   -5.29 KCAL/MOL
REMARK 922        TOTAL FREE ENERGY PREDICTED BY IDOCK:   -7.66 KCAL/MOL
REMARK 923 INTER-LIGAND FREE ENERGY PREDICTED BY IDOCK:   -7.30 KCAL/MOL
REMARK 924 INTRA-LIGAND FREE ENERGY PREDICTED BY IDOCK:   -0.36 KCAL/MOL
REMARK 927      BINDING AFFINITY PREDICTED BY RF-SCORE:    0.00 PKD
ROOT
HETATM    1  C   UNL     1     -10.822   7.280  72.763  1.00  0.00    -0.356 C  
HETATM    2  C   UNL     1     -10.484   8.652  72.173  1.00  0.00    -0.340 C  
ENDROOT
BRANCH   2   3
HETATM    3  N   UNL     1     -11.505   9.231  71.267  1.00  0.00    -0.317 NA 
BRANCH   3   4
HETATM    4  C   UNL     1     -12.637   9.786  72.028  1.00  0.00    -0.347 C  
HETATM    5  C   UNL     1     -13.958   9.034  71.934  1.00  0.00    -0.445 C  
ENDBRANCH   3   4
BRANCH   3   6
HETATM    6  C   UNL     1     -10.902  10.177  70.265  1.00  0.00    -0.310 C  
HETATM    7  C   UNL     1      -9.649   9.497  69.643  1.00  0.00    -0.216 C  
BRANCH   6   8
HETATM    8  C   UNL     1     -11.766  10.623  69.016  1.00  0.00    -0.234 C  
BRANCH   8   9
HETATM    9  N   UNL     1     -11.414  11.912  68.345  1.00  0.00    -0.273 NA 
HETATM   10  C   UNL     1     -11.000  11.832  66.981  1.00  0.00    -0.285 A  
HETATM   11  C   UNL     1     -10.479  10.648  66.415  1.00  0.00    -0.276 A  
HETATM   12  C   UNL     1     -10.305  10.489  65.035  1.00  0.00    -0.310 A  
HETATM   13  C   UNL     1     -10.611  11.531  64.176  1.00  0.00    -0.420 A  
HETATM   14  C   UNL     1     -11.002  12.752  64.711  1.00  0.00    -0.334 A  
HETATM   15  C   UNL     1     -11.156  12.922  66.101  1.00  0.00    -0.286 A  
HETATM   16  S   UNL     1     -11.578  14.561  66.626  1.00  0.00    -0.360 SA 
HETATM   17  C   UNL     1     -11.717  14.374  68.387  1.00  0.00    -0.332 A  
HETATM   18  C   UNL     1     -11.969  15.569  69.091  1.00  0.00    -0.331 A  
HETATM   19  C   UNL     1     -12.216  15.556  70.459  1.00  0.00    -0.444 A  
HETATM   20  C   UNL     1     -12.202  14.346  71.129  1.00  0.00    -0.420 A  
HETATM   21  C   UNL     1     -11.924  13.158  70.442  1.00  0.00    -0.343 A  
HETATM   22  C   UNL     1     -11.679  13.125  69.050  1.00  0.00    -0.321 A  
ENDBRANCH   8   9
ENDBRANCH   6   8
ENDBRANCH   3   6
ENDBRANCH   2   3
TORSDOF 5
ENDMDL
MODEL       27
REMARK 921   NORMALIZED FREE ENERGY PREDICTED BY IDOCK:   -5.24 KCAL/MOL
REMARK 922        TOTAL FREE ENERGY PREDICTED BY IDOCK:   -7.58 KCAL/MOL
REMARK 923 INTER-LIGAND FREE ENERGY PREDICTED BY IDOCK:   -6.67 KCAL/MOL
REMARK 924 INTRA-LIGAND FREE ENERGY PREDICTED BY IDOCK:   -0.91 KCAL/MOL
REMARK 927      BINDING AFFINITY PREDICTED BY RF-SCORE:    0.00 PKD
ROOT
HETATM    1  C   UNL     1      -7.736  12.663  67.795  1.00  0.00    -0.145 C  
HETATM    2  C   UNL     1      -8.025  14.072  67.270  1.00  0.00    -0.137 C  
ENDROOT
BRANCH   2   3
HETATM    3  N   UNL     1      -8.966  14.879  68.084  1.00  0.00    -0.171 NA 
BRANCH   3   4
HETATM    4  C   UNL     1      -8.249  15.664  69.102  1.00  0.00    -0.248 C  
HETATM    5  C   UNL     1      -8.161  17.167  68.871  1.00  0.00    -0.192 C  
ENDBRANCH   3   4
BRANCH   3   6
HETATM    6  C   UNL     1      -9.910  15.681  67.229  1.00  0.00    -0.225 C  
HETATM    7  C   UNL     1      -9.221  15.950  65.860  1.00  0.00    -0.332 C  
BRANCH   6   8
HETATM    8  C   UNL     1     -11.313  15.058  66.846  1.00  0.00    -0.302 C  
BRANCH   8   9
HETATM    9  N   UNL     1     -11.546  13.613  67.153  1.00  0.00    -0.341 NA 
HETATM   10  C   UNL     1     -11.241  12.681  66.116  1.00  0.00    -0.309 A  
HETATM   11  C   UNL     1     -11.195  13.050  64.753  1.00  0.00    -0.344 A  
HETATM   12  C   UNL     1     -10.661  12.213  63.767  1.00  0.00    -0.488 A  
HETATM   13  C   UNL     1     -10.191  10.957  64.108  1.00  0.00    -0.424 A  
HETATM   14  C   UNL     1     -10.342  10.513  65.416  1.00  0.00    -0.292 A  
HETATM   15  C   UNL     1     -10.900  11.344  66.406  1.00  0.00    -0.271 A  
HETATM   16  S   UNL     1     -11.099  10.600  68.002  1.00  0.00    -0.308 SA 
HETATM   17  C   UNL     1     -11.777  11.932  68.963  1.00  0.00    -0.331 A  
HETATM   18  C   UNL     1     -12.122  11.591  70.286  1.00  0.00    -0.444 A  
HETATM   19  C   UNL     1     -12.555  12.559  71.186  1.00  0.00    -0.349 A  
HETATM   20  C   UNL     1     -12.651  13.872  70.760  1.00  0.00    -0.424 A  
HETATM   21  C   UNL     1     -12.338  14.213  69.439  1.00  0.00    -0.246 A  
HETATM   22  C   UNL     1     -11.884  13.263  68.496  1.00  0.00    -0.349 A  
ENDBRANCH   8   9
ENDBRANCH   6   8
ENDBRANCH   3   6
ENDBRANCH   2   3
TORSDOF 5
ENDMDL
MODEL       28
REMARK 921   NORMALIZED FREE ENERGY PREDICTED BY IDOCK:   -5.23 KCAL/MOL
REMARK 922        TOTAL FREE ENERGY PREDICTED BY IDOCK:   -7.58 KCAL/MOL
REMARK 923 INTER-LIGAND FREE ENERGY PREDICTED BY IDOCK:   -6.81 KCAL/MOL
REMARK 924 INTRA-LIGAND FREE ENERGY PREDICTED BY IDOCK:   -0.77 KCAL/MOL
REMARK 927      BINDING AFFINITY PREDICTED BY RF-SCORE:    0.00 PKD
ROOT
HETATM    1  C   UNL     1     -12.231  16.108  73.055  1.00  0.00    -0.641 C  
HETATM    2  C   UNL     1     -13.155  15.615  71.938  1.00  0.00    -0.464 C  
ENDROOT
BRANCH   2   3
HETATM    3  N   UNL     1     -12.520  14.748  70.916  1.00  0.00    -0.304 NA 
BRANCH   3   4
HETATM    4  C   UNL     1     -11.193  15.259  70.536  1.00  0.00    -0.310 C  
HETATM    5  C   UNL     1     -11.092  15.963  69.189  1.00  0.00    -0.302 C  
ENDBRANCH   3   4
BRANCH   3   6
HETATM    6  C   UNL     1     -12.540  13.297  71.312  1.00  0.00    -0.308 C  
HETATM    7  C   UNL     1     -13.659  13.095  72.375  1.00  0.00    -0.667 C  
BRANCH   6   8
HETATM    8  C   UNL     1     -12.847  12.205  70.208  1.00  0.00     0.327 C  
BRANCH   8   9
HETATM    9  N   UNL     1     -11.763  11.236  69.860  1.00  0.00    -0.322 NA 
HETATM   10  C   UNL     1     -10.912  11.592  68.771  1.00  0.00    -0.222 A  
HETATM   11  C   UNL     1     -11.305  12.505  67.768  1.00  0.00    -0.351 A  
HETATM   12  C   UNL     1     -10.399  13.042  66.846  1.00  0.00    -0.246 A  
HETATM   13  C   UNL     1      -9.072  12.649  66.872  1.00  0.00    -0.218 A  
HETATM   14  C   UNL     1      -8.682  11.656  67.761  1.00  0.00    -0.152 A  
HETATM   15  C   UNL     1      -9.595  11.096  68.675  1.00  0.00    -0.196 A  
HETATM   16  S   UNL     1      -8.960   9.783  69.681  1.00  0.00    -0.226 SA 
HETATM   17  C   UNL     1     -10.357   9.373  70.701  1.00  0.00    -0.284 A  
HETATM   18  C   UNL     1     -10.158   8.275  71.562  1.00  0.00    -0.270 A  
HETATM   19  C   UNL     1     -11.121   7.915  72.498  1.00  0.00    -0.423 A  
HETATM   20  C   UNL     1     -12.292   8.649  72.567  1.00  0.00    -0.378 A  
HETATM   21  C   UNL     1     -12.509   9.723  71.695  1.00  0.00    -0.500 A  
HETATM   22  C   UNL     1     -11.551  10.129  70.738  1.00  0.00    -0.357 A  
ENDBRANCH   8   9
ENDBRANCH   6   8
ENDBRANCH   3   6
ENDBRANCH   2   3
TORSDOF 5
ENDMDL
MODEL       29
REMARK 921   NORMALIZED FREE ENERGY PREDICTED BY IDOCK:   -5.23 KCAL/MOL
REMARK 922        TOTAL FREE ENERGY PREDICTED BY IDOCK:   -7.57 KCAL/MOL
REMARK 923 INTER-LIGAND FREE ENERGY PREDICTED BY IDOCK:   -7.05 KCAL/MOL
REMARK 924 INTRA-LIGAND FREE ENERGY PREDICTED BY IDOCK:   -0.53 KCAL/MOL
REMARK 927      BINDING AFFINITY PREDICTED BY RF-SCORE:    0.00 PKD
ROOT
HETATM    1  C   UNL     1      -7.090  18.558  68.750  1.00  0.00    -0.310 C  
HETATM    2  C   UNL     1      -8.095  18.799  67.621  1.00  0.00    -0.251 C  
ENDROOT
BRANCH   2   3
HETATM    3  N   UNL     1      -9.404  18.118  67.770  1.00  0.00    -0.264 NA 
BRANCH   3   4
HETATM    4  C   UNL     1     -10.507  18.985  67.326  1.00  0.00    -0.451 C  
HETATM    5  C   UNL     1     -10.224  19.899  66.141  1.00  0.00    -0.611 C  
ENDBRANCH   3   4
BRANCH   3   6
HETATM    6  C   UNL     1      -9.401  16.746  67.154  1.00  0.00    -0.229 C  
HETATM    7  C   UNL     1      -8.267  16.689  66.091  1.00  0.00    -0.295 C  
BRANCH   6   8
HETATM    8  C   UNL     1      -9.134  15.490  68.079  1.00  0.00    -0.182 C  
BRANCH   8   9
HETATM    9  N   UNL     1     -10.272  14.556  68.339  1.00  0.00    -0.233 NA 
HETATM   10  C   UNL     1     -10.412  13.452  67.444  1.00  0.00    -0.243 A  
HETATM   11  C   UNL     1      -9.870  13.460  66.140  1.00  0.00    -0.289 A  
HETATM   12  C   UNL     1      -9.788  12.304  65.355  1.00  0.00    -0.209 A  
HETATM   13  C   UNL     1     -10.285  11.105  65.837  1.00  0.00    -0.303 A  
HETATM   14  C   UNL     1     -10.941  11.092  67.061  1.00  0.00    -0.348 A  
HETATM   15  C   UNL     1     -11.046  12.258  67.844  1.00  0.00    -0.243 A  
HETATM   16  S   UNL     1     -11.984  12.092  69.338  1.00  0.00    -0.228 SA 
HETATM   17  C   UNL     1     -11.861  13.716  70.049  1.00  0.00    -0.308 A  
HETATM   18  C   UNL     1     -12.603  13.901  71.233  1.00  0.00    -0.450 A  
HETATM   19  C   UNL     1     -12.510  15.083  71.960  1.00  0.00    -0.409 A  
HETATM   20  C   UNL     1     -11.678  16.087  71.497  1.00  0.00    -0.554 A  
HETATM   21  C   UNL     1     -10.961  15.922  70.307  1.00  0.00    -0.370 A  
HETATM   22  C   UNL     1     -11.018  14.733  69.544  1.00  0.00    -0.266 A  
ENDBRANCH   8   9
ENDBRANCH   6   8
ENDBRANCH   3   6
ENDBRANCH   2   3
TORSDOF 5
ENDMDL
MODEL       30
REMARK 921   NORMALIZED FREE ENERGY PREDICTED BY IDOCK:   -5.20 KCAL/MOL
REMARK 922        TOTAL FREE ENERGY PREDICTED BY IDOCK:   -7.54 KCAL/MOL
REMARK 923 INTER-LIGAND FREE ENERGY PREDICTED BY IDOCK:   -6.76 KCAL/MOL
REMARK 924 INTRA-LIGAND FREE ENERGY PREDICTED BY IDOCK:   -0.78 KCAL/MOL
REMARK 927      BINDING AFFINITY PREDICTED BY RF-SCORE:    0.00 PKD
ROOT
HETATM    1  C   UNL     1      -9.781   9.056  71.203  1.00  0.00    -0.369 C  
HETATM    2  C   UNL     1      -9.486   7.891  70.255  1.00  0.00    -0.163 C  
ENDROOT
BRANCH   2   3
HETATM    3  N   UNL     1      -9.585   8.200  68.808  1.00  0.00    -0.148 NA 
BRANCH   3   4
HETATM    4  C   UNL     1     -10.548   7.309  68.140  1.00  0.00    -0.177 C  
HETATM    5  C   UNL     1     -11.184   6.223  68.998  1.00  0.00    -0.415 C  
ENDBRANCH   3   4
BRANCH   3   6
HETATM    6  C   UNL     1      -9.812   9.666  68.556  1.00  0.00    -0.157 C  
HETATM    7  C   UNL     1      -8.587  10.223  67.776  1.00  0.00    -0.118 C  
BRANCH   6   8
HETATM    8  C   UNL     1     -11.062  10.111  67.693  1.00  0.00    -0.206 C  
BRANCH   8   9
HETATM    9  N   UNL     1     -11.568  11.508  67.861  1.00  0.00    -0.478 NA 
HETATM   10  C   UNL     1     -12.139  11.835  69.128  1.00  0.00    -0.228 A  
HETATM   11  C   UNL     1     -12.656  10.854  70.002  1.00  0.00    -0.253 A  
HETATM   12  C   UNL     1     -12.987  11.136  71.333  1.00  0.00    -0.506 A  
HETATM   13  C   UNL     1     -12.848  12.423  71.822  1.00  0.00    -0.350 A  
HETATM   14  C   UNL     1     -12.466  13.436  70.951  1.00  0.00    -0.439 A  
HETATM   15  C   UNL     1     -12.155  13.161  69.606  1.00  0.00    -0.255 A  
HETATM   16  S   UNL     1     -11.768  14.574  68.609  1.00  0.00    -0.326 SA 
HETATM   17  C   UNL     1     -11.405  13.840  67.031  1.00  0.00    -0.326 A  
HETATM   18  C   UNL     1     -11.139  14.761  65.998  1.00  0.00    -0.330 A  
HETATM   19  C   UNL     1     -10.727  14.330  64.742  1.00  0.00    -0.435 A  
HETATM   20  C   UNL     1     -10.589  12.972  64.515  1.00  0.00    -0.413 A  
HETATM   21  C   UNL     1     -10.879  12.050  65.527  1.00  0.00    -0.336 A  
HETATM   22  C   UNL     1     -11.289  12.447  66.821  1.00  0.00    -0.335 A  
ENDBRANCH   8   9
ENDBRANCH   6   8
ENDBRANCH   3   6
ENDBRANCH   2   3
TORSDOF 5
ENDMDL
MODEL       31
REMARK 921   NORMALIZED FREE ENERGY PREDICTED BY IDOCK:   -5.20 KCAL/MOL
REMARK 922        TOTAL FREE ENERGY PREDICTED BY IDOCK:   -7.53 KCAL/MOL
REMARK 923 INTER-LIGAND FREE ENERGY PREDICTED BY IDOCK:   -6.84 KCAL/MOL
REMARK 924 INTRA-LIGAND FREE ENERGY PREDICTED BY IDOCK:   -0.70 KCAL/MOL
REMARK 927      BINDING AFFINITY PREDICTED BY RF-SCORE:    0.00 PKD
ROOT
HETATM    1  C   UNL     1     -12.084  13.210  63.384  1.00  0.00    -0.558 C  
HETATM    2  C   UNL     1     -12.177  14.137  64.599  1.00  0.00    -0.445 C  
ENDROOT
BRANCH   2   3
HETATM    3  N   UNL     1     -10.947  14.246  65.420  1.00  0.00    -0.317 NA 
BRANCH   3   4
HETATM    4  C   UNL     1     -10.500  15.644  65.523  1.00  0.00    -0.404 C  
HETATM    5  C   UNL     1      -9.069  15.871  65.996  1.00  0.00    -0.363 C  
ENDBRANCH   3   4
BRANCH   3   6
HETATM    6  C   UNL     1     -11.081  13.534  66.738  1.00  0.00    -0.299 C  
HETATM    7  C   UNL     1     -11.868  14.456  67.714  1.00  0.00    -0.402 C  
BRANCH   6   8
HETATM    8  C   UNL     1     -11.856  12.155  66.790  1.00  0.00    -0.228 C  
BRANCH   8   9
HETATM    9  N   UNL     1     -11.110  10.949  67.264  1.00  0.00    -0.303 NA 
HETATM   10  C   UNL     1     -10.187  10.366  66.345  1.00  0.00    -0.230 A  
HETATM   11  C   UNL     1     -10.284  10.556  64.949  1.00  0.00    -0.371 A  
HETATM   12  C   UNL     1      -9.254  10.198  64.070  1.00  0.00    -0.315 A  
HETATM   13  C   UNL     1      -8.106   9.599  64.559  1.00  0.00    -0.143 A  
HETATM   14  C   UNL     1      -8.036   9.280  65.909  1.00  0.00    -0.106 A  
HETATM   15  C   UNL     1      -9.079   9.617  66.792  1.00  0.00    -0.146 A  
HETATM   16  S   UNL     1      -8.871   9.066  68.464  1.00  0.00    -0.133 SA 
HETATM   17  C   UNL     1     -10.331   9.696  69.258  1.00  0.00    -0.209 A  
HETATM   18  C   UNL     1     -10.474   9.327  70.611  1.00  0.00    -0.325 A  
HETATM   19  C   UNL     1     -11.506   9.841  71.388  1.00  0.00    -0.435 A  
HETATM   20  C   UNL     1     -12.403  10.722  70.810  1.00  0.00    -0.480 A  
HETATM   21  C   UNL     1     -12.284  11.070  69.459  1.00  0.00    -0.352 A  
HETATM   22  C   UNL     1     -11.244  10.580  68.637  1.00  0.00    -0.270 A  
ENDBRANCH   8   9
ENDBRANCH   6   8
ENDBRANCH   3   6
ENDBRANCH   2   3
TORSDOF 5
ENDMDL
MODEL       32
REMARK 921   NORMALIZED FREE ENERGY PREDICTED BY IDOCK:   -5.17 KCAL/MOL
REMARK 922        TOTAL FREE ENERGY PREDICTED BY IDOCK:   -7.50 KCAL/MOL
REMARK 923 INTER-LIGAND FREE ENERGY PREDICTED BY IDOCK:   -6.49 KCAL/MOL
REMARK 924 INTRA-LIGAND FREE ENERGY PREDICTED BY IDOCK:   -1.01 KCAL/MOL
REMARK 927      BINDING AFFINITY PREDICTED BY RF-SCORE:    0.00 PKD
ROOT
HETATM    1  C   UNL     1      -5.237  18.358  70.807  1.00  0.00    -0.274 C  
HETATM    2  C   UNL     1      -5.669  17.023  70.194  1.00  0.00    -0.212 C  
ENDROOT
BRANCH   2   3
HETATM    3  N   UNL     1      -6.721  17.106  69.153  1.00  0.00    -0.230 NA 
BRANCH   3   4
HETATM    4  C   UNL     1      -6.217  17.768  67.939  1.00  0.00    -0.162 C  
HETATM    5  C   UNL     1      -6.617  17.149  66.606  1.00  0.00    -0.272 C  
ENDBRANCH   3   4
BRANCH   3   6
HETATM    6  C   UNL     1      -7.383  15.776  68.909  1.00  0.00    -0.162 C  
HETATM    7  C   UNL     1      -6.795  14.746  69.916  1.00  0.00    -0.158 C  
BRANCH   6   8
HETATM    8  C   UNL     1      -8.950  15.654  69.095  1.00  0.00    -0.257 C  
BRANCH   8   9
HETATM    9  N   UNL     1      -9.820  15.942  67.913  1.00  0.00    -0.218 NA 
HETATM   10  C   UNL     1     -10.063  17.317  67.616  1.00  0.00    -0.313 A  
HETATM   11  C   UNL     1      -9.938  18.336  68.586  1.00  0.00    -0.410 A  
HETATM   12  C   UNL     1      -9.932  19.695  68.250  1.00  0.00    -0.543 A  
HETATM   13  C   UNL     1     -10.093  20.080  66.931  1.00  0.00    -0.601 A  
HETATM   14  C   UNL     1     -10.350  19.109  65.972  1.00  0.00    -0.538 A  
HETATM   15  C   UNL     1     -10.379  17.742  66.310  1.00  0.00    -0.358 A  
HETATM   16  S   UNL     1     -10.802  16.639  64.989  1.00  0.00    -0.023 SA 
HETATM   17  C   UNL     1     -10.700  15.047  65.773  1.00  0.00    -0.342 A  
HETATM   18  C   UNL     1     -11.077  13.961  64.958  1.00  0.00    -0.353 A  
HETATM   19  C   UNL     1     -10.938  12.650  65.401  1.00  0.00    -0.320 A  
HETATM   20  C   UNL     1     -10.428  12.424  66.667  1.00  0.00    -0.251 A  
HETATM   21  C   UNL     1     -10.078  13.499  67.493  1.00  0.00    -0.234 A  
HETATM   22  C   UNL     1     -10.193  14.846  67.078  1.00  0.00    -0.256 A  
ENDBRANCH   8   9
ENDBRANCH   6   8
ENDBRANCH   3   6
ENDBRANCH   2   3
TORSDOF 5
ENDMDL
MODEL       33
REMARK 921   NORMALIZED FREE ENERGY PREDICTED BY IDOCK:   -5.17 KCAL/MOL
REMARK 922        TOTAL FREE ENERGY PREDICTED BY IDOCK:   -7.50 KCAL/MOL
REMARK 923 INTER-LIGAND FREE ENERGY PREDICTED BY IDOCK:   -6.99 KCAL/MOL
REMARK 924 INTRA-LIGAND FREE ENERGY PREDICTED BY IDOCK:   -0.51 KCAL/MOL
REMARK 927      BINDING AFFINITY PREDICTED BY RF-SCORE:    0.00 PKD
ROOT
HETATM    1  C   UNL     1     -10.425   7.310  71.129  1.00  0.00    -0.221 C  
HETATM    2  C   UNL     1     -11.022   8.655  71.551  1.00  0.00    -0.290 C  
ENDROOT
BRANCH   2   3
HETATM    3  N   UNL     1     -12.390   8.936  71.052  1.00  0.00    -0.228 NA 
BRANCH   3   4
HETATM    4  C   UNL     1     -13.409   8.494  72.017  1.00  0.00    -0.369 C  
HETATM    5  C   UNL     1     -14.364   7.402  71.550  1.00  0.00    -0.594 C  
ENDBRANCH   3   4
BRANCH   3   6
HETATM    6  C   UNL     1     -12.543  10.360  70.591  1.00  0.00    -0.348 C  
HETATM    7  C   UNL     1     -13.134  11.193  71.764  1.00  0.00    -0.536 C  
BRANCH   6   8
HETATM    8  C   UNL     1     -11.254  11.166  70.149  1.00  0.00    -0.128 C  
BRANCH   8   9
HETATM    9  N   UNL     1     -11.289  11.879  68.835  1.00  0.00    -0.254 NA 
HETATM   10  C   UNL     1     -11.621  13.267  68.869  1.00  0.00    -0.314 A  
HETATM   11  C   UNL     1     -12.337  13.850  69.937  1.00  0.00    -0.358 A  
HETATM   12  C   UNL     1     -12.449  15.236  70.096  1.00  0.00    -0.374 A  
HETATM   13  C   UNL     1     -11.880  16.087  69.164  1.00  0.00    -0.268 A  
HETATM   14  C   UNL     1     -11.282  15.544  68.035  1.00  0.00    -0.332 A  
HETATM   15  C   UNL     1     -11.187  14.150  67.859  1.00  0.00    -0.279 A  
HETATM   16  S   UNL     1     -10.472  13.621  66.326  1.00  0.00    -0.296 SA 
HETATM   17  C   UNL     1     -10.489  11.852  66.487  1.00  0.00    -0.221 A  
HETATM   18  C   UNL     1     -10.043  11.150  65.349  1.00  0.00    -0.317 A  
HETATM   19  C   UNL     1      -9.893   9.768  65.372  1.00  0.00    -0.365 A  
HETATM   20  C   UNL     1     -10.199   9.083  66.535  1.00  0.00    -0.318 A  
HETATM   21  C   UNL     1     -10.670   9.770  67.660  1.00  0.00    -0.334 A  
HETATM   22  C   UNL     1     -10.826  11.175  67.682  1.00  0.00    -0.247 A  
ENDBRANCH   8   9
ENDBRANCH   6   8
ENDBRANCH   3   6
ENDBRANCH   2   3
TORSDOF 5
ENDMDL
MODEL       34
REMARK 921   NORMALIZED FREE ENERGY PREDICTED BY IDOCK:   -5.16 KCAL/MOL
REMARK 922        TOTAL FREE ENERGY PREDICTED BY IDOCK:   -7.49 KCAL/MOL
REMARK 923 INTER-LIGAND FREE ENERGY PREDICTED BY IDOCK:   -6.77 KCAL/MOL
REMARK 924 INTRA-LIGAND FREE ENERGY PREDICTED BY IDOCK:   -0.72 KCAL/MOL
REMARK 927      BINDING AFFINITY PREDICTED BY RF-SCORE:    0.00 PKD
ROOT
HETATM    1  C   UNL     1      -9.545  15.506  67.664  1.00  0.00    -0.210 C  
HETATM    2  C   UNL     1      -9.407  14.266  66.777  1.00  0.00    -0.276 C  
ENDROOT
BRANCH   2   3
HETATM    3  N   UNL     1     -10.641  13.465  66.595  1.00  0.00    -0.280 NA 
BRANCH   3   4
HETATM    4  C   UNL     1     -11.169  13.605  65.229  1.00  0.00    -0.299 C  
HETATM    5  C   UNL     1     -12.485  12.898  64.928  1.00  0.00    -0.540 C  
ENDBRANCH   3   4
BRANCH   3   6
HETATM    6  C   UNL     1     -10.467  12.043  67.054  1.00  0.00    -0.221 C  
HETATM    7  C   UNL     1      -9.289  11.412  66.256  1.00  0.00    -0.228 C  
BRANCH   6   8
HETATM    8  C   UNL     1     -10.105  11.765  68.570  1.00  0.00    -0.207 C  
BRANCH   8   9
HETATM    9  N   UNL     1     -11.172  11.199  69.453  1.00  0.00    -0.249 NA 
HETATM   10  C   UNL     1     -11.209   9.778  69.581  1.00  0.00    -0.178 A  
HETATM   11  C   UNL     1     -10.645   8.914  68.616  1.00  0.00    -0.182 A  
HETATM   12  C   UNL     1     -10.460   7.547  68.851  1.00  0.00    -0.214 A  
HETATM   13  C   UNL     1     -10.870   6.990  70.050  1.00  0.00    -0.290 A  
HETATM   14  C   UNL     1     -11.545   7.787  70.966  1.00  0.00    -0.301 A  
HETATM   15  C   UNL     1     -11.755   9.158  70.724  1.00  0.00    -0.256 A  
HETATM   16  S   UNL     1     -12.704  10.013  71.951  1.00  0.00    -0.362 SA 
HETATM   17  C   UNL     1     -12.721  11.678  71.329  1.00  0.00    -0.340 A  
HETATM   18  C   UNL     1     -13.497  12.582  72.083  1.00  0.00    -0.523 A  
HETATM   19  C   UNL     1     -13.509  13.940  71.781  1.00  0.00    -0.464 A  
HETATM   20  C   UNL     1     -12.750  14.394  70.717  1.00  0.00    -0.427 A  
HETATM   21  C   UNL     1     -12.000  13.497  69.947  1.00  0.00    -0.416 A  
HETATM   22  C   UNL     1     -11.951  12.112  70.226  1.00  0.00    -0.305 A  
ENDBRANCH   8   9
ENDBRANCH   6   8
ENDBRANCH   3   6
ENDBRANCH   2   3
TORSDOF 5
ENDMDL
MODEL       35
REMARK 921   NORMALIZED FREE ENERGY PREDICTED BY IDOCK:   -5.16 KCAL/MOL
REMARK 922        TOTAL FREE ENERGY PREDICTED BY IDOCK:   -7.49 KCAL/MOL
REMARK 923 INTER-LIGAND FREE ENERGY PREDICTED BY IDOCK:   -6.82 KCAL/MOL
REMARK 924 INTRA-LIGAND FREE ENERGY PREDICTED BY IDOCK:   -0.66 KCAL/MOL
REMARK 927      BINDING AFFINITY PREDICTED BY RF-SCORE:    0.00 PKD
ROOT
HETATM    1  C   UNL     1     -13.813  14.854  71.309  1.00  0.00    -0.500 C  
HETATM    2  C   UNL     1     -12.595  13.929  71.248  1.00  0.00    -0.371 C  
ENDROOT
BRANCH   2   3
HETATM    3  N   UNL     1     -12.078  13.635  69.890  1.00  0.00    -0.337 NA 
BRANCH   3   4
HETATM    4  C   UNL     1     -11.054  14.613  69.489  1.00  0.00    -0.266 C  
HETATM    5  C   UNL     1     -11.525  15.786  68.638  1.00  0.00    -0.389 C  
ENDBRANCH   3   4
BRANCH   3   6
HETATM    6  C   UNL     1     -11.660  12.197  69.741  1.00  0.00    -0.262 C  
HETATM    7  C   UNL     1     -12.209  11.400  70.959  1.00  0.00    -0.391 C  
BRANCH   6   8
HETATM    8  C   UNL     1     -12.160  11.380  68.481  1.00  0.00    -0.098 C  
BRANCH   8   9
HETATM    9  N   UNL     1     -11.245  11.279  67.303  1.00  0.00    -0.355 NA 
HETATM   10  C   UNL     1     -10.270  10.236  67.338  1.00  0.00    -0.218 A  
HETATM   11  C   UNL     1      -9.835   9.644  68.545  1.00  0.00    -0.170 A  
HETATM   12  C   UNL     1      -9.075   8.470  68.573  1.00  0.00    -0.135 A  
HETATM   13  C   UNL     1      -8.689   7.869  67.387  1.00  0.00    -0.128 A  
HETATM   14  C   UNL     1      -8.989   8.497  66.185  1.00  0.00    -0.220 A  
HETATM   15  C   UNL     1      -9.734   9.691  66.154  1.00  0.00    -0.252 A  
HETATM   16  S   UNL     1      -9.959  10.408  64.549  1.00  0.00    -0.281 SA 
HETATM   17  C   UNL     1     -10.950  11.840  64.905  1.00  0.00    -0.300 A  
HETATM   18  C   UNL     1     -11.217  12.665  63.794  1.00  0.00    -0.519 A  
HETATM   19  C   UNL     1     -12.074  13.755  63.901  1.00  0.00    -0.423 A  
HETATM   20  C   UNL     1     -12.659  14.026  65.125  1.00  0.00    -0.453 A  
HETATM   21  C   UNL     1     -12.376  13.228  66.240  1.00  0.00    -0.382 A  
HETATM   22  C   UNL     1     -11.520  12.105  66.171  1.00  0.00    -0.371 A  
ENDBRANCH   8   9
ENDBRANCH   6   8
ENDBRANCH   3   6
ENDBRANCH   2   3
TORSDOF 5
ENDMDL
MODEL       36
REMARK 921   NORMALIZED FREE ENERGY PREDICTED BY IDOCK:   -5.11 KCAL/MOL
REMARK 922        TOTAL FREE ENERGY PREDICTED BY IDOCK:   -7.43 KCAL/MOL
REMARK 923 INTER-LIGAND FREE ENERGY PREDICTED BY IDOCK:   -6.64 KCAL/MOL
REMARK 924 INTRA-LIGAND FREE ENERGY PREDICTED BY IDOCK:   -0.78 KCAL/MOL
REMARK 927      BINDING AFFINITY PREDICTED BY RF-SCORE:    0.00 PKD
ROOT
HETATM    1  C   UNL     1      -9.559   9.154  71.272  1.00  0.00    -0.331 C  
HETATM    2  C   UNL     1      -9.288   9.062  69.767  1.00  0.00    -0.171 C  
ENDROOT
BRANCH   2   3
HETATM    3  N   UNL     1      -9.067  10.354  69.074  1.00  0.00    -0.179 NA 
BRANCH   3   4
HETATM    4  C   UNL     1      -7.631  10.639  68.927  1.00  0.00    -0.113 C  
HETATM    5  C   UNL     1      -7.219  11.468  67.717  1.00  0.00    -0.094 C  
ENDBRANCH   3   4
BRANCH   3   6
HETATM    6  C   UNL     1      -9.858  10.455  67.798  1.00  0.00    -0.168 C  
HETATM    7  C   UNL     1     -10.352   9.031  67.415  1.00  0.00    -0.335 C  
BRANCH   6   8
HETATM    8  C   UNL     1     -11.168  11.343  67.777  1.00  0.00    -0.283 C  
BRANCH   8   9
HETATM    9  N   UNL     1     -11.172  12.606  68.578  1.00  0.00    -0.259 NA 
HETATM   10  C   UNL     1     -10.605  13.760  67.957  1.00  0.00    -0.252 A  
HETATM   11  C   UNL     1      -9.674  13.671  66.898  1.00  0.00    -0.262 A  
HETATM   12  C   UNL     1      -9.306  14.781  66.129  1.00  0.00    -0.292 A  
HETATM   13  C   UNL     1      -9.830  16.028  66.420  1.00  0.00    -0.308 A  
HETATM   14  C   UNL     1     -10.646  16.171  67.535  1.00  0.00    -0.314 A  
HETATM   15  C   UNL     1     -11.000  15.062  68.326  1.00  0.00    -0.271 A  
HETATM   16  S   UNL     1     -11.978  15.427  69.758  1.00  0.00    -0.356 SA 
HETATM   17  C   UNL     1     -12.246  13.816  70.458  1.00  0.00    -0.369 A  
HETATM   18  C   UNL     1     -12.943  13.812  71.684  1.00  0.00    -0.448 A  
HETATM   19  C   UNL     1     -13.324  12.619  72.288  1.00  0.00    -0.527 A  
HETATM   20  C   UNL     1     -13.000  11.425  71.669  1.00  0.00    -0.523 A  
HETATM   21  C   UNL     1     -12.284  11.420  70.467  1.00  0.00    -0.478 A  
HETATM   22  C   UNL     1     -11.887  12.610  69.814  1.00  0.00    -0.309 A  
ENDBRANCH   8   9
ENDBRANCH   6   8
ENDBRANCH   3   6
ENDBRANCH   2   3
TORSDOF 5
ENDMDL
MODEL       37
REMARK 921   NORMALIZED FREE ENERGY PREDICTED BY IDOCK:   -5.11 KCAL/MOL
REMARK 922        TOTAL FREE ENERGY PREDICTED BY IDOCK:   -7.42 KCAL/MOL
REMARK 923 INTER-LIGAND FREE ENERGY PREDICTED BY IDOCK:   -6.93 KCAL/MOL
REMARK 924 INTRA-LIGAND FREE ENERGY PREDICTED BY IDOCK:   -0.49 KCAL/MOL
REMARK 927      BINDING AFFINITY PREDICTED BY RF-SCORE:    0.00 PKD
ROOT
HETATM    1  C   UNL     1     -11.323   6.387  69.940  1.00  0.00    -0.500 C  
HETATM    2  C   UNL     1      -9.981   7.102  69.760  1.00  0.00    -0.178 C  
ENDROOT
BRANCH   2   3
HETATM    3  N   UNL     1      -9.925   8.497  70.259  1.00  0.00    -0.181 NA 
BRANCH   3   4
HETATM    4  C   UNL     1      -8.978   8.623  71.378  1.00  0.00    -0.222 C  
HETATM    5  C   UNL     1      -9.491   8.226  72.757  1.00  0.00    -0.343 C  
ENDBRANCH   3   4
BRANCH   3   6
HETATM    6  C   UNL     1      -9.713   9.488  69.147  1.00  0.00    -0.178 C  
HETATM    7  C   UNL     1      -8.419   9.093  68.379  1.00  0.00    -0.128 C  
BRANCH   6   8
HETATM    8  C   UNL     1     -10.814   9.621  68.018  1.00  0.00    -0.196 C  
BRANCH   8   9
HETATM    9  N   UNL     1     -11.295  10.992  67.665  1.00  0.00    -0.434 NA 
HETATM   10  C   UNL     1     -11.846  11.771  68.727  1.00  0.00    -0.320 A  
HETATM   11  C   UNL     1     -12.369  11.188  69.902  1.00  0.00    -0.330 A  
HETATM   12  C   UNL     1     -12.681  11.942  71.039  1.00  0.00    -0.354 A  
HETATM   13  C   UNL     1     -12.515  13.316  71.023  1.00  0.00    -0.422 A  
HETATM   14  C   UNL     1     -12.126  13.933  69.841  1.00  0.00    -0.406 A  
HETATM   15  C   UNL     1     -11.835  13.180  68.688  1.00  0.00    -0.328 A  
HETATM   16  S   UNL     1     -11.435  14.123  67.241  1.00  0.00    -0.370 SA 
HETATM   17  C   UNL     1     -11.102  12.856  66.040  1.00  0.00    -0.281 A  
HETATM   18  C   UNL     1     -10.832  13.331  64.740  1.00  0.00    -0.374 A  
HETATM   19  C   UNL     1     -10.442  12.462  63.727  1.00  0.00    -0.475 A  
HETATM   20  C   UNL     1     -10.329  11.112  64.011  1.00  0.00    -0.437 A  
HETATM   21  C   UNL     1     -10.623  10.630  65.292  1.00  0.00    -0.191 A  
HETATM   22  C   UNL     1     -11.012  11.480  66.353  1.00  0.00    -0.284 A  
ENDBRANCH   8   9
ENDBRANCH   6   8
ENDBRANCH   3   6
ENDBRANCH   2   3
TORSDOF 5
ENDMDL
MODEL       38
REMARK 921   NORMALIZED FREE ENERGY PREDICTED BY IDOCK:   -5.10 KCAL/MOL
REMARK 922        TOTAL FREE ENERGY PREDICTED BY IDOCK:   -7.41 KCAL/MOL
REMARK 923 INTER-LIGAND FREE ENERGY PREDICTED BY IDOCK:   -6.68 KCAL/MOL
REMARK 924 INTRA-LIGAND FREE ENERGY PREDICTED BY IDOCK:   -0.73 KCAL/MOL
REMARK 927      BINDING AFFINITY PREDICTED BY RF-SCORE:    0.00 PKD
ROOT
HETATM    1  C   UNL     1     -10.491   8.039  67.446  1.00  0.00    -0.357 C  
HETATM    2  C   UNL     1      -9.931   9.050  68.451  1.00  0.00    -0.180 C  
ENDROOT
BRANCH   2   3
HETATM    3  N   UNL     1     -10.940   9.821  69.216  1.00  0.00    -0.219 NA 
BRANCH   3   4
HETATM    4  C   UNL     1     -10.689   9.733  70.664  1.00  0.00    -0.326 C  
HETATM    5  C   UNL     1     -11.047   8.416  71.341  1.00  0.00    -0.312 C  
ENDBRANCH   3   4
BRANCH   3   6
HETATM    6  C   UNL     1     -11.097  11.223  68.694  1.00  0.00    -0.232 C  
HETATM    7  C   UNL     1     -11.848  12.063  69.766  1.00  0.00    -0.401 C  
BRANCH   6   8
HETATM    8  C   UNL     1      -9.800  12.070  68.369  1.00  0.00    -0.204 C  
BRANCH   8   9
HETATM    9  N   UNL     1      -9.864  13.044  67.236  1.00  0.00    -0.223 NA 
HETATM   10  C   UNL     1      -9.995  12.493  65.925  1.00  0.00    -0.257 A  
HETATM   11  C   UNL     1      -9.610  11.170  65.617  1.00  0.00    -0.259 A  
HETATM   12  C   UNL     1      -9.959  10.549  64.412  1.00  0.00    -0.410 A  
HETATM   13  C   UNL     1     -10.674  11.249  63.456  1.00  0.00    -0.408 A  
HETATM   14  C   UNL     1     -10.955  12.592  63.675  1.00  0.00    -0.507 A  
HETATM   15  C   UNL     1     -10.586  13.227  64.876  1.00  0.00    -0.366 A  
HETATM   16  S   UNL     1     -10.942  14.960  64.964  1.00  0.00    -0.431 SA 
HETATM   17  C   UNL     1     -10.380  15.384  66.595  1.00  0.00    -0.280 A  
HETATM   18  C   UNL     1     -10.467  16.754  66.913  1.00  0.00    -0.269 A  
HETATM   19  C   UNL     1     -10.172  17.214  68.192  1.00  0.00    -0.332 A  
HETATM   20  C   UNL     1      -9.780  16.300  69.155  1.00  0.00    -0.265 A  
HETATM   21  C   UNL     1      -9.664  14.942  68.839  1.00  0.00    -0.223 A  
HETATM   22  C   UNL     1      -9.965  14.432  67.555  1.00  0.00    -0.224 A  
ENDBRANCH   8   9
ENDBRANCH   6   8
ENDBRANCH   3   6
ENDBRANCH   2   3
TORSDOF 5
ENDMDL
MODEL       39
REMARK 921   NORMALIZED FREE ENERGY PREDICTED BY IDOCK:   -5.10 KCAL/MOL
REMARK 922        TOTAL FREE ENERGY PREDICTED BY IDOCK:   -7.41 KCAL/MOL
REMARK 923 INTER-LIGAND FREE ENERGY PREDICTED BY IDOCK:   -6.96 KCAL/MOL
REMARK 924 INTRA-LIGAND FREE ENERGY PREDICTED BY IDOCK:   -0.45 KCAL/MOL
REMARK 927      BINDING AFFINITY PREDICTED BY RF-SCORE:    0.00 PKD
ROOT
HETATM    1  C   UNL     1     -12.035  12.987  63.394  1.00  0.00    -0.592 C  
HETATM    2  C   UNL     1     -12.208  13.914  64.600  1.00  0.00    -0.419 C  
ENDROOT
BRANCH   2   3
HETATM    3  N   UNL     1     -10.983  14.169  65.396  1.00  0.00    -0.313 NA 
BRANCH   3   4
HETATM    4  C   UNL     1     -10.572  15.579  65.299  1.00  0.00    -0.424 C  
HETATM    5  C   UNL     1      -9.235  15.946  65.931  1.00  0.00    -0.332 C  
ENDBRANCH   3   4
BRANCH   3   6
HETATM    6  C   UNL     1     -11.102  13.648  66.802  1.00  0.00    -0.307 C  
HETATM    7  C   UNL     1     -11.855  14.709  67.655  1.00  0.00    -0.366 C  
BRANCH   6   8
HETATM    8  C   UNL     1     -11.898  12.304  67.057  1.00  0.00    -0.259 C  
BRANCH   8   9
HETATM    9  N   UNL     1     -11.148  11.143  67.629  1.00  0.00    -0.267 NA 
HETATM   10  C   UNL     1     -11.408  10.824  68.996  1.00  0.00    -0.284 A  
HETATM   11  C   UNL     1     -11.931  11.766  69.909  1.00  0.00    -0.405 A  
HETATM   12  C   UNL     1     -12.415  11.399  71.170  1.00  0.00    -0.465 A  
HETATM   13  C   UNL     1     -12.356  10.077  71.575  1.00  0.00    -0.513 A  
HETATM   14  C   UNL     1     -11.730   9.149  70.753  1.00  0.00    -0.308 A  
HETATM   15  C   UNL     1     -11.220   9.518  69.494  1.00  0.00    -0.074 A  
HETATM   16  S   UNL     1     -10.377   8.236  68.606  1.00  0.00    -0.174 SA 
HETATM   17  C   UNL     1      -9.924   9.053  67.094  1.00  0.00    -0.224 A  
HETATM   18  C   UNL     1      -9.149   8.274  66.211  1.00  0.00    -0.235 A  
HETATM   19  C   UNL     1      -8.821   8.742  64.943  1.00  0.00    -0.119 A  
HETATM   20  C   UNL     1      -9.261   9.997  64.560  1.00  0.00    -0.313 A  
HETATM   21  C   UNL     1     -10.006  10.787  65.442  1.00  0.00    -0.330 A  
HETATM   22  C   UNL     1     -10.372  10.345  66.735  1.00  0.00    -0.235 A  
ENDBRANCH   8   9
ENDBRANCH   6   8
ENDBRANCH   3   6
ENDBRANCH   2   3
TORSDOF 5
ENDMDL
MODEL       40
REMARK 921   NORMALIZED FREE ENERGY PREDICTED BY IDOCK:   -5.07 KCAL/MOL
REMARK 922        TOTAL FREE ENERGY PREDICTED BY IDOCK:   -7.37 KCAL/MOL
REMARK 923 INTER-LIGAND FREE ENERGY PREDICTED BY IDOCK:   -6.66 KCAL/MOL
REMARK 924 INTRA-LIGAND FREE ENERGY PREDICTED BY IDOCK:   -0.71 KCAL/MOL
REMARK 927      BINDING AFFINITY PREDICTED BY RF-SCORE:    0.00 PKD
ROOT
HETATM    1  C   UNL     1     -13.107  13.999  65.218  1.00  0.00    -0.176 C  
HETATM    2  C   UNL     1     -11.822  14.584  64.626  1.00  0.00    -0.453 C  
ENDROOT
BRANCH   2   3
HETATM    3  N   UNL     1     -10.573  13.859  64.963  1.00  0.00    -0.379 NA 
BRANCH   3   4
HETATM    4  C   UNL     1      -9.714  14.663  65.848  1.00  0.00    -0.310 C  
HETATM    5  C   UNL     1     -10.045  16.146  65.958  1.00  0.00    -0.372 C  
ENDBRANCH   3   4
BRANCH   3   6
HETATM    6  C   UNL     1     -10.843  12.463  65.454  1.00  0.00    -0.285 C  
HETATM    7  C   UNL     1     -10.498  11.467  64.310  1.00  0.00    -0.401 C  
BRANCH   6   8
HETATM    8  C   UNL     1     -10.035  11.920  66.703  1.00  0.00    -0.199 C  
BRANCH   8   9
HETATM    9  N   UNL     1     -10.809  11.301  67.823  1.00  0.00    -0.218 NA 
HETATM   10  C   UNL     1     -10.765   9.878  67.922  1.00  0.00    -0.265 A  
HETATM   11  C   UNL     1     -10.452   9.050  66.821  1.00  0.00    -0.270 A  
HETATM   12  C   UNL     1     -10.167   7.688  66.964  1.00  0.00    -0.371 A  
HETATM   13  C   UNL     1     -10.225   7.098  68.215  1.00  0.00    -0.210 A  
HETATM   14  C   UNL     1     -10.656   7.855  69.296  1.00  0.00    -0.195 A  
HETATM   15  C   UNL     1     -10.967   9.221  69.152  1.00  0.00    -0.060 A  
HETATM   16  S   UNL     1     -11.582  10.021  70.609  1.00  0.00    -0.363 SA 
HETATM   17  C   UNL     1     -11.817  11.693  70.055  1.00  0.00    -0.355 A  
HETATM   18  C   UNL     1     -12.393  12.556  71.009  1.00  0.00    -0.307 A  
HETATM   19  C   UNL     1     -12.528  13.917  70.755  1.00  0.00    -0.445 A  
HETATM   20  C   UNL     1     -12.095  14.415  69.539  1.00  0.00    -0.366 A  
HETATM   21  C   UNL     1     -11.550  13.559  68.575  1.00  0.00    -0.368 A  
HETATM   22  C   UNL     1     -11.383  12.173  68.798  1.00  0.00    -0.288 A  
ENDBRANCH   8   9
ENDBRANCH   6   8
ENDBRANCH   3   6
ENDBRANCH   2   3
TORSDOF 5
ENDMDL
MODEL       41
REMARK 921   NORMALIZED FREE ENERGY PREDICTED BY IDOCK:   -5.06 KCAL/MOL
REMARK 922        TOTAL FREE ENERGY PREDICTED BY IDOCK:   -7.36 KCAL/MOL
REMARK 923 INTER-LIGAND FREE ENERGY PREDICTED BY IDOCK:   -6.27 KCAL/MOL
REMARK 924 INTRA-LIGAND FREE ENERGY PREDICTED BY IDOCK:   -1.09 KCAL/MOL
REMARK 927      BINDING AFFINITY PREDICTED BY RF-SCORE:    0.00 PKD
ROOT
HETATM    1  C   UNL     1     -13.664  15.558  72.698  1.00  0.00    -0.667 C  
HETATM    2  C   UNL     1     -14.059  14.415  71.759  1.00  0.00    -0.475 C  
ENDROOT
BRANCH   2   3
HETATM    3  N   UNL     1     -13.159  14.197  70.601  1.00  0.00    -0.237 NA 
BRANCH   3   4
HETATM    4  C   UNL     1     -12.373  15.405  70.304  1.00  0.00    -0.388 C  
HETATM    5  C   UNL     1     -10.857  15.267  70.367  1.00  0.00    -0.293 C  
ENDBRANCH   3   4
BRANCH   3   6
HETATM    6  C   UNL     1     -12.343  12.941  70.746  1.00  0.00    -0.299 C  
HETATM    7  C   UNL     1     -12.949  12.096  71.903  1.00  0.00    -0.419 C  
BRANCH   6   8
HETATM    8  C   UNL     1     -12.261  11.935  69.527  1.00  0.00    -0.136 C  
BRANCH   8   9
HETATM    9  N   UNL     1     -10.957  11.814  68.805  1.00  0.00    -0.222 NA 
HETATM   10  C   UNL     1     -10.715  12.755  67.759  1.00  0.00    -0.220 A  
HETATM   11  C   UNL     1     -11.759  13.435  67.094  1.00  0.00    -0.424 A  
HETATM   12  C   UNL     1     -11.524  14.527  66.250  1.00  0.00    -0.358 A  
HETATM   13  C   UNL     1     -10.228  14.950  66.013  1.00  0.00    -0.317 A  
HETATM   14  C   UNL     1      -9.174  14.221  66.547  1.00  0.00    -0.259 A  
HETATM   15  C   UNL     1      -9.405  13.108  67.378  1.00  0.00    -0.213 A  
HETATM   16  S   UNL     1      -7.955  12.239  67.909  1.00  0.00    -0.166 SA 
HETATM   17  C   UNL     1      -8.633  10.959  68.939  1.00  0.00    -0.140 A  
HETATM   18  C   UNL     1      -7.688  10.042  69.442  1.00  0.00    -0.129 A  
HETATM   19  C   UNL     1      -8.058   9.059  70.353  1.00  0.00    -0.152 A  
HETATM   20  C   UNL     1      -9.380   8.985  70.756  1.00  0.00    -0.305 A  
HETATM   21  C   UNL     1     -10.329   9.874  70.238  1.00  0.00    -0.339 A  
HETATM   22  C   UNL     1      -9.993  10.895  69.319  1.00  0.00    -0.113 A  
ENDBRANCH   8   9
ENDBRANCH   6   8
ENDBRANCH   3   6
ENDBRANCH   2   3
TORSDOF 5
ENDMDL
MODEL       42
REMARK 921   NORMALIZED FREE ENERGY PREDICTED BY IDOCK:   -5.06 KCAL/MOL
REMARK 922        TOTAL FREE ENERGY PREDICTED BY IDOCK:   -7.35 KCAL/MOL
REMARK 923 INTER-LIGAND FREE ENERGY PREDICTED BY IDOCK:   -6.60 KCAL/MOL
REMARK 924 INTRA-LIGAND FREE ENERGY PREDICTED BY IDOCK:   -0.75 KCAL/MOL
REMARK 927      BINDING AFFINITY PREDICTED BY RF-SCORE:    0.00 PKD
ROOT
HETATM    1  C   UNL     1     -11.777  14.031  68.930  1.00  0.00    -0.375 C  
HETATM    2  C   UNL     1     -10.896  13.125  68.064  1.00  0.00    -0.242 C  
ENDROOT
BRANCH   2   3
HETATM    3  N   UNL     1     -11.612  12.081  67.293  1.00  0.00    -0.475 NA 
BRANCH   3   4
HETATM    4  C   UNL     1     -11.673  12.425  65.863  1.00  0.00    -0.419 C  
HETATM    5  C   UNL     1     -12.767  13.397  65.440  1.00  0.00    -0.484 C  
ENDBRANCH   3   4
BRANCH   3   6
HETATM    6  C   UNL     1     -11.084  10.702  67.581  1.00  0.00    -0.319 C  
HETATM    7  C   UNL     1     -10.279  10.217  66.340  1.00  0.00    -0.290 C  
BRANCH   6   8
HETATM    8  C   UNL     1     -10.090  10.500  68.796  1.00  0.00    -0.191 C  
BRANCH   8   9
HETATM    9  N   UNL     1     -10.276   9.295  69.661  1.00  0.00    -0.198 NA 
HETATM   10  C   UNL     1     -11.340   9.349  70.612  1.00  0.00    -0.292 A  
HETATM   11  C   UNL     1     -11.879  10.567  71.080  1.00  0.00    -0.438 A  
HETATM   12  C   UNL     1     -13.070  10.628  71.813  1.00  0.00    -0.571 A  
HETATM   13  C   UNL     1     -13.742   9.463  72.136  1.00  0.00    -0.490 A  
HETATM   14  C   UNL     1     -13.170   8.241  71.804  1.00  0.00    -0.368 A  
HETATM   15  C   UNL     1     -11.960   8.175  71.087  1.00  0.00    -0.273 A  
HETATM   16  S   UNL     1     -11.323   6.544  70.816  1.00  0.00    -0.360 SA 
HETATM   17  C   UNL     1      -9.850   6.861  69.874  1.00  0.00    -0.165 A  
HETATM   18  C   UNL     1      -9.077   5.719  69.582  1.00  0.00    -0.148 A  
HETATM   19  C   UNL     1      -7.961   5.800  68.756  1.00  0.00    -0.101 A  
HETATM   20  C   UNL     1      -7.611   7.030  68.227  1.00  0.00    -0.111 A  
HETATM   21  C   UNL     1      -8.357   8.173  68.535  1.00  0.00    -0.126 A  
HETATM   22  C   UNL     1      -9.504   8.132  69.361  1.00  0.00    -0.162 A  
ENDBRANCH   8   9
ENDBRANCH   6   8
ENDBRANCH   3   6
ENDBRANCH   2   3
TORSDOF 5
ENDMDL
MODEL       43
REMARK 921   NORMALIZED FREE ENERGY PREDICTED BY IDOCK:   -5.05 KCAL/MOL
REMARK 922        TOTAL FREE ENERGY PREDICTED BY IDOCK:   -7.35 KCAL/MOL
REMARK 923 INTER-LIGAND FREE ENERGY PREDICTED BY IDOCK:   -6.89 KCAL/MOL
REMARK 924 INTRA-LIGAND FREE ENERGY PREDICTED BY IDOCK:   -0.46 KCAL/MOL
REMARK 927      BINDING AFFINITY PREDICTED BY RF-SCORE:    0.00 PKD
ROOT
HETATM    1  C   UNL     1     -12.571  15.957  72.385  1.00  0.00    -0.539 C  
HETATM    2  C   UNL     1     -13.417  15.096  71.442  1.00  0.00    -0.481 C  
ENDROOT
BRANCH   2   3
HETATM    3  N   UNL     1     -12.658  14.230  70.509  1.00  0.00    -0.346 NA 
BRANCH   3   4
HETATM    4  C   UNL     1     -11.411  14.881  70.075  1.00  0.00    -0.278 C  
HETATM    5  C   UNL     1     -11.473  15.685  68.782  1.00  0.00    -0.382 C  
ENDBRANCH   3   4
BRANCH   3   6
HETATM    6  C   UNL     1     -12.480  12.836  71.047  1.00  0.00    -0.277 C  
HETATM    7  C   UNL     1     -13.354  12.691  72.325  1.00  0.00    -0.527 C  
BRANCH   6   8
HETATM    8  C   UNL     1     -12.900  11.607  70.143  1.00  0.00     0.229 C  
BRANCH   8   9
HETATM    9  N   UNL     1     -11.815  10.828  69.471  1.00  0.00    -0.305 NA 
HETATM   10  C   UNL     1     -11.326   9.681  70.165  1.00  0.00    -0.227 A  
HETATM   11  C   UNL     1     -11.458   9.526  71.563  1.00  0.00    -0.466 A  
HETATM   12  C   UNL     1     -11.207   8.311  72.210  1.00  0.00    -0.443 A  
HETATM   13  C   UNL     1     -10.776   7.216  71.481  1.00  0.00    -0.245 A  
HETATM   14  C   UNL     1     -10.511   7.372  70.127  1.00  0.00    -0.228 A  
HETATM   15  C   UNL     1     -10.740   8.599  69.476  1.00  0.00    -0.182 A  
HETATM   16  S   UNL     1     -10.272   8.656  67.767  1.00  0.00    -0.235 SA 
HETATM   17  C   UNL     1     -10.735  10.306  67.299  1.00  0.00    -0.263 A  
HETATM   18  C   UNL     1     -10.393  10.664  65.980  1.00  0.00    -0.290 A  
HETATM   19  C   UNL     1     -10.795  11.881  65.440  1.00  0.00    -0.343 A  
HETATM   20  C   UNL     1     -11.535  12.748  66.225  1.00  0.00    -0.405 A  
HETATM   21  C   UNL     1     -11.853  12.411  67.546  1.00  0.00    -0.354 A  
HETATM   22  C   UNL     1     -11.474  11.180  68.129  1.00  0.00    -0.303 A  
ENDBRANCH   8   9
ENDBRANCH   6   8
ENDBRANCH   3   6
ENDBRANCH   2   3
TORSDOF 5
ENDMDL
MODEL       44
REMARK 921   NORMALIZED FREE ENERGY PREDICTED BY IDOCK:   -5.04 KCAL/MOL
REMARK 922        TOTAL FREE ENERGY PREDICTED BY IDOCK:   -7.33 KCAL/MOL
REMARK 923 INTER-LIGAND FREE ENERGY PREDICTED BY IDOCK:   -6.83 KCAL/MOL
REMARK 924 INTRA-LIGAND FREE ENERGY PREDICTED BY IDOCK:   -0.50 KCAL/MOL
REMARK 927      BINDING AFFINITY PREDICTED BY RF-SCORE:    0.00 PKD
ROOT
HETATM    1  C   UNL     1     -13.503   8.750  72.410  1.00  0.00    -0.446 C  
HETATM    2  C   UNL     1     -12.208   8.051  71.985  1.00  0.00    -0.331 C  
ENDROOT
BRANCH   2   3
HETATM    3  N   UNL     1     -10.956   8.795  72.262  1.00  0.00    -0.331 NA 
BRANCH   3   4
HETATM    4  C   UNL     1      -9.930   7.911  72.839  1.00  0.00    -0.294 C  
HETATM    5  C   UNL     1     -10.412   6.857  73.827  1.00  0.00    -0.390 C  
ENDBRANCH   3   4
BRANCH   3   6
HETATM    6  C   UNL     1     -10.496   9.593  71.072  1.00  0.00    -0.257 C  
HETATM    7  C   UNL     1      -9.167   8.974  70.553  1.00  0.00    -0.261 C  
BRANCH   6   8
HETATM    8  C   UNL     1     -11.423   9.662  69.791  1.00  0.00    -0.052 C  
BRANCH   8   9
HETATM    9  N   UNL     1     -11.547  10.975  69.086  1.00  0.00    -0.292 NA 
HETATM   10  C   UNL     1     -12.079  12.061  69.845  1.00  0.00    -0.263 A  
HETATM   11  C   UNL     1     -12.886  11.865  70.988  1.00  0.00    -0.291 A  
HETATM   12  C   UNL     1     -13.203  12.905  71.870  1.00  0.00    -0.521 A  
HETATM   13  C   UNL     1     -12.753  14.188  71.613  1.00  0.00    -0.430 A  
HETATM   14  C   UNL     1     -12.069  14.439  70.431  1.00  0.00    -0.399 A  
HETATM   15  C   UNL     1     -11.769  13.399  69.530  1.00  0.00    -0.324 A  
HETATM   16  S   UNL     1     -10.965  13.898  68.031  1.00  0.00    -0.259 SA 
HETATM   17  C   UNL     1     -10.725  12.350  67.193  1.00  0.00    -0.235 A  
HETATM   18  C   UNL     1     -10.167  12.457  65.903  1.00  0.00    -0.273 A  
HETATM   19  C   UNL     1      -9.816  11.323  65.178  1.00  0.00    -0.298 A  
HETATM   20  C   UNL     1     -10.032  10.077  65.741  1.00  0.00    -0.346 A  
HETATM   21  C   UNL     1     -10.612   9.963  67.010  1.00  0.00    -0.272 A  
HETATM   22  C   UNL     1     -10.972  11.090  67.784  1.00  0.00    -0.269 A  
ENDBRANCH   8   9
ENDBRANCH   6   8
ENDBRANCH   3   6
ENDBRANCH   2   3
TORSDOF 5
ENDMDL
MODEL       45
REMARK 921   NORMALIZED FREE ENERGY PREDICTED BY IDOCK:   -5.00 KCAL/MOL
REMARK 922        TOTAL FREE ENERGY PREDICTED BY IDOCK:   -7.27 KCAL/MOL
REMARK 923 INTER-LIGAND FREE ENERGY PREDICTED BY IDOCK:   -6.73 KCAL/MOL
REMARK 924 INTRA-LIGAND FREE ENERGY PREDICTED BY IDOCK:   -0.54 KCAL/MOL
REMARK 927      BINDING AFFINITY PREDICTED BY RF-SCORE:    0.00 PKD
ROOT
HETATM    1  C   UNL     1     -10.777  15.880  65.146  1.00  0.00    -0.449 C  
HETATM    2  C   UNL     1     -10.561  14.393  65.435  1.00  0.00    -0.365 C  
ENDROOT
BRANCH   2   3
HETATM    3  N   UNL     1     -11.696  13.693  66.083  1.00  0.00    -0.347 NA 
BRANCH   3   4
HETATM    4  C   UNL     1     -12.420  12.849  65.119  1.00  0.00    -0.501 C  
HETATM    5  C   UNL     1     -11.702  12.531  63.814  1.00  0.00    -0.564 C  
ENDBRANCH   3   4
BRANCH   3   6
HETATM    6  C   UNL     1     -11.279  12.984  67.344  1.00  0.00    -0.288 C  
HETATM    7  C   UNL     1     -11.537  13.935  68.548  1.00  0.00    -0.367 C  
BRANCH   6   8
HETATM    8  C   UNL     1     -12.009  11.638  67.743  1.00  0.00    -0.047 C  
BRANCH   8   9
HETATM    9  N   UNL     1     -11.190  10.557  68.373  1.00  0.00    -0.280 NA 
HETATM   10  C   UNL     1     -11.533  10.189  69.709  1.00  0.00    -0.228 A  
HETATM   11  C   UNL     1     -12.233  11.055  70.578  1.00  0.00    -0.472 A  
HETATM   12  C   UNL     1     -12.783  10.619  71.789  1.00  0.00    -0.489 A  
HETATM   13  C   UNL     1     -12.616   9.305  72.189  1.00  0.00    -0.443 A  
HETATM   14  C   UNL     1     -11.822   8.463  71.421  1.00  0.00    -0.339 A  
HETATM   15  C   UNL     1     -11.247   8.904  70.214  1.00  0.00    -0.197 A  
HETATM   16  S   UNL     1     -10.196   7.735  69.397  1.00  0.00    -0.211 SA 
HETATM   17  C   UNL     1      -9.704   8.619  67.936  1.00  0.00    -0.161 A  
HETATM   18  C   UNL     1      -8.774   7.943  67.121  1.00  0.00    -0.133 A  
HETATM   19  C   UNL     1      -8.389   8.463  65.890  1.00  0.00    -0.137 A  
HETATM   20  C   UNL     1      -8.928   9.668  65.476  1.00  0.00    -0.223 A  
HETATM   21  C   UNL     1      -9.830  10.360  66.294  1.00  0.00    -0.272 A  
HETATM   22  C   UNL     1     -10.256   9.861  67.546  1.00  0.00    -0.216 A  
ENDBRANCH   8   9
ENDBRANCH   6   8
ENDBRANCH   3   6
ENDBRANCH   2   3
TORSDOF 5
ENDMDL
MODEL       46
REMARK 921   NORMALIZED FREE ENERGY PREDICTED BY IDOCK:   -4.98 KCAL/MOL
REMARK 922        TOTAL FREE ENERGY PREDICTED BY IDOCK:   -7.25 KCAL/MOL
REMARK 923 INTER-LIGAND FREE ENERGY PREDICTED BY IDOCK:   -6.22 KCAL/MOL
REMARK 924 INTRA-LIGAND FREE ENERGY PREDICTED BY IDOCK:   -1.03 KCAL/MOL
REMARK 927      BINDING AFFINITY PREDICTED BY RF-SCORE:    0.00 PKD
ROOT
HETATM    1  C   UNL     1      -8.413  13.579  68.237  1.00  0.00    -0.168 C  
HETATM    2  C   UNL     1      -7.974  12.128  68.450  1.00  0.00    -0.152 C  
ENDROOT
BRANCH   2   3
HETATM    3  N   UNL     1      -8.292  11.193  67.344  1.00  0.00    -0.132 NA 
BRANCH   3   4
HETATM    4  C   UNL     1      -7.099  10.908  66.530  1.00  0.00    -0.139 C  
HETATM    5  C   UNL     1      -5.752  10.991  67.238  1.00  0.00    -0.052 C  
ENDBRANCH   3   4
BRANCH   3   6
HETATM    6  C   UNL     1      -9.023   9.970  67.828  1.00  0.00    -0.131 C  
HETATM    7  C   UNL     1      -8.768   9.821  69.355  1.00  0.00    -0.178 C  
BRANCH   6   8
HETATM    8  C   UNL     1     -10.599   9.913  67.686  1.00  0.00    -0.270 C  
BRANCH   8   9
HETATM    9  N   UNL     1     -11.328  11.197  67.451  1.00  0.00    -0.453 NA 
HETATM   10  C   UNL     1     -11.859  11.852  68.604  1.00  0.00    -0.308 A  
HETATM   11  C   UNL     1     -12.134  11.165  69.807  1.00  0.00    -0.414 A  
HETATM   12  C   UNL     1     -12.417  11.833  71.004  1.00  0.00    -0.411 A  
HETATM   13  C   UNL     1     -12.472  13.216  71.026  1.00  0.00    -0.406 A  
HETATM   14  C   UNL     1     -12.335  13.914  69.834  1.00  0.00    -0.358 A  
HETATM   15  C   UNL     1     -12.073  13.245  68.623  1.00  0.00    -0.222 A  
HETATM   16  S   UNL     1     -12.009  14.273  67.181  1.00  0.00    -0.371 SA 
HETATM   17  C   UNL     1     -11.633  13.105  65.896  1.00  0.00    -0.354 A  
HETATM   18  C   UNL     1     -11.604  13.646  64.595  1.00  0.00    -0.393 A  
HETATM   19  C   UNL     1     -11.211  12.876  63.506  1.00  0.00    -0.350 A  
HETATM   20  C   UNL     1     -10.853  11.555  63.717  1.00  0.00    -0.486 A  
HETATM   21  C   UNL     1     -10.907  11.003  65.002  1.00  0.00    -0.194 A  
HETATM   22  C   UNL     1     -11.290  11.754  66.137  1.00  0.00    -0.280 A  
ENDBRANCH   8   9
ENDBRANCH   6   8
ENDBRANCH   3   6
ENDBRANCH   2   3
TORSDOF 5
ENDMDL
MODEL       47
REMARK 921   NORMALIZED FREE ENERGY PREDICTED BY IDOCK:   -4.95 KCAL/MOL
REMARK 922        TOTAL FREE ENERGY PREDICTED BY IDOCK:   -7.21 KCAL/MOL
REMARK 923 INTER-LIGAND FREE ENERGY PREDICTED BY IDOCK:   -6.44 KCAL/MOL
REMARK 924 INTRA-LIGAND FREE ENERGY PREDICTED BY IDOCK:   -0.77 KCAL/MOL
REMARK 927      BINDING AFFINITY PREDICTED BY RF-SCORE:    0.00 PKD
ROOT
HETATM    1  C   UNL     1     -10.600  17.058  68.178  1.00  0.00    -0.369 C  
HETATM    2  C   UNL     1     -10.398  15.567  67.896  1.00  0.00    -0.250 C  
ENDROOT
BRANCH   2   3
HETATM    3  N   UNL     1     -11.612  14.723  68.003  1.00  0.00    -0.333 NA 
BRANCH   3   4
HETATM    4  C   UNL     1     -12.043  14.243  66.680  1.00  0.00    -0.420 C  
HETATM    5  C   UNL     1     -11.155  14.608  65.497  1.00  0.00    -0.345 C  
ENDBRANCH   3   4
BRANCH   3   6
HETATM    6  C   UNL     1     -11.461  13.644  69.041  1.00  0.00    -0.301 C  
HETATM    7  C   UNL     1     -12.245  14.076  70.313  1.00  0.00    -0.430 C  
BRANCH   6   8
HETATM    8  C   UNL     1     -12.003  12.191  68.720  1.00  0.00    -0.239 C  
BRANCH   8   9
HETATM    9  N   UNL     1     -11.132  11.026  69.068  1.00  0.00    -0.223 NA 
HETATM   10  C   UNL     1      -9.935  10.872  68.306  1.00  0.00    -0.175 A  
HETATM   11  C   UNL     1      -9.777  11.433  67.020  1.00  0.00    -0.210 A  
HETATM   12  C   UNL     1      -8.535  11.497  66.377  1.00  0.00    -0.138 A  
HETATM   13  C   UNL     1      -7.413  10.963  66.988  1.00  0.00    -0.122 A  
HETATM   14  C   UNL     1      -7.559  10.289  68.193  1.00  0.00    -0.087 A  
HETATM   15  C   UNL     1      -8.811  10.202  68.832  1.00  0.00    -0.154 A  
HETATM   16  S   UNL     1      -8.844   9.238  70.319  1.00  0.00    -0.241 SA 
HETATM   17  C   UNL     1     -10.537   9.392  70.836  1.00  0.00    -0.320 A  
HETATM   18  C   UNL     1     -10.877   8.637  71.977  1.00  0.00    -0.430 A  
HETATM   19  C   UNL     1     -12.134   8.750  72.562  1.00  0.00    -0.320 A  
HETATM   20  C   UNL     1     -13.057   9.613  72.000  1.00  0.00    -0.537 A  
HETATM   21  C   UNL     1     -12.736  10.344  70.850  1.00  0.00    -0.477 A  
HETATM   22  C   UNL     1     -11.467  10.267  70.230  1.00  0.00    -0.317 A  
ENDBRANCH   8   9
ENDBRANCH   6   8
ENDBRANCH   3   6
ENDBRANCH   2   3
TORSDOF 5
ENDMDL
MODEL       48
REMARK 921   NORMALIZED FREE ENERGY PREDICTED BY IDOCK:   -4.92 KCAL/MOL
REMARK 922        TOTAL FREE ENERGY PREDICTED BY IDOCK:   -7.17 KCAL/MOL
REMARK 923 INTER-LIGAND FREE ENERGY PREDICTED BY IDOCK:   -7.11 KCAL/MOL
REMARK 924 INTRA-LIGAND FREE ENERGY PREDICTED BY IDOCK:   -0.06 KCAL/MOL
REMARK 927      BINDING AFFINITY PREDICTED BY RF-SCORE:    0.00 PKD
ROOT
HETATM    1  C   UNL     1      -7.528  19.352  68.778  1.00  0.00    -0.393 C  
HETATM    2  C   UNL     1      -8.068  18.056  68.167  1.00  0.00    -0.273 C  
ENDROOT
BRANCH   2   3
HETATM    3  N   UNL     1      -9.341  18.181  67.418  1.00  0.00    -0.253 NA 
BRANCH   3   4
HETATM    4  C   UNL     1      -9.485  19.524  66.834  1.00  0.00    -0.344 C  
HETATM    5  C   UNL     1     -10.591  19.707  65.802  1.00  0.00    -0.537 C  
ENDBRANCH   3   4
BRANCH   3   6
HETATM    6  C   UNL     1      -9.538  17.052  66.443  1.00  0.00    -0.282 C  
HETATM    7  C   UNL     1      -8.450  15.974  66.717  1.00  0.00    -0.295 C  
BRANCH   6   8
HETATM    8  C   UNL     1     -10.901  16.247  66.467  1.00  0.00    -0.105 C  
BRANCH   8   9
HETATM    9  N   UNL     1     -10.904  14.894  67.104  1.00  0.00    -0.304 NA 
HETATM   10  C   UNL     1     -11.140  14.849  68.511  1.00  0.00    -0.266 A  
HETATM   11  C   UNL     1     -10.906  15.957  69.355  1.00  0.00    -0.288 A  
HETATM   12  C   UNL     1     -11.362  16.001  70.678  1.00  0.00    -0.424 A  
HETATM   13  C   UNL     1     -12.035  14.916  71.213  1.00  0.00    -0.393 A  
HETATM   14  C   UNL     1     -12.166  13.763  70.451  1.00  0.00    -0.433 A  
HETATM   15  C   UNL     1     -11.688  13.706  69.128  1.00  0.00    -0.329 A  
HETATM   16  S   UNL     1     -11.858  12.136  68.322  1.00  0.00    -0.211 SA 
HETATM   17  C   UNL     1     -11.196  12.463  66.706  1.00  0.00    -0.310 A  
HETATM   18  C   UNL     1     -11.127  11.339  65.857  1.00  0.00    -0.168 A  
HETATM   19  C   UNL     1     -10.739  11.468  64.528  1.00  0.00    -0.390 A  
HETATM   20  C   UNL     1     -10.410  12.723  64.047  1.00  0.00    -0.392 A  
HETATM   21  C   UNL     1     -10.448  13.839  64.892  1.00  0.00    -0.437 A  
HETATM   22  C   UNL     1     -10.848  13.753  66.246  1.00  0.00    -0.283 A  
ENDBRANCH   8   9
ENDBRANCH   6   8
ENDBRANCH   3   6
ENDBRANCH   2   3
TORSDOF 5
ENDMDL
MODEL       49
REMARK 921   NORMALIZED FREE ENERGY PREDICTED BY IDOCK:   -4.89 KCAL/MOL
REMARK 922        TOTAL FREE ENERGY PREDICTED BY IDOCK:   -7.13 KCAL/MOL
REMARK 923 INTER-LIGAND FREE ENERGY PREDICTED BY IDOCK:   -6.68 KCAL/MOL
REMARK 924 INTRA-LIGAND FREE ENERGY PREDICTED BY IDOCK:   -0.45 KCAL/MOL
REMARK 927      BINDING AFFINITY PREDICTED BY RF-SCORE:    0.00 PKD
ROOT
HETATM    1  C   UNL     1      -8.764   7.602  66.813  1.00  0.00    -0.139 C  
HETATM    2  C   UNL     1      -8.895   8.486  68.057  1.00  0.00    -0.142 C  
ENDROOT
BRANCH   2   3
HETATM    3  N   UNL     1     -10.179   8.377  68.789  1.00  0.00    -0.204 NA 
BRANCH   3   4
HETATM    4  C   UNL     1     -10.056   7.478  69.947  1.00  0.00    -0.193 C  
HETATM    5  C   UNL     1     -11.037   6.314  70.017  1.00  0.00    -0.455 C  
ENDBRANCH   3   4
BRANCH   3   6
HETATM    6  C   UNL     1     -10.767   9.726  69.106  1.00  0.00    -0.221 C  
HETATM    7  C   UNL     1     -10.821   9.885  70.652  1.00  0.00    -0.400 C  
BRANCH   6   8
HETATM    8  C   UNL     1     -10.016  11.026  68.605  1.00  0.00    -0.199 C  
BRANCH   8   9
HETATM    9  N   UNL     1     -10.797  12.025  67.812  1.00  0.00    -0.207 NA 
HETATM   10  C   UNL     1     -11.428  13.073  68.548  1.00  0.00    -0.304 A  
HETATM   11  C   UNL     1     -11.737  12.957  69.921  1.00  0.00    -0.324 A  
HETATM   12  C   UNL     1     -12.124  14.055  70.698  1.00  0.00    -0.424 A  
HETATM   13  C   UNL     1     -12.253  15.303  70.114  1.00  0.00    -0.402 A  
HETATM   14  C   UNL     1     -12.083  15.425  68.741  1.00  0.00    -0.183 A  
HETATM   15  C   UNL     1     -11.717  14.318  67.952  1.00  0.00    -0.359 A  
HETATM   16  S   UNL     1     -11.623  14.622  66.209  1.00  0.00    -0.304 SA 
HETATM   17  C   UNL     1     -11.111  13.044  65.573  1.00  0.00    -0.275 A  
HETATM   18  C   UNL     1     -11.035  12.969  64.167  1.00  0.00    -0.438 A  
HETATM   19  C   UNL     1     -10.538  11.834  63.535  1.00  0.00    -0.499 A  
HETATM   20  C   UNL     1     -10.124  10.766  64.311  1.00  0.00    -0.427 A  
HETATM   21  C   UNL     1     -10.224  10.821  65.706  1.00  0.00    -0.319 A  
HETATM   22  C   UNL     1     -10.712  11.960  66.388  1.00  0.00    -0.266 A  
ENDBRANCH   8   9
ENDBRANCH   6   8
ENDBRANCH   3   6
ENDBRANCH   2   3
TORSDOF 5
ENDMDL
MODEL       50
REMARK 921   NORMALIZED FREE ENERGY PREDICTED BY IDOCK:   -4.89 KCAL/MOL
REMARK 922        TOTAL FREE ENERGY PREDICTED BY IDOCK:   -7.13 KCAL/MOL
REMARK 923 INTER-LIGAND FREE ENERGY PREDICTED BY IDOCK:   -6.82 KCAL/MOL
REMARK 924 INTRA-LIGAND FREE ENERGY PREDICTED BY IDOCK:   -0.32 KCAL/MOL
REMARK 927      BINDING AFFINITY PREDICTED BY RF-SCORE:    0.00 PKD
ROOT
HETATM    1  C   UNL     1     -10.149  19.532  68.448  1.00  0.00    -0.546 C  
HETATM    2  C   UNL     1      -9.696  18.070  68.453  1.00  0.00    -0.344 C  
ENDROOT
BRANCH   2   3
HETATM    3  N   UNL     1     -10.617  17.110  67.797  1.00  0.00    -0.364 NA 
BRANCH   3   4
HETATM    4  C   UNL     1     -10.590  17.264  66.333  1.00  0.00    -0.179 C  
HETATM    5  C   UNL     1     -10.212  16.030  65.523  1.00  0.00    -0.389 C  
ENDBRANCH   3   4
BRANCH   3   6
HETATM    6  C   UNL     1     -10.406  15.701  68.281  1.00  0.00    -0.244 C  
HETATM    7  C   UNL     1      -9.720  15.761  69.676  1.00  0.00    -0.248 C  
BRANCH   6   8
HETATM    8  C   UNL     1     -11.666  14.770  68.503  1.00  0.00    -0.317 C  
BRANCH   8   9
HETATM    9  N   UNL     1     -11.440  13.412  69.087  1.00  0.00    -0.283 NA 
HETATM   10  C   UNL     1     -12.085  13.133  70.329  1.00  0.00    -0.328 A  
HETATM   11  C   UNL     1     -12.500  14.153  71.214  1.00  0.00    -0.446 A  
HETATM   12  C   UNL     1     -13.343  13.904  72.303  1.00  0.00    -0.599 A  
HETATM   13  C   UNL     1     -13.767  12.613  72.566  1.00  0.00    -0.230 A  
HETATM   14  C   UNL     1     -13.272  11.571  71.794  1.00  0.00    -0.456 A  
HETATM   15  C   UNL     1     -12.405  11.815  70.711  1.00  0.00    -0.337 A  
HETATM   16  S   UNL     1     -11.798  10.372  69.880  1.00  0.00    -0.210 SA 
HETATM   17  C   UNL     1     -10.796  11.069  68.589  1.00  0.00    -0.215 A  
HETATM   18  C   UNL     1     -10.105  10.125  67.802  1.00  0.00    -0.216 A  
HETATM   19  C   UNL     1      -9.375  10.519  66.686  1.00  0.00    -0.186 A  
HETATM   20  C   UNL     1      -9.329  11.862  66.358  1.00  0.00    -0.233 A  
HETATM   21  C   UNL     1      -9.989  12.809  67.151  1.00  0.00    -0.218 A  
HETATM   22  C   UNL     1     -10.751  12.449  68.288  1.00  0.00    -0.230 A  
ENDBRANCH   8   9
ENDBRANCH   6   8
ENDBRANCH   3   6
ENDBRANCH   2   3
TORSDOF 5
ENDMDL
MODEL       51
REMARK 921   NORMALIZED FREE ENERGY PREDICTED BY IDOCK:   -4.87 KCAL/MOL
REMARK 922        TOTAL FREE ENERGY PREDICTED BY IDOCK:   -7.11 KCAL/MOL
REMARK 923 INTER-LIGAND FREE ENERGY PREDICTED BY IDOCK:   -6.51 KCAL/MOL
REMARK 924 INTRA-LIGAND FREE ENERGY PREDICTED BY IDOCK:   -0.60 KCAL/MOL
REMARK 927      BINDING AFFINITY PREDICTED BY RF-SCORE:    0.00 PKD
ROOT
HETATM    1  C   UNL     1      -9.937  14.321  65.558  1.00  0.00    -0.341 C  
HETATM    2  C   UNL     1     -10.017  12.959  66.253  1.00  0.00    -0.270 C  
ENDROOT
BRANCH   2   3
HETATM    3  N   UNL     1     -10.888  11.954  65.598  1.00  0.00    -0.278 NA 
BRANCH   3   4
HETATM    4  C   UNL     1     -11.040  12.239  64.162  1.00  0.00    -0.366 C  
HETATM    5  C   UNL     1     -12.437  12.077  63.577  1.00  0.00    -0.654 C  
ENDBRANCH   3   4
BRANCH   3   6
HETATM    6  C   UNL     1     -10.463  10.545  65.913  1.00  0.00    -0.153 C  
HETATM    7  C   UNL     1      -9.373  10.121  64.887  1.00  0.00    -0.310 C  
BRANCH   6   8
HETATM    8  C   UNL     1      -9.814  10.238  67.324  1.00  0.00    -0.182 C  
BRANCH   8   9
HETATM    9  N   UNL     1     -10.608   9.429  68.299  1.00  0.00    -0.224 NA 
HETATM   10  C   UNL     1     -10.465   8.011  68.222  1.00  0.00    -0.161 A  
HETATM   11  C   UNL     1     -10.023   7.356  67.050  1.00  0.00    -0.301 A  
HETATM   12  C   UNL     1      -9.647   6.008  67.041  1.00  0.00    -0.148 A  
HETATM   13  C   UNL     1      -9.739   5.258  68.201  1.00  0.00    -0.184 A  
HETATM   14  C   UNL     1     -10.291   5.838  69.336  1.00  0.00    -0.332 A  
HETATM   15  C   UNL     1     -10.693   7.187  69.342  1.00  0.00    -0.231 A  
HETATM   16  S   UNL     1     -11.454   7.749  70.841  1.00  0.00    -0.269 SA 
HETATM   17  C   UNL     1     -11.778   9.460  70.486  1.00  0.00    -0.198 A  
HETATM   18  C   UNL     1     -12.474  10.152  71.498  1.00  0.00    -0.526 A  
HETATM   19  C   UNL     1     -12.694  11.522  71.408  1.00  0.00    -0.469 A  
HETATM   20  C   UNL     1     -12.225  12.202  70.298  1.00  0.00    -0.344 A  
HETATM   21  C   UNL     1     -11.559  11.516  69.276  1.00  0.00    -0.388 A  
HETATM   22  C   UNL     1     -11.304  10.126  69.333  1.00  0.00    -0.178 A  
ENDBRANCH   8   9
ENDBRANCH   6   8
ENDBRANCH   3   6
ENDBRANCH   2   3
TORSDOF 5
ENDMDL
MODEL       52
REMARK 921   NORMALIZED FREE ENERGY PREDICTED BY IDOCK:   -4.87 KCAL/MOL
REMARK 922        TOTAL FREE ENERGY PREDICTED BY IDOCK:   -7.10 KCAL/MOL
REMARK 923 INTER-LIGAND FREE ENERGY PREDICTED BY IDOCK:   -6.58 KCAL/MOL
REMARK 924 INTRA-LIGAND FREE ENERGY PREDICTED BY IDOCK:   -0.52 KCAL/MOL
REMARK 927      BINDING AFFINITY PREDICTED BY RF-SCORE:    0.00 PKD
ROOT
HETATM    1  C   UNL     1     -10.478  19.682  66.281  1.00  0.00    -0.621 C  
HETATM    2  C   UNL     1     -10.630  18.367  65.511  1.00  0.00     0.048 C  
ENDROOT
BRANCH   2   3
HETATM    3  N   UNL     1      -9.597  17.340  65.784  1.00  0.00    -0.535 NA 
BRANCH   3   4
HETATM    4  C   UNL     1      -8.534  17.872  66.652  1.00  0.00    -0.258 C  
HETATM    5  C   UNL     1      -7.135  17.943  66.054  1.00  0.00    -0.340 C  
ENDBRANCH   3   4
BRANCH   3   6
HETATM    6  C   UNL     1     -10.199  16.044  66.257  1.00  0.00    -0.316 C  
HETATM    7  C   UNL     1     -10.837  15.326  65.034  1.00  0.00    -0.457 C  
BRANCH   6   8
HETATM    8  C   UNL     1      -9.254  14.951  66.904  1.00  0.00    -0.246 C  
BRANCH   8   9
HETATM    9  N   UNL     1      -9.884  13.893  67.751  1.00  0.00    -0.231 NA 
HETATM   10  C   UNL     1     -10.607  14.337  68.899  1.00  0.00    -0.245 A  
HETATM   11  C   UNL     1     -10.371  15.591  69.505  1.00  0.00    -0.271 A  
HETATM   12  C   UNL     1     -11.232  16.133  70.467  1.00  0.00    -0.381 A  
HETATM   13  C   UNL     1     -12.340  15.416  70.883  1.00  0.00    -0.452 A  
HETATM   14  C   UNL     1     -12.528  14.127  70.403  1.00  0.00    -0.424 A  
HETATM   15  C   UNL     1     -11.651  13.568  69.453  1.00  0.00    -0.312 A  
HETATM   16  S   UNL     1     -11.981  11.885  69.007  1.00  0.00    -0.204 SA 
HETATM   17  C   UNL     1     -10.722  11.558  67.796  1.00  0.00    -0.207 A  
HETATM   18  C   UNL     1     -10.693  10.233  67.317  1.00  0.00    -0.323 A  
HETATM   19  C   UNL     1      -9.838   9.862  66.284  1.00  0.00    -0.308 A  
HETATM   20  C   UNL     1      -9.003  10.818  65.734  1.00  0.00    -0.203 A  
HETATM   21  C   UNL     1      -9.006  12.130  66.223  1.00  0.00    -0.094 A  
HETATM   22  C   UNL     1      -9.867  12.551  67.263  1.00  0.00    -0.204 A  
ENDBRANCH   8   9
ENDBRANCH   6   8
ENDBRANCH   3   6
ENDBRANCH   2   3
TORSDOF 5
ENDMDL
MODEL       53
REMARK 921   NORMALIZED FREE ENERGY PREDICTED BY IDOCK:   -4.82 KCAL/MOL
REMARK 922        TOTAL FREE ENERGY PREDICTED BY IDOCK:   -7.04 KCAL/MOL
REMARK 923 INTER-LIGAND FREE ENERGY PREDICTED BY IDOCK:   -6.32 KCAL/MOL
REMARK 924 INTRA-LIGAND FREE ENERGY PREDICTED BY IDOCK:   -0.72 KCAL/MOL
REMARK 927      BINDING AFFINITY PREDICTED BY RF-SCORE:    0.00 PKD
ROOT
HETATM    1  C   UNL     1     -12.277  13.691  65.707  1.00  0.00    -0.503 C  
HETATM    2  C   UNL     1     -12.181  14.146  67.166  1.00  0.00    -0.313 C  
ENDROOT
BRANCH   2   3
HETATM    3  N   UNL     1     -10.941  13.759  67.879  1.00  0.00    -0.248 NA 
BRANCH   3   4
HETATM    4  C   UNL     1     -10.196  14.945  68.331  1.00  0.00    -0.231 C  
HETATM    5  C   UNL     1     -10.911  16.285  68.220  1.00  0.00    -0.348 C  
ENDBRANCH   3   4
BRANCH   3   6
HETATM    6  C   UNL     1     -11.201  12.738  68.953  1.00  0.00    -0.283 C  
HETATM    7  C   UNL     1     -12.184  13.356  69.988  1.00  0.00    -0.367 C  
BRANCH   6   8
HETATM    8  C   UNL     1     -11.867  11.358  68.555  1.00  0.00    -0.294 C  
BRANCH   8   9
HETATM    9  N   UNL     1     -11.005  10.136  68.563  1.00  0.00    -0.239 NA 
HETATM   10  C   UNL     1     -11.058   9.323  69.735  1.00  0.00    -0.150 A  
HETATM   11  C   UNL     1     -11.476   9.825  70.988  1.00  0.00    -0.458 A  
HETATM   12  C   UNL     1     -11.765   8.988  72.072  1.00  0.00    -0.417 A  
HETATM   13  C   UNL     1     -11.605   7.618  71.949  1.00  0.00    -0.321 A  
HETATM   14  C   UNL     1     -11.071   7.106  70.774  1.00  0.00    -0.296 A  
HETATM   15  C   UNL     1     -10.758   7.947  69.689  1.00  0.00    -0.218 A  
HETATM   16  S   UNL     1     -10.008   7.147  68.296  1.00  0.00    -0.162 SA 
HETATM   17  C   UNL     1      -9.802   8.490  67.151  1.00  0.00    -0.206 A  
HETATM   18  C   UNL     1      -9.135   8.151  65.956  1.00  0.00    -0.218 A  
HETATM   19  C   UNL     1      -9.005   9.071  64.921  1.00  0.00    -0.170 A  
HETATM   20  C   UNL     1      -9.537  10.338  65.085  1.00  0.00    -0.337 A  
HETATM   21  C   UNL     1     -10.175  10.691  66.280  1.00  0.00    -0.304 A  
HETATM   22  C   UNL     1     -10.338   9.783  67.351  1.00  0.00    -0.240 A  
ENDBRANCH   8   9
ENDBRANCH   6   8
ENDBRANCH   3   6
ENDBRANCH   2   3
TORSDOF 5
ENDMDL
MODEL       54
REMARK 921   NORMALIZED FREE ENERGY PREDICTED BY IDOCK:   -4.80 KCAL/MOL
REMARK 922        TOTAL FREE ENERGY PREDICTED BY IDOCK:   -7.02 KCAL/MOL
REMARK 923 INTER-LIGAND FREE ENERGY PREDICTED BY IDOCK:   -6.72 KCAL/MOL
REMARK 924 INTRA-LIGAND FREE ENERGY PREDICTED BY IDOCK:   -0.30 KCAL/MOL
REMARK 927      BINDING AFFINITY PREDICTED BY RF-SCORE:    0.00 PKD
ROOT
HETATM    1  C   UNL     1     -10.684  11.883  63.378  1.00  0.00    -0.476 C  
HETATM    2  C   UNL     1     -11.388  13.123  63.937  1.00  0.00    -0.374 C  
ENDROOT
BRANCH   2   3
HETATM    3  N   UNL     1     -10.710  13.787  65.077  1.00  0.00    -0.358 NA 
BRANCH   3   4
HETATM    4  C   UNL     1     -11.459  14.973  65.522  1.00  0.00    -0.265 C  
HETATM    5  C   UNL     1     -10.775  16.322  65.338  1.00  0.00    -0.342 C  
ENDBRANCH   3   4
BRANCH   3   6
HETATM    6  C   UNL     1     -10.366  12.817  66.174  1.00  0.00    -0.269 C  
HETATM    7  C   UNL     1      -9.567  13.581  67.269  1.00  0.00    -0.235 C  
BRANCH   6   8
HETATM    8  C   UNL     1     -11.539  12.109  66.967  1.00  0.00    -0.337 C  
BRANCH   8   9
HETATM    9  N   UNL     1     -11.176  11.241  68.129  1.00  0.00    -0.261 NA 
HETATM   10  C   UNL     1     -11.658  11.651  69.409  1.00  0.00    -0.327 A  
HETATM   11  C   UNL     1     -12.022  12.986  69.691  1.00  0.00    -0.367 A  
HETATM   12  C   UNL     1     -12.720  13.344  70.851  1.00  0.00    -0.349 A  
HETATM   13  C   UNL     1     -13.042  12.378  71.788  1.00  0.00    -0.446 A  
HETATM   14  C   UNL     1     -12.585  11.080  71.603  1.00  0.00    -0.402 A  
HETATM   15  C   UNL     1     -11.862  10.721  70.449  1.00  0.00    -0.358 A  
HETATM   16  S   UNL     1     -11.280   9.048  70.404  1.00  0.00    -0.211 SA 
HETATM   17  C   UNL     1     -10.471   8.967  68.824  1.00  0.00    -0.206 A  
HETATM   18  C   UNL     1      -9.826   7.744  68.552  1.00  0.00    -0.181 A  
HETATM   19  C   UNL     1      -9.252   7.497  67.310  1.00  0.00    -0.152 A  
HETATM   20  C   UNL     1      -9.314   8.480  66.338  1.00  0.00    -0.273 A  
HETATM   21  C   UNL     1      -9.928   9.709  66.611  1.00  0.00    -0.301 A  
HETATM   22  C   UNL     1     -10.534   9.996  67.856  1.00  0.00    -0.231 A  
ENDBRANCH   8   9
ENDBRANCH   6   8
ENDBRANCH   3   6
ENDBRANCH   2   3
TORSDOF 5
ENDMDL
MODEL       55
REMARK 921   NORMALIZED FREE ENERGY PREDICTED BY IDOCK:   -4.78 KCAL/MOL
REMARK 922        TOTAL FREE ENERGY PREDICTED BY IDOCK:   -7.00 KCAL/MOL
REMARK 923 INTER-LIGAND FREE ENERGY PREDICTED BY IDOCK:   -6.75 KCAL/MOL
REMARK 924 INTRA-LIGAND FREE ENERGY PREDICTED BY IDOCK:   -0.25 KCAL/MOL
REMARK 927      BINDING AFFINITY PREDICTED BY RF-SCORE:    0.00 PKD
ROOT
HETATM    1  C   UNL     1      -7.659  11.251  66.781  1.00  0.00    -0.151 C  
HETATM    2  C   UNL     1      -8.316   9.869  66.736  1.00  0.00    -0.125 C  
ENDROOT
BRANCH   2   3
HETATM    3  N   UNL     1      -9.716   9.839  66.246  1.00  0.00    -0.216 NA 
BRANCH   3   4
HETATM    4  C   UNL     1     -10.580   9.070  67.156  1.00  0.00    -0.220 C  
HETATM    5  C   UNL     1     -10.551   7.554  67.009  1.00  0.00    -0.409 C  
ENDBRANCH   3   4
BRANCH   3   6
HETATM    6  C   UNL     1     -10.228  11.214  65.911  1.00  0.00    -0.251 C  
HETATM    7  C   UNL     1     -10.596  11.243  64.400  1.00  0.00    -0.410 C  
BRANCH   6   8
HETATM    8  C   UNL     1     -11.527  11.747  66.641  1.00  0.00    -0.267 C  
BRANCH   8   9
HETATM    9  N   UNL     1     -11.352  12.739  67.747  1.00  0.00    -0.275 NA 
HETATM   10  C   UNL     1     -10.870  14.031  67.378  1.00  0.00    -0.282 A  
HETATM   11  C   UNL     1     -10.144  14.258  66.188  1.00  0.00    -0.325 A  
HETATM   12  C   UNL     1      -9.885  15.545  65.701  1.00  0.00    -0.377 A  
HETATM   13  C   UNL     1     -10.313  16.651  66.414  1.00  0.00    -0.310 A  
HETATM   14  C   UNL     1     -10.915  16.464  67.652  1.00  0.00    -0.225 A  
HETATM   15  C   UNL     1     -11.156  15.171  68.156  1.00  0.00    -0.304 A  
HETATM   16  S   UNL     1     -11.854  15.105  69.783  1.00  0.00    -0.354 SA 
HETATM   17  C   UNL     1     -12.041  13.358  70.048  1.00  0.00    -0.334 A  
HETATM   18  C   UNL     1     -12.509  13.000  71.328  1.00  0.00    -0.315 A  
HETATM   19  C   UNL     1     -12.812  11.679  71.638  1.00  0.00    -0.454 A  
HETATM   20  C   UNL     1     -12.638  10.709  70.666  1.00  0.00    -0.454 A  
HETATM   21  C   UNL     1     -12.146  11.052  69.401  1.00  0.00    -0.389 A  
HETATM   22  C   UNL     1     -11.837  12.385  69.042  1.00  0.00    -0.300 A  
ENDBRANCH   8   9
ENDBRANCH   6   8
ENDBRANCH   3   6
ENDBRANCH   2   3
TORSDOF 5
ENDMDL
MODEL       56
REMARK 921   NORMALIZED FREE ENERGY PREDICTED BY IDOCK:   -4.78 KCAL/MOL
REMARK 922        TOTAL FREE ENERGY PREDICTED BY IDOCK:   -6.99 KCAL/MOL
REMARK 923 INTER-LIGAND FREE ENERGY PREDICTED BY IDOCK:   -6.56 KCAL/MOL
REMARK 924 INTRA-LIGAND FREE ENERGY PREDICTED BY IDOCK:   -0.43 KCAL/MOL
REMARK 927      BINDING AFFINITY PREDICTED BY RF-SCORE:    0.00 PKD
ROOT
HETATM    1  C   UNL     1     -12.548  13.806  65.273  1.00  0.00    -0.510 C  
HETATM    2  C   UNL     1     -11.439  13.934  66.322  1.00  0.00    -0.339 C  
ENDROOT
BRANCH   2   3
HETATM    3  N   UNL     1     -11.854  14.498  67.629  1.00  0.00    -0.378 NA 
BRANCH   3   4
HETATM    4  C   UNL     1     -12.149  13.431  68.598  1.00  0.00    -0.246 C  
HETATM    5  C   UNL     1     -11.612  12.043  68.271  1.00  0.00    -0.394 C  
ENDBRANCH   3   4
BRANCH   3   6
HETATM    6  C   UNL     1     -10.893  15.544  68.125  1.00  0.00    -0.296 C  
HETATM    7  C   UNL     1     -10.851  15.473  69.678  1.00  0.00    -0.285 C  
BRANCH   6   8
HETATM    8  C   UNL     1      -9.374  15.459  67.688  1.00  0.00    -0.203 C  
BRANCH   8   9
HETATM    9  N   UNL     1      -8.530  16.684  67.843  1.00  0.00    -0.191 NA 
HETATM   10  C   UNL     1      -9.023  17.881  67.242  1.00  0.00    -0.250 A  
HETATM   11  C   UNL     1      -9.952  17.869  66.177  1.00  0.00    -0.288 A  
HETATM   12  C   UNL     1     -10.620  19.023  65.752  1.00  0.00    -0.388 A  
HETATM   13  C   UNL     1     -10.350  20.239  66.355  1.00  0.00    -0.412 A  
HETATM   14  C   UNL     1      -9.349  20.307  67.315  1.00  0.00    -0.538 A  
HETATM   15  C   UNL     1      -8.657  19.152  67.729  1.00  0.00    -0.301 A  
HETATM   16  S   UNL     1      -7.354  19.422  68.899  1.00  0.00    -0.360 SA 
HETATM   17  C   UNL     1      -6.761  17.774  69.197  1.00  0.00    -0.239 A  
HETATM   18  C   UNL     1      -5.640  17.693  70.047  1.00  0.00    -0.247 A  
HETATM   19  C   UNL     1      -5.140  16.463  70.461  1.00  0.00    -0.201 A  
HETATM   20  C   UNL     1      -5.758  15.308  70.015  1.00  0.00    -0.131 A  
HETATM   21  C   UNL     1      -6.854  15.380  69.148  1.00  0.00    -0.144 A  
HETATM   22  C   UNL     1      -7.400  16.609  68.713  1.00  0.00    -0.220 A  
ENDBRANCH   8   9
ENDBRANCH   6   8
ENDBRANCH   3   6
ENDBRANCH   2   3
TORSDOF 5
ENDMDL
MODEL       57
REMARK 921   NORMALIZED FREE ENERGY PREDICTED BY IDOCK:   -4.77 KCAL/MOL
REMARK 922        TOTAL FREE ENERGY PREDICTED BY IDOCK:   -6.98 KCAL/MOL
REMARK 923 INTER-LIGAND FREE ENERGY PREDICTED BY IDOCK:   -6.56 KCAL/MOL
REMARK 924 INTRA-LIGAND FREE ENERGY PREDICTED BY IDOCK:   -0.43 KCAL/MOL
REMARK 927      BINDING AFFINITY PREDICTED BY RF-SCORE:    0.00 PKD
ROOT
HETATM    1  C   UNL     1     -10.761   8.540  72.130  1.00  0.00    -0.426 C  
HETATM    2  C   UNL     1     -11.286   8.702  70.701  1.00  0.00    -0.247 C  
ENDROOT
BRANCH   2   3
HETATM    3  N   UNL     1     -10.340   9.308  69.734  1.00  0.00    -0.207 NA 
BRANCH   3   4
HETATM    4  C   UNL     1      -9.707   8.279  68.893  1.00  0.00    -0.164 C  
HETATM    5  C   UNL     1     -10.614   7.543  67.915  1.00  0.00    -0.250 C  
ENDBRANCH   3   4
BRANCH   3   6
HETATM    6  C   UNL     1     -10.963  10.443  68.968  1.00  0.00    -0.238 C  
HETATM    7  C   UNL     1     -12.121  11.034  69.824  1.00  0.00    -0.424 C  
BRANCH   6   8
HETATM    8  C   UNL     1     -10.072  11.697  68.595  1.00  0.00    -0.198 C  
BRANCH   8   9
HETATM    9  N   UNL     1     -10.535  12.580  67.480  1.00  0.00    -0.218 NA 
HETATM   10  C   UNL     1     -10.889  13.918  67.828  1.00  0.00    -0.250 A  
HETATM   11  C   UNL     1     -11.262  14.288  69.139  1.00  0.00    -0.302 A  
HETATM   12  C   UNL     1     -11.370  15.625  69.539  1.00  0.00    -0.329 A  
HETATM   13  C   UNL     1     -11.145  16.639  68.625  1.00  0.00    -0.294 A  
HETATM   14  C   UNL     1     -10.905  16.309  67.298  1.00  0.00    -0.216 A  
HETATM   15  C   UNL     1     -10.819  14.965  66.886  1.00  0.00    -0.319 A  
HETATM   16  S   UNL     1     -10.591  14.713  65.147  1.00  0.00    -0.441 SA 
HETATM   17  C   UNL     1     -10.495  12.942  65.027  1.00  0.00    -0.318 A  
HETATM   18  C   UNL     1     -10.396  12.443  63.712  1.00  0.00    -0.454 A  
HETATM   19  C   UNL     1     -10.198  11.088  63.473  1.00  0.00    -0.424 A  
HETATM   20  C   UNL     1     -10.107  10.226  64.552  1.00  0.00    -0.286 A  
HETATM   21  C   UNL     1     -10.233  10.711  65.860  1.00  0.00    -0.314 A  
HETATM   22  C   UNL     1     -10.424  12.082  66.147  1.00  0.00    -0.236 A  
ENDBRANCH   8   9
ENDBRANCH   6   8
ENDBRANCH   3   6
ENDBRANCH   2   3
TORSDOF 5
ENDMDL
MODEL       58
REMARK 921   NORMALIZED FREE ENERGY PREDICTED BY IDOCK:   -4.73 KCAL/MOL
REMARK 922        TOTAL FREE ENERGY PREDICTED BY IDOCK:   -6.93 KCAL/MOL
REMARK 923 INTER-LIGAND FREE ENERGY PREDICTED BY IDOCK:   -6.00 KCAL/MOL
REMARK 924 INTRA-LIGAND FREE ENERGY PREDICTED BY IDOCK:   -0.93 KCAL/MOL
REMARK 927      BINDING AFFINITY PREDICTED BY RF-SCORE:    0.00 PKD
ROOT
HETATM    1  C   UNL     1     -11.511   8.231  71.313  1.00  0.00    -0.314 C  
HETATM    2  C   UNL     1     -10.803   9.542  70.959  1.00  0.00    -0.353 C  
ENDROOT
BRANCH   2   3
HETATM    3  N   UNL     1     -10.328   9.657  69.560  1.00  0.00    -0.207 NA 
BRANCH   3   4
HETATM    4  C   UNL     1     -10.399   8.361  68.866  1.00  0.00    -0.215 C  
HETATM    5  C   UNL     1     -10.585   8.403  67.355  1.00  0.00    -0.313 C  
ENDBRANCH   3   4
BRANCH   3   6
HETATM    6  C   UNL     1     -10.990  10.793  68.828  1.00  0.00    -0.247 C  
HETATM    7  C   UNL     1     -11.880  11.573  69.839  1.00  0.00    -0.430 C  
BRANCH   6   8
HETATM    8  C   UNL     1     -10.085  11.908  68.162  1.00  0.00    -0.198 C  
BRANCH   8   9
HETATM    9  N   UNL     1      -9.607  11.679  66.764  1.00  0.00    -0.189 NA 
HETATM   10  C   UNL     1      -8.312  11.097  66.617  1.00  0.00    -0.160 A  
HETATM   11  C   UNL     1      -7.330  11.166  67.629  1.00  0.00    -0.095 A  
HETATM   12  C   UNL     1      -6.161  10.397  67.594  1.00  0.00    -0.056 A  
HETATM   13  C   UNL     1      -5.918   9.559  66.520  1.00  0.00    -0.059 A  
HETATM   14  C   UNL     1      -6.800   9.567  65.447  1.00  0.00    -0.086 A  
HETATM   15  C   UNL     1      -7.966  10.357  65.468  1.00  0.00    -0.153 A  
HETATM   16  S   UNL     1      -8.941  10.317  63.989  1.00  0.00    -0.258 SA 
HETATM   17  C   UNL     1     -10.306  11.378  64.403  1.00  0.00    -0.320 A  
HETATM   18  C   UNL     1     -11.220  11.601  63.354  1.00  0.00    -0.401 A  
HETATM   19  C   UNL     1     -12.394  12.315  63.566  1.00  0.00    -0.670 A  
HETATM   20  C   UNL     1     -12.652  12.815  64.831  1.00  0.00    -0.541 A  
HETATM   21  C   UNL     1     -11.735  12.622  65.870  1.00  0.00    -0.470 A  
HETATM   22  C   UNL     1     -10.535  11.893  65.699  1.00  0.00    -0.262 A  
ENDBRANCH   8   9
ENDBRANCH   6   8
ENDBRANCH   3   6
ENDBRANCH   2   3
TORSDOF 5
ENDMDL
MODEL       59
REMARK 921   NORMALIZED FREE ENERGY PREDICTED BY IDOCK:   -4.73 KCAL/MOL
REMARK 922        TOTAL FREE ENERGY PREDICTED BY IDOCK:   -6.92 KCAL/MOL
REMARK 923 INTER-LIGAND FREE ENERGY PREDICTED BY IDOCK:   -6.49 KCAL/MOL
REMARK 924 INTRA-LIGAND FREE ENERGY PREDICTED BY IDOCK:   -0.44 KCAL/MOL
REMARK 927      BINDING AFFINITY PREDICTED BY RF-SCORE:    0.00 PKD
ROOT
HETATM    1  C   UNL     1     -12.008   9.441  71.645  1.00  0.00    -0.465 C  
HETATM    2  C   UNL     1     -12.080  10.381  70.439  1.00  0.00    -0.315 C  
ENDROOT
BRANCH   2   3
HETATM    3  N   UNL     1     -10.862  10.437  69.596  1.00  0.00    -0.259 NA 
BRANCH   3   4
HETATM    4  C   UNL     1     -10.524   9.108  69.060  1.00  0.00    -0.221 C  
HETATM    5  C   UNL     1      -9.135   8.573  69.383  1.00  0.00    -0.150 C  
ENDBRANCH   3   4
BRANCH   3   6
HETATM    6  C   UNL     1     -10.939  11.527  68.561  1.00  0.00    -0.223 C  
HETATM    7  C   UNL     1     -11.514  12.804  69.237  1.00  0.00    -0.349 C  
BRANCH   6   8
HETATM    8  C   UNL     1      -9.606  12.018  67.864  1.00  0.00    -0.196 C  
BRANCH   8   9
HETATM    9  N   UNL     1      -9.684  13.210  66.964  1.00  0.00    -0.234 NA 
HETATM   10  C   UNL     1     -10.362  13.030  65.720  1.00  0.00    -0.286 A  
HETATM   11  C   UNL     1     -10.528  11.760  65.124  1.00  0.00    -0.330 A  
HETATM   12  C   UNL     1     -11.394  11.546  64.045  1.00  0.00    -0.380 A  
HETATM   13  C   UNL     1     -12.095  12.608  63.501  1.00  0.00    -0.648 A  
HETATM   14  C   UNL     1     -11.854  13.889  63.980  1.00  0.00    -0.372 A  
HETATM   15  C   UNL     1     -10.966  14.112  65.049  1.00  0.00    -0.384 A  
HETATM   16  S   UNL     1     -10.707  15.811  65.484  1.00  0.00    -0.372 SA 
HETATM   17  C   UNL     1      -9.587  15.686  66.859  1.00  0.00    -0.230 A  
HETATM   18  C   UNL     1      -9.134  16.921  67.365  1.00  0.00    -0.221 A  
HETATM   19  C   UNL     1      -8.346  16.980  68.510  1.00  0.00    -0.260 A  
HETATM   20  C   UNL     1      -8.003  15.800  69.146  1.00  0.00    -0.231 A  
HETATM   21  C   UNL     1      -8.426  14.568  68.632  1.00  0.00    -0.161 A  
HETATM   22  C   UNL     1      -9.237  14.464  67.478  1.00  0.00    -0.200 A  
ENDBRANCH   8   9
ENDBRANCH   6   8
ENDBRANCH   3   6
ENDBRANCH   2   3
TORSDOF 5
ENDMDL
MODEL       60
REMARK 921   NORMALIZED FREE ENERGY PREDICTED BY IDOCK:   -4.70 KCAL/MOL
REMARK 922        TOTAL FREE ENERGY PREDICTED BY IDOCK:   -6.90 KCAL/MOL
REMARK 923 INTER-LIGAND FREE ENERGY PREDICTED BY IDOCK:   -6.73 KCAL/MOL
REMARK 924 INTRA-LIGAND FREE ENERGY PREDICTED BY IDOCK:   -0.16 KCAL/MOL
REMARK 927      BINDING AFFINITY PREDICTED BY RF-SCORE:    0.00 PKD
ROOT
HETATM    1  C   UNL     1     -10.509  16.761  67.809  1.00  0.00    -0.335 C  
HETATM    2  C   UNL     1     -10.525  16.070  69.175  1.00  0.00    -0.251 C  
ENDROOT
BRANCH   2   3
HETATM    3  N   UNL     1     -10.912  14.639  69.166  1.00  0.00    -0.254 NA 
BRANCH   3   4
HETATM    4  C   UNL     1     -12.101  14.405  70.001  1.00  0.00    -0.343 C  
HETATM    5  C   UNL     1     -12.142  15.116  71.348  1.00  0.00    -0.397 C  
ENDBRANCH   3   4
BRANCH   3   6
HETATM    6  C   UNL     1     -11.011  14.088  67.769  1.00  0.00    -0.258 C  
HETATM    7  C   UNL     1      -9.658  13.406  67.415  1.00  0.00    -0.223 C  
BRANCH   6   8
HETATM    8  C   UNL     1     -12.100  12.982  67.457  1.00  0.00    -0.224 C  
BRANCH   8   9
HETATM    9  N   UNL     1     -11.624  11.607  67.114  1.00  0.00    -0.547 NA 
HETATM   10  C   UNL     1     -11.227  11.385  65.761  1.00  0.00    -0.090 A  
HETATM   11  C   UNL     1     -11.681  12.194  64.696  1.00  0.00    -0.400 A  
HETATM   12  C   UNL     1     -11.112  12.140  63.418  1.00  0.00    -0.495 A  
HETATM   13  C   UNL     1     -10.092  11.243  63.154  1.00  0.00    -0.385 A  
HETATM   14  C   UNL     1      -9.712  10.345  64.143  1.00  0.00    -0.387 A  
HETATM   15  C   UNL     1     -10.299  10.380  65.423  1.00  0.00    -0.200 A  
HETATM   16  S   UNL     1      -9.765   9.114  66.542  1.00  0.00    -0.262 SA 
HETATM   17  C   UNL     1     -10.673   9.502  68.019  1.00  0.00    -0.212 A  
HETATM   18  C   UNL     1     -10.502   8.586  69.076  1.00  0.00    -0.216 A  
HETATM   19  C   UNL     1     -11.059   8.823  70.328  1.00  0.00    -0.240 A  
HETATM   20  C   UNL     1     -11.798   9.977  70.522  1.00  0.00    -0.387 A  
HETATM   21  C   UNL     1     -11.996  10.878  69.468  1.00  0.00    -0.401 A  
HETATM   22  C   UNL     1     -11.438  10.680  68.184  1.00  0.00    -0.228 A  
ENDBRANCH   8   9
ENDBRANCH   6   8
ENDBRANCH   3   6
ENDBRANCH   2   3
TORSDOF 5
ENDMDL
MODEL       61
REMARK 921   NORMALIZED FREE ENERGY PREDICTED BY IDOCK:   -4.69 KCAL/MOL
REMARK 922        TOTAL FREE ENERGY PREDICTED BY IDOCK:   -6.88 KCAL/MOL
REMARK 923 INTER-LIGAND FREE ENERGY PREDICTED BY IDOCK:   -6.11 KCAL/MOL
REMARK 924 INTRA-LIGAND FREE ENERGY PREDICTED BY IDOCK:   -0.77 KCAL/MOL
REMARK 927      BINDING AFFINITY PREDICTED BY RF-SCORE:    0.00 PKD
ROOT
HETATM    1  C   UNL     1      -7.073   9.854  65.302  1.00  0.00    -0.130 C  
HETATM    2  C   UNL     1      -8.531   9.518  64.978  1.00  0.00    -0.154 C  
ENDROOT
BRANCH   2   3
HETATM    3  N   UNL     1      -9.532  10.528  65.400  1.00  0.00    -0.205 NA 
BRANCH   3   4
HETATM    4  C   UNL     1     -10.420  10.893  64.285  1.00  0.00    -0.335 C  
HETATM    5  C   UNL     1      -9.842  11.826  63.228  1.00  0.00    -0.402 C  
ENDBRANCH   3   4
BRANCH   3   6
HETATM    6  C   UNL     1     -10.246  10.125  66.662  1.00  0.00    -0.224 C  
HETATM    7  C   UNL     1     -10.341   8.572  66.695  1.00  0.00    -0.303 C  
BRANCH   6   8
HETATM    8  C   UNL     1      -9.610  10.508  68.059  1.00  0.00    -0.148 C  
BRANCH   8   9
HETATM    9  N   UNL     1     -10.253  11.607  68.844  1.00  0.00    -0.170 NA 
HETATM   10  C   UNL     1     -10.013  12.940  68.394  1.00  0.00    -0.211 A  
HETATM   11  C   UNL     1      -8.896  13.284  67.602  1.00  0.00    -0.200 A  
HETATM   12  C   UNL     1      -8.785  14.522  66.958  1.00  0.00    -0.256 A  
HETATM   13  C   UNL     1      -9.776  15.474  67.119  1.00  0.00    -0.226 A  
HETATM   14  C   UNL     1     -10.822  15.216  67.995  1.00  0.00    -0.284 A  
HETATM   15  C   UNL     1     -10.925  13.981  68.663  1.00  0.00    -0.263 A  
HETATM   16  S   UNL     1     -12.270  13.843  69.808  1.00  0.00    -0.294 SA 
HETATM   17  C   UNL     1     -12.093  12.179  70.406  1.00  0.00    -0.309 A  
HETATM   18  C   UNL     1     -13.004  11.814  71.418  1.00  0.00    -0.408 A  
HETATM   19  C   UNL     1     -13.058  10.510  71.898  1.00  0.00    -0.567 A  
HETATM   20  C   UNL     1     -12.192   9.568  71.370  1.00  0.00    -0.455 A  
HETATM   21  C   UNL     1     -11.266   9.930  70.385  1.00  0.00    -0.379 A  
HETATM   22  C   UNL     1     -11.186  11.241  69.862  1.00  0.00    -0.187 A  
ENDBRANCH   8   9
ENDBRANCH   6   8
ENDBRANCH   3   6
ENDBRANCH   2   3
TORSDOF 5
ENDMDL
MODEL       62
REMARK 921   NORMALIZED FREE ENERGY PREDICTED BY IDOCK:   -4.68 KCAL/MOL
REMARK 922        TOTAL FREE ENERGY PREDICTED BY IDOCK:   -6.86 KCAL/MOL
REMARK 923 INTER-LIGAND FREE ENERGY PREDICTED BY IDOCK:   -6.60 KCAL/MOL
REMARK 924 INTRA-LIGAND FREE ENERGY PREDICTED BY IDOCK:   -0.26 KCAL/MOL
REMARK 927      BINDING AFFINITY PREDICTED BY RF-SCORE:    0.00 PKD
ROOT
HETATM    1  C   UNL     1     -12.116  13.456  63.784  1.00  0.00    -0.516 C  
HETATM    2  C   UNL     1     -11.131  13.887  64.874  1.00  0.00    -0.369 C  
ENDROOT
BRANCH   2   3
HETATM    3  N   UNL     1     -11.679  13.940  66.250  1.00  0.00    -0.365 NA 
BRANCH   3   4
HETATM    4  C   UNL     1     -11.659  12.611  66.882  1.00  0.00    -0.373 C  
HETATM    5  C   UNL     1     -10.585  11.643  66.403  1.00  0.00    -0.299 C  
ENDBRANCH   3   4
BRANCH   3   6
HETATM    6  C   UNL     1     -11.046  15.031  67.071  1.00  0.00    -0.334 C  
HETATM    7  C   UNL     1     -11.293  14.717  68.574  1.00  0.00    -0.309 C  
BRANCH   6   8
HETATM    8  C   UNL     1      -9.483  15.257  66.969  1.00  0.00    -0.223 C  
BRANCH   8   9
HETATM    9  N   UNL     1      -8.900  16.446  67.665  1.00  0.00    -0.187 NA 
HETATM   10  C   UNL     1      -7.899  16.184  68.648  1.00  0.00    -0.188 A  
HETATM   11  C   UNL     1      -7.781  14.935  69.298  1.00  0.00    -0.166 A  
HETATM   12  C   UNL     1      -6.665  14.595  70.071  1.00  0.00    -0.135 A  
HETATM   13  C   UNL     1      -5.645  15.511  70.252  1.00  0.00    -0.147 A  
HETATM   14  C   UNL     1      -5.791  16.792  69.735  1.00  0.00    -0.214 A  
HETATM   15  C   UNL     1      -6.923  17.147  68.976  1.00  0.00    -0.235 A  
HETATM   16  S   UNL     1      -6.995  18.841  68.461  1.00  0.00    -0.274 SA 
HETATM   17  C   UNL     1      -8.505  18.890  67.524  1.00  0.00    -0.274 A  
HETATM   18  C   UNL     1      -8.865  20.168  67.052  1.00  0.00    -0.439 A  
HETATM   19  C   UNL     1      -9.958  20.339  66.209  1.00  0.00    -0.474 A  
HETATM   20  C   UNL     1     -10.699  19.228  65.843  1.00  0.00    -0.463 A  
HETATM   21  C   UNL     1     -10.363  17.960  66.332  1.00  0.00    -0.365 A  
HETATM   22  C   UNL     1      -9.254  17.742  67.181  1.00  0.00    -0.253 A  
ENDBRANCH   8   9
ENDBRANCH   6   8
ENDBRANCH   3   6
ENDBRANCH   2   3
TORSDOF 5
ENDMDL
MODEL       63
REMARK 921   NORMALIZED FREE ENERGY PREDICTED BY IDOCK:   -4.67 KCAL/MOL
REMARK 922        TOTAL FREE ENERGY PREDICTED BY IDOCK:   -6.85 KCAL/MOL
REMARK 923 INTER-LIGAND FREE ENERGY PREDICTED BY IDOCK:   -6.70 KCAL/MOL
REMARK 924 INTRA-LIGAND FREE ENERGY PREDICTED BY IDOCK:   -0.15 KCAL/MOL
REMARK 927      BINDING AFFINITY PREDICTED BY RF-SCORE:    0.00 PKD
ROOT
HETATM    1  C   UNL     1     -12.616   9.623  71.080  1.00  0.00    -0.367 C  
HETATM    2  C   UNL     1     -12.830  10.904  70.269  1.00  0.00    -0.142 C  
ENDROOT
BRANCH   2   3
HETATM    3  N   UNL     1     -11.607  11.689  69.974  1.00  0.00    -0.285 NA 
BRANCH   3   4
HETATM    4  C   UNL     1     -10.599  10.865  69.287  1.00  0.00    -0.217 C  
HETATM    5  C   UNL     1     -11.039  10.182  67.997  1.00  0.00    -0.302 C  
ENDBRANCH   3   4
BRANCH   3   6
HETATM    6  C   UNL     1     -11.921  12.991  69.289  1.00  0.00    -0.278 C  
HETATM    7  C   UNL     1     -12.525  13.964  70.341  1.00  0.00    -0.404 C  
BRANCH   6   8
HETATM    8  C   UNL     1     -10.741  13.813  68.627  1.00  0.00    -0.256 C  
BRANCH   8   9
HETATM    9  N   UNL     1     -11.072  14.715  67.481  1.00  0.00    -0.302 NA 
HETATM   10  C   UNL     1     -10.751  16.097  67.639  1.00  0.00    -0.318 A  
HETATM   11  C   UNL     1     -10.595  16.698  68.908  1.00  0.00    -0.337 A  
HETATM   12  C   UNL     1     -10.044  17.975  69.069  1.00  0.00    -0.301 A  
HETATM   13  C   UNL     1      -9.667  18.710  67.959  1.00  0.00    -0.355 A  
HETATM   14  C   UNL     1      -9.928  18.200  66.694  1.00  0.00    -0.363 A  
HETATM   15  C   UNL     1     -10.503  16.926  66.526  1.00  0.00    -0.253 A  
HETATM   16  S   UNL     1     -10.848  16.458  64.852  1.00  0.00    -0.083 SA 
HETATM   17  C   UNL     1     -11.514  14.822  65.042  1.00  0.00    -0.389 A  
HETATM   18  C   UNL     1     -11.964  14.224  63.847  1.00  0.00    -0.219 A  
HETATM   19  C   UNL     1     -12.401  12.904  63.827  1.00  0.00    -0.500 A  
HETATM   20  C   UNL     1     -12.397  12.181  65.006  1.00  0.00    -0.196 A  
HETATM   21  C   UNL     1     -11.979  12.777  66.202  1.00  0.00    -0.476 A  
HETATM   22  C   UNL     1     -11.517  14.112  66.265  1.00  0.00    -0.352 A  
ENDBRANCH   8   9
ENDBRANCH   6   8
ENDBRANCH   3   6
ENDBRANCH   2   3
TORSDOF 5
ENDMDL
MODEL       64
REMARK 921   NORMALIZED FREE ENERGY PREDICTED BY IDOCK:   -4.63 KCAL/MOL
REMARK 922        TOTAL FREE ENERGY PREDICTED BY IDOCK:   -6.80 KCAL/MOL
REMARK 923 INTER-LIGAND FREE ENERGY PREDICTED BY IDOCK:   -6.59 KCAL/MOL
REMARK 924 INTRA-LIGAND FREE ENERGY PREDICTED BY IDOCK:   -0.21 KCAL/MOL
REMARK 927      BINDING AFFINITY PREDICTED BY RF-SCORE:    0.00 PKD
ROOT
HETATM    1  C   UNL     1      -8.565  19.216  68.619  1.00  0.00    -0.396 C  
HETATM    2  C   UNL     1      -9.912  18.509  68.789  1.00  0.00    -0.380 C  
ENDROOT
BRANCH   2   3
HETATM    3  N   UNL     1     -10.419  17.796  67.592  1.00  0.00    -0.378 NA 
BRANCH   3   4
HETATM    4  C   UNL     1      -9.920  18.416  66.354  1.00  0.00    -0.386 C  
HETATM    5  C   UNL     1     -10.727  19.584  65.801  1.00  0.00    -0.490 C  
ENDBRANCH   3   4
BRANCH   3   6
HETATM    6  C   UNL     1     -10.195  16.311  67.680  1.00  0.00    -0.272 C  
HETATM    7  C   UNL     1     -11.531  15.640  68.112  1.00  0.00    -0.325 C  
BRANCH   6   8
HETATM    8  C   UNL     1      -9.763  15.522  66.378  1.00  0.00    -0.283 C  
BRANCH   8   9
HETATM    9  N   UNL     1      -9.685  14.030  66.456  1.00  0.00    -0.286 NA 
HETATM   10  C   UNL     1     -10.525  13.298  65.564  1.00  0.00    -0.288 A  
HETATM   11  C   UNL     1     -11.692  13.853  64.993  1.00  0.00    -0.365 A  
HETATM   12  C   UNL     1     -12.377  13.236  63.939  1.00  0.00    -0.422 A  
HETATM   13  C   UNL     1     -11.937  12.020  63.447  1.00  0.00    -0.571 A  
HETATM   14  C   UNL     1     -10.871  11.386  64.073  1.00  0.00    -0.450 A  
HETATM   15  C   UNL     1     -10.194  11.992  65.149  1.00  0.00    -0.276 A  
HETATM   16  S   UNL     1      -8.912  11.017  65.889  1.00  0.00    -0.195 SA 
HETATM   17  C   UNL     1      -8.286  12.103  67.148  1.00  0.00    -0.182 A  
HETATM   18  C   UNL     1      -7.288  11.541  67.970  1.00  0.00    -0.091 A  
HETATM   19  C   UNL     1      -6.626  12.311  68.921  1.00  0.00    -0.094 A  
HETATM   20  C   UNL     1      -6.968  13.645  69.057  1.00  0.00    -0.098 A  
HETATM   21  C   UNL     1      -7.978  14.202  68.264  1.00  0.00    -0.140 A  
HETATM   22  C   UNL     1      -8.668  13.458  67.278  1.00  0.00    -0.218 A  
ENDBRANCH   8   9
ENDBRANCH   6   8
ENDBRANCH   3   6
ENDBRANCH   2   3
TORSDOF 5
ENDMDL
MODEL       65
REMARK 921   NORMALIZED FREE ENERGY PREDICTED BY IDOCK:   -4.61 KCAL/MOL
REMARK 922        TOTAL FREE ENERGY PREDICTED BY IDOCK:   -6.77 KCAL/MOL
REMARK 923 INTER-LIGAND FREE ENERGY PREDICTED BY IDOCK:   -6.18 KCAL/MOL
REMARK 924 INTRA-LIGAND FREE ENERGY PREDICTED BY IDOCK:   -0.58 KCAL/MOL
REMARK 927      BINDING AFFINITY PREDICTED BY RF-SCORE:    0.00 PKD
ROOT
HETATM    1  C   UNL     1     -10.002   8.627  67.391  1.00  0.00    -0.270 C  
HETATM    2  C   UNL     1      -9.751   9.536  68.597  1.00  0.00    -0.155 C  
ENDROOT
BRANCH   2   3
HETATM    3  N   UNL     1     -10.027  10.977  68.384  1.00  0.00    -0.179 NA 
BRANCH   3   4
HETATM    4  C   UNL     1     -11.090  11.452  69.284  1.00  0.00    -0.254 C  
HETATM    5  C   UNL     1     -11.428  10.563  70.473  1.00  0.00    -0.433 C  
ENDBRANCH   3   4
BRANCH   3   6
HETATM    6  C   UNL     1      -8.770  11.804  68.410  1.00  0.00    -0.155 C  
HETATM    7  C   UNL     1      -7.553  10.842  68.525  1.00  0.00    -0.104 C  
BRANCH   6   8
HETATM    8  C   UNL     1      -8.429  12.719  67.164  1.00  0.00    -0.181 C  
BRANCH   8   9
HETATM    9  N   UNL     1      -9.490  13.648  66.666  1.00  0.00    -0.275 NA 
HETATM   10  C   UNL     1      -9.498  14.965  67.217  1.00  0.00    -0.213 A  
HETATM   11  C   UNL     1      -8.910  15.269  68.465  1.00  0.00    -0.185 A  
HETATM   12  C   UNL     1      -8.697  16.584  68.893  1.00  0.00    -0.247 A  
HETATM   13  C   UNL     1      -9.105  17.643  68.101  1.00  0.00    -0.276 A  
HETATM   14  C   UNL     1      -9.802  17.378  66.929  1.00  0.00    -0.289 A  
HETATM   15  C   UNL     1     -10.039  16.056  66.506  1.00  0.00    -0.287 A  
HETATM   16  S   UNL     1     -11.015  15.888  65.036  1.00  0.00    -0.344 SA 
HETATM   17  C   UNL     1     -11.062  14.127  64.808  1.00  0.00    -0.387 A  
HETATM   18  C   UNL     1     -11.862  13.691  63.732  1.00  0.00    -0.373 A  
HETATM   19  C   UNL     1     -11.900  12.351  63.364  1.00  0.00    -0.571 A  
HETATM   20  C   UNL     1     -11.144  11.440  64.080  1.00  0.00    -0.400 A  
HETATM   21  C   UNL     1     -10.370  11.861  65.168  1.00  0.00    -0.318 A  
HETATM   22  C   UNL     1     -10.293  13.215  65.568  1.00  0.00    -0.290 A  
ENDBRANCH   8   9
ENDBRANCH   6   8
ENDBRANCH   3   6
ENDBRANCH   2   3
TORSDOF 5
ENDMDL
MODEL       66
REMARK 921   NORMALIZED FREE ENERGY PREDICTED BY IDOCK:   -4.61 KCAL/MOL
REMARK 922        TOTAL FREE ENERGY PREDICTED BY IDOCK:   -6.77 KCAL/MOL
REMARK 923 INTER-LIGAND FREE ENERGY PREDICTED BY IDOCK:   -5.82 KCAL/MOL
REMARK 924 INTRA-LIGAND FREE ENERGY PREDICTED BY IDOCK:   -0.95 KCAL/MOL
REMARK 927      BINDING AFFINITY PREDICTED BY RF-SCORE:    0.00 PKD
ROOT
HETATM    1  C   UNL     1     -13.122  13.652  65.533  1.00  0.00    -0.162 C  
HETATM    2  C   UNL     1     -12.270  14.519  64.603  1.00  0.00    -0.460 C  
ENDROOT
BRANCH   2   3
HETATM    3  N   UNL     1     -10.827  14.181  64.554  1.00  0.00    -0.372 NA 
BRANCH   3   4
HETATM    4  C   UNL     1     -10.023  15.179  65.278  1.00  0.00    -0.290 C  
HETATM    5  C   UNL     1     -10.692  16.517  65.566  1.00  0.00    -0.267 C  
ENDBRANCH   3   4
BRANCH   3   6
HETATM    6  C   UNL     1     -10.565  12.756  64.957  1.00  0.00    -0.308 C  
HETATM    7  C   UNL     1     -10.070  11.976  63.705  1.00  0.00    -0.419 C  
BRANCH   6   8
HETATM    8  C   UNL     1      -9.469  12.461  66.061  1.00  0.00    -0.166 C  
BRANCH   8   9
HETATM    9  N   UNL     1      -9.914  11.815  67.334  1.00  0.00    -0.184 NA 
HETATM   10  C   UNL     1     -10.393  12.684  68.360  1.00  0.00    -0.235 A  
HETATM   11  C   UNL     1     -10.044  14.052  68.419  1.00  0.00    -0.236 A  
HETATM   12  C   UNL     1     -10.697  14.956  69.265  1.00  0.00    -0.253 A  
HETATM   13  C   UNL     1     -11.697  14.510  70.112  1.00  0.00    -0.357 A  
HETATM   14  C   UNL     1     -11.973  13.150  70.172  1.00  0.00    -0.381 A  
HETATM   15  C   UNL     1     -11.302  12.234  69.339  1.00  0.00    -0.228 A  
HETATM   16  S   UNL     1     -11.709  10.529  69.597  1.00  0.00    -0.235 SA 
HETATM   17  C   UNL     1     -10.718   9.710  68.371  1.00  0.00    -0.209 A  
HETATM   18  C   UNL     1     -10.780   8.302  68.404  1.00  0.00    -0.072 A  
HETATM   19  C   UNL     1     -10.149   7.533  67.432  1.00  0.00    -0.282 A  
HETATM   20  C   UNL     1      -9.444   8.174  66.428  1.00  0.00    -0.285 A  
HETATM   21  C   UNL     1      -9.354   9.570  66.405  1.00  0.00    -0.231 A  
HETATM   22  C   UNL     1      -9.990  10.389  67.367  1.00  0.00    -0.187 A  
ENDBRANCH   8   9
ENDBRANCH   6   8
ENDBRANCH   3   6
ENDBRANCH   2   3
TORSDOF 5
ENDMDL
MODEL       67
REMARK 921   NORMALIZED FREE ENERGY PREDICTED BY IDOCK:   -4.60 KCAL/MOL
REMARK 922        TOTAL FREE ENERGY PREDICTED BY IDOCK:   -6.77 KCAL/MOL
REMARK 923 INTER-LIGAND FREE ENERGY PREDICTED BY IDOCK:   -6.19 KCAL/MOL
REMARK 924 INTRA-LIGAND FREE ENERGY PREDICTED BY IDOCK:   -0.58 KCAL/MOL
REMARK 927      BINDING AFFINITY PREDICTED BY RF-SCORE:    0.00 PKD
ROOT
HETATM    1  C   UNL     1     -12.639  12.606  63.986  1.00  0.00    -0.429 C  
HETATM    2  C   UNL     1     -11.706  13.030  65.125  1.00  0.00    -0.343 C  
ENDROOT
BRANCH   2   3
HETATM    3  N   UNL     1     -11.301  11.952  66.058  1.00  0.00    -0.335 NA 
BRANCH   3   4
HETATM    4  C   UNL     1      -9.909  11.539  65.820  1.00  0.00    -0.234 C  
HETATM    5  C   UNL     1      -9.703  10.223  65.079  1.00  0.00    -0.370 C  
ENDBRANCH   3   4
BRANCH   3   6
HETATM    6  C   UNL     1     -11.616  12.294  67.489  1.00  0.00    -0.353 C  
HETATM    7  C   UNL     1     -11.883  10.970  68.261  1.00  0.00    -0.221 C  
BRANCH   6   8
HETATM    8  C   UNL     1     -10.522  13.039  68.357  1.00  0.00    -0.252 C  
BRANCH   8   9
HETATM    9  N   UNL     1     -10.765  14.471  68.713  1.00  0.00    -0.246 NA 
HETATM   10  C   UNL     1     -11.538  14.717  69.887  1.00  0.00    -0.285 A  
HETATM   11  C   UNL     1     -12.428  13.760  70.424  1.00  0.00    -0.384 A  
HETATM   12  C   UNL     1     -12.997  13.895  71.696  1.00  0.00    -0.433 A  
HETATM   13  C   UNL     1     -12.723  15.016  72.459  1.00  0.00    -0.440 A  
HETATM   14  C   UNL     1     -11.957  16.035  71.908  1.00  0.00    -0.606 A  
HETATM   15  C   UNL     1     -11.402  15.914  70.619  1.00  0.00    -0.397 A  
HETATM   16  S   UNL     1     -10.522  17.335  70.030  1.00  0.00     0.710 SA 
HETATM   17  C   UNL     1      -9.955  16.799  68.434  1.00  0.00    -0.268 A  
HETATM   18  C   UNL     1      -9.280  17.783  67.685  1.00  0.00    -0.249 A  
HETATM   19  C   UNL     1      -8.681  17.474  66.469  1.00  0.00    -0.290 A  
HETATM   20  C   UNL     1      -8.766  16.176  65.994  1.00  0.00    -0.282 A  
HETATM   21  C   UNL     1      -9.460  15.200  66.718  1.00  0.00    -0.260 A  
HETATM   22  C   UNL     1     -10.073  15.470  67.964  1.00  0.00    -0.223 A  
ENDBRANCH   8   9
ENDBRANCH   6   8
ENDBRANCH   3   6
ENDBRANCH   2   3
TORSDOF 5
ENDMDL
MODEL       68
REMARK 921   NORMALIZED FREE ENERGY PREDICTED BY IDOCK:   -4.59 KCAL/MOL
REMARK 922        TOTAL FREE ENERGY PREDICTED BY IDOCK:   -6.75 KCAL/MOL
REMARK 923 INTER-LIGAND FREE ENERGY PREDICTED BY IDOCK:   -6.45 KCAL/MOL
REMARK 924 INTRA-LIGAND FREE ENERGY PREDICTED BY IDOCK:   -0.31 KCAL/MOL
REMARK 927      BINDING AFFINITY PREDICTED BY RF-SCORE:    0.00 PKD
ROOT
HETATM    1  C   UNL     1     -13.004  14.216  72.702  1.00  0.00    -0.505 C  
HETATM    2  C   UNL     1     -12.691  14.451  71.222  1.00  0.00    -0.344 C  
ENDROOT
BRANCH   2   3
HETATM    3  N   UNL     1     -12.060  13.313  70.511  1.00  0.00    -0.345 NA 
BRANCH   3   4
HETATM    4  C   UNL     1     -12.778  12.056  70.779  1.00  0.00    -0.143 C  
HETATM    5  C   UNL     1     -11.949  10.899  71.324  1.00  0.00    -0.226 C  
ENDBRANCH   3   4
BRANCH   3   6
HETATM    6  C   UNL     1     -11.842  13.607  69.051  1.00  0.00    -0.352 C  
HETATM    7  C   UNL     1     -11.872  15.150  68.854  1.00  0.00    -0.337 C  
BRANCH   6   8
HETATM    8  C   UNL     1     -10.487  13.152  68.372  1.00  0.00    -0.253 C  
BRANCH   8   9
HETATM    9  N   UNL     1     -10.524  11.968  67.458  1.00  0.00    -0.209 NA 
HETATM   10  C   UNL     1     -11.099  12.174  66.168  1.00  0.00    -0.312 A  
HETATM   11  C   UNL     1     -12.004  13.224  65.899  1.00  0.00    -0.466 A  
HETATM   12  C   UNL     1     -12.376  13.579  64.597  1.00  0.00    -0.419 A  
HETATM   13  C   UNL     1     -11.881  12.866  63.519  1.00  0.00    -0.605 A  
HETATM   14  C   UNL     1     -11.093  11.747  63.756  1.00  0.00    -0.513 A  
HETATM   15  C   UNL     1     -10.736  11.373  65.066  1.00  0.00    -0.277 A  
HETATM   16  S   UNL     1      -9.797   9.876  65.202  1.00  0.00    -0.185 SA 
HETATM   17  C   UNL     1      -9.515   9.760  66.953  1.00  0.00    -0.160 A  
HETATM   18  C   UNL     1      -8.846   8.590  67.368  1.00  0.00    -0.140 A  
HETATM   19  C   UNL     1      -8.457   8.419  68.691  1.00  0.00    -0.128 A  
HETATM   20  C   UNL     1      -8.744   9.417  69.606  1.00  0.00    -0.172 A  
HETATM   21  C   UNL     1      -9.434  10.568  69.207  1.00  0.00    -0.191 A  
HETATM   22  C   UNL     1      -9.837  10.786  67.870  1.00  0.00    -0.167 A  
ENDBRANCH   8   9
ENDBRANCH   6   8
ENDBRANCH   3   6
ENDBRANCH   2   3
TORSDOF 5
ENDMDL
MODEL       69
REMARK 921   NORMALIZED FREE ENERGY PREDICTED BY IDOCK:   -4.59 KCAL/MOL
REMARK 922        TOTAL FREE ENERGY PREDICTED BY IDOCK:   -6.75 KCAL/MOL
REMARK 923 INTER-LIGAND FREE ENERGY PREDICTED BY IDOCK:   -6.54 KCAL/MOL
REMARK 924 INTRA-LIGAND FREE ENERGY PREDICTED BY IDOCK:   -0.21 KCAL/MOL
REMARK 927      BINDING AFFINITY PREDICTED BY RF-SCORE:    0.00 PKD
ROOT
HETATM    1  C   UNL     1     -10.436   7.444  67.316  1.00  0.00    -0.385 C  
HETATM    2  C   UNL     1     -10.579   8.873  66.786  1.00  0.00    -0.142 C  
ENDROOT
BRANCH   2   3
HETATM    3  N   UNL     1      -9.385   9.738  66.939  1.00  0.00    -0.146 NA 
BRANCH   3   4
HETATM    4  C   UNL     1      -8.358   9.409  65.937  1.00  0.00    -0.120 C  
HETATM    5  C   UNL     1      -8.782   9.482  64.475  1.00  0.00    -0.232 C  
ENDBRANCH   3   4
BRANCH   3   6
HETATM    6  C   UNL     1      -9.746  11.197  67.006  1.00  0.00    -0.186 C  
HETATM    7  C   UNL     1     -11.244  11.348  66.613  1.00  0.00    -0.298 C  
BRANCH   6   8
HETATM    8  C   UNL     1      -9.626  11.954  68.391  1.00  0.00    -0.196 C  
BRANCH   8   9
HETATM    9  N   UNL     1     -10.600  13.052  68.676  1.00  0.00    -0.251 NA 
HETATM   10  C   UNL     1     -11.589  12.788  69.671  1.00  0.00    -0.252 A  
HETATM   11  C   UNL     1     -11.974  11.477  70.030  1.00  0.00    -0.435 A  
HETATM   12  C   UNL     1     -12.751  11.207  71.162  1.00  0.00    -0.510 A  
HETATM   13  C   UNL     1     -13.204  12.248  71.953  1.00  0.00    -0.481 A  
HETATM   14  C   UNL     1     -12.953  13.555  71.555  1.00  0.00    -0.440 A  
HETATM   15  C   UNL     1     -12.191  13.832  70.404  1.00  0.00    -0.363 A  
HETATM   16  S   UNL     1     -12.034  15.547  69.988  1.00  0.00    -0.367 SA 
HETATM   17  C   UNL     1     -11.004  15.496  68.541  1.00  0.00    -0.288 A  
HETATM   18  C   UNL     1     -10.778  16.747  67.932  1.00  0.00    -0.347 A  
HETATM   19  C   UNL     1      -9.899  16.874  66.862  1.00  0.00    -0.278 A  
HETATM   20  C   UNL     1      -9.249  15.746  66.393  1.00  0.00    -0.347 A  
HETATM   21  C   UNL     1      -9.491  14.496  66.974  1.00  0.00    -0.247 A  
HETATM   22  C   UNL     1     -10.367  14.324  68.071  1.00  0.00    -0.229 A  
ENDBRANCH   8   9
ENDBRANCH   6   8
ENDBRANCH   3   6
ENDBRANCH   2   3
TORSDOF 5
ENDMDL
MODEL       70
REMARK 921   NORMALIZED FREE ENERGY PREDICTED BY IDOCK:   -4.55 KCAL/MOL
REMARK 922        TOTAL FREE ENERGY PREDICTED BY IDOCK:   -6.70 KCAL/MOL
REMARK 923 INTER-LIGAND FREE ENERGY PREDICTED BY IDOCK:   -5.46 KCAL/MOL
REMARK 924 INTRA-LIGAND FREE ENERGY PREDICTED BY IDOCK:   -1.24 KCAL/MOL
REMARK 927      BINDING AFFINITY PREDICTED BY RF-SCORE:    0.00 PKD
ROOT
HETATM    1  C   UNL     1      -9.593   8.397  65.939  1.00  0.00    -0.119 C  
HETATM    2  C   UNL     1      -9.030   7.354  66.909  1.00  0.00    -0.135 C  
ENDROOT
BRANCH   2   3
HETATM    3  N   UNL     1      -9.641   7.339  68.261  1.00  0.00    -0.147 NA 
BRANCH   3   4
HETATM    4  C   UNL     1     -10.625   6.252  68.386  1.00  0.00    -0.260 C  
HETATM    5  C   UNL     1     -11.251   6.053  69.761  1.00  0.00    -0.440 C  
ENDBRANCH   3   4
BRANCH   3   6
HETATM    6  C   UNL     1      -8.604   7.371  69.351  1.00  0.00    -0.134 C  
HETATM    7  C   UNL     1      -7.211   7.115  68.708  1.00  0.00    -0.094 C  
BRANCH   6   8
HETATM    8  C   UNL     1      -8.411   8.702  70.186  1.00  0.00    -0.135 C  
BRANCH   8   9
HETATM    9  N   UNL     1      -9.455   9.766  70.060  1.00  0.00    -0.238 NA 
HETATM   10  C   UNL     1      -9.237  10.761  69.060  1.00  0.00    -0.146 A  
HETATM   11  C   UNL     1      -7.954  11.055  68.549  1.00  0.00    -0.137 A  
HETATM   12  C   UNL     1      -7.764  11.843  67.408  1.00  0.00    -0.158 A  
HETATM   13  C   UNL     1      -8.855  12.398  66.762  1.00  0.00    -0.189 A  
HETATM   14  C   UNL     1     -10.118  12.236  67.316  1.00  0.00    -0.212 A  
HETATM   15  C   UNL     1     -10.311  11.463  68.477  1.00  0.00    -0.205 A  
HETATM   16  S   UNL     1     -11.970  11.425  69.101  1.00  0.00    -0.285 SA 
HETATM   17  C   UNL     1     -11.823  10.351  70.508  1.00  0.00    -0.337 A  
HETATM   18  C   UNL     1     -13.004  10.203  71.264  1.00  0.00    -0.510 A  
HETATM   19  C   UNL     1     -13.068   9.304  72.324  1.00  0.00    -0.517 A  
HETATM   20  C   UNL     1     -11.946   8.556  72.634  1.00  0.00    -0.309 A  
HETATM   21  C   UNL     1     -10.762   8.719  71.906  1.00  0.00    -0.429 A  
HETATM   22  C   UNL     1     -10.657   9.613  70.815  1.00  0.00    -0.322 A  
ENDBRANCH   8   9
ENDBRANCH   6   8
ENDBRANCH   3   6
ENDBRANCH   2   3
TORSDOF 5
ENDMDL
MODEL       71
REMARK 921   NORMALIZED FREE ENERGY PREDICTED BY IDOCK:   -4.55 KCAL/MOL
REMARK 922        TOTAL FREE ENERGY PREDICTED BY IDOCK:   -6.70 KCAL/MOL
REMARK 923 INTER-LIGAND FREE ENERGY PREDICTED BY IDOCK:   -5.76 KCAL/MOL
REMARK 924 INTRA-LIGAND FREE ENERGY PREDICTED BY IDOCK:   -0.94 KCAL/MOL
REMARK 927      BINDING AFFINITY PREDICTED BY RF-SCORE:    0.00 PKD
ROOT
HETATM    1  C   UNL     1     -10.006  16.119  65.980  1.00  0.00    -0.373 C  
HETATM    2  C   UNL     1     -10.488  16.209  67.430  1.00  0.00    -0.310 C  
ENDROOT
BRANCH   2   3
HETATM    3  N   UNL     1      -9.791  15.326  68.395  1.00  0.00    -0.212 NA 
BRANCH   3   4
HETATM    4  C   UNL     1     -10.657  15.002  69.540  1.00  0.00    -0.254 C  
HETATM    5  C   UNL     1     -12.133  15.353  69.402  1.00  0.00    -0.308 C  
ENDBRANCH   3   4
BRANCH   3   6
HETATM    6  C   UNL     1      -9.170  14.131  67.724  1.00  0.00    -0.193 C  
HETATM    7  C   UNL     1      -7.665  14.077  68.114  1.00  0.00    -0.143 C  
BRANCH   6   8
HETATM    8  C   UNL     1      -9.717  12.687  68.071  1.00  0.00    -0.215 C  
BRANCH   8   9
HETATM    9  N   UNL     1      -9.793  11.682  66.967  1.00  0.00    -0.191 NA 
HETATM   10  C   UNL     1     -10.710  11.961  65.909  1.00  0.00    -0.284 A  
HETATM   11  C   UNL     1     -11.818  12.822  66.073  1.00  0.00    -0.495 A  
HETATM   12  C   UNL     1     -12.570  13.290  64.990  1.00  0.00    -0.483 A  
HETATM   13  C   UNL     1     -12.262  12.877  63.705  1.00  0.00    -0.555 A  
HETATM   14  C   UNL     1     -11.263  11.930  63.524  1.00  0.00    -0.501 A  
HETATM   15  C   UNL     1     -10.519  11.439  64.614  1.00  0.00    -0.315 A  
HETATM   16  S   UNL     1      -9.339  10.174  64.224  1.00  0.00    -0.304 SA 
HETATM   17  C   UNL     1      -8.595   9.847  65.804  1.00  0.00    -0.139 A  
HETATM   18  C   UNL     1      -7.654   8.797  65.808  1.00  0.00    -0.086 A  
HETATM   19  C   UNL     1      -6.909   8.507  66.946  1.00  0.00    -0.069 A  
HETATM   20  C   UNL     1      -7.111   9.263  68.087  1.00  0.00    -0.077 A  
HETATM   21  C   UNL     1      -8.064  10.289  68.099  1.00  0.00    -0.110 A  
HETATM   22  C   UNL     1      -8.834  10.624  66.961  1.00  0.00    -0.137 A  
ENDBRANCH   8   9
ENDBRANCH   6   8
ENDBRANCH   3   6
ENDBRANCH   2   3
TORSDOF 5
ENDMDL
MODEL       72
REMARK 921   NORMALIZED FREE ENERGY PREDICTED BY IDOCK:   -4.53 KCAL/MOL
REMARK 922        TOTAL FREE ENERGY PREDICTED BY IDOCK:   -6.67 KCAL/MOL
REMARK 923 INTER-LIGAND FREE ENERGY PREDICTED BY IDOCK:   -6.43 KCAL/MOL
REMARK 924 INTRA-LIGAND FREE ENERGY PREDICTED BY IDOCK:   -0.24 KCAL/MOL
REMARK 927      BINDING AFFINITY PREDICTED BY RF-SCORE:    0.00 PKD
ROOT
HETATM    1  C   UNL     1     -10.653  18.401  65.706  1.00  0.00    -0.236 C  
HETATM    2  C   UNL     1     -10.811  16.878  65.677  1.00  0.00    -0.079 C  
ENDROOT
BRANCH   2   3
HETATM    3  N   UNL     1     -10.107  16.139  66.752  1.00  0.00    -0.263 NA 
BRANCH   3   4
HETATM    4  C   UNL     1      -9.529  17.062  67.741  1.00  0.00    -0.245 C  
HETATM    5  C   UNL     1     -10.348  17.315  69.000  1.00  0.00    -0.330 C  
ENDBRANCH   3   4
BRANCH   3   6
HETATM    6  C   UNL     1     -10.959  15.047  67.340  1.00  0.00    -0.315 C  
HETATM    7  C   UNL     1     -11.814  14.425  66.198  1.00  0.00    -0.391 C  
BRANCH   6   8
HETATM    8  C   UNL     1     -10.252  13.805  68.021  1.00  0.00    -0.248 C  
BRANCH   8   9
HETATM    9  N   UNL     1     -11.120  12.766  68.656  1.00  0.00    -0.252 NA 
HETATM   10  C   UNL     1     -10.951  11.425  68.197  1.00  0.00    -0.232 A  
HETATM   11  C   UNL     1     -10.398  11.119  66.934  1.00  0.00    -0.272 A  
HETATM   12  C   UNL     1     -10.005   9.822  66.581  1.00  0.00    -0.292 A  
HETATM   13  C   UNL     1     -10.191   8.779  67.471  1.00  0.00    -0.309 A  
HETATM   14  C   UNL     1     -10.851   9.024  68.668  1.00  0.00    -0.061 A  
HETATM   15  C   UNL     1     -11.268  10.323  69.017  1.00  0.00    -0.208 A  
HETATM   16  S   UNL     1     -12.169  10.452  70.538  1.00  0.00    -0.327 SA 
HETATM   17  C   UNL     1     -12.482  12.197  70.649  1.00  0.00    -0.242 A  
HETATM   18  C   UNL     1     -13.274  12.587  71.748  1.00  0.00    -0.444 A  
HETATM   19  C   UNL     1     -13.503  13.930  72.026  1.00  0.00    -0.543 A  
HETATM   20  C   UNL     1     -12.945  14.888  71.197  1.00  0.00    -0.432 A  
HETATM   21  C   UNL     1     -12.181  14.508  70.088  1.00  0.00    -0.399 A  
HETATM   22  C   UNL     1     -11.915  13.154  69.776  1.00  0.00    -0.314 A  
ENDBRANCH   8   9
ENDBRANCH   6   8
ENDBRANCH   3   6
ENDBRANCH   2   3
TORSDOF 5
ENDMDL
MODEL       73
REMARK 921   NORMALIZED FREE ENERGY PREDICTED BY IDOCK:   -4.52 KCAL/MOL
REMARK 922        TOTAL FREE ENERGY PREDICTED BY IDOCK:   -6.66 KCAL/MOL
REMARK 923 INTER-LIGAND FREE ENERGY PREDICTED BY IDOCK:   -6.67 KCAL/MOL
REMARK 924 INTRA-LIGAND FREE ENERGY PREDICTED BY IDOCK:    0.01 KCAL/MOL
REMARK 927      BINDING AFFINITY PREDICTED BY RF-SCORE:    0.00 PKD
ROOT
HETATM    1  C   UNL     1     -12.784  12.063  63.350  1.00  0.00    -0.527 C  
HETATM    2  C   UNL     1     -12.484  12.630  64.740  1.00  0.00    -0.484 C  
ENDROOT
BRANCH   2   3
HETATM    3  N   UNL     1     -11.145  12.307  65.289  1.00  0.00    -0.306 NA 
BRANCH   3   4
HETATM    4  C   UNL     1     -10.546  11.160  64.587  1.00  0.00    -0.318 C  
HETATM    5  C   UNL     1      -9.668  11.478  63.383  1.00  0.00    -0.379 C  
ENDBRANCH   3   4
BRANCH   3   6
HETATM    6  C   UNL     1     -10.259  13.520  65.373  1.00  0.00    -0.302 C  
HETATM    7  C   UNL     1     -11.164  14.778  65.511  1.00  0.00    -0.346 C  
BRANCH   6   8
HETATM    8  C   UNL     1      -9.235  13.640  66.574  1.00  0.00    -0.179 C  
BRANCH   8   9
HETATM    9  N   UNL     1      -9.489  14.689  67.609  1.00  0.00    -0.202 NA 
HETATM   10  C   UNL     1      -8.869  15.958  67.400  1.00  0.00    -0.188 A  
HETATM   11  C   UNL     1      -7.725  16.118  66.587  1.00  0.00    -0.265 A  
HETATM   12  C   UNL     1      -7.263  17.376  66.182  1.00  0.00    -0.327 A  
HETATM   13  C   UNL     1      -7.912  18.521  66.612  1.00  0.00    -0.278 A  
HETATM   14  C   UNL     1      -8.959  18.402  67.516  1.00  0.00    -0.271 A  
HETATM   15  C   UNL     1      -9.411  17.139  67.945  1.00  0.00    -0.257 A  
HETATM   16  S   UNL     1     -10.699  17.163  69.162  1.00  0.00    -0.065 SA 
HETATM   17  C   UNL     1     -11.018  15.433  69.415  1.00  0.00    -0.276 A  
HETATM   18  C   UNL     1     -11.964  15.147  70.419  1.00  0.00    -0.364 A  
HETATM   19  C   UNL     1     -12.397  13.845  70.646  1.00  0.00    -0.451 A  
HETATM   20  C   UNL     1     -11.876  12.824  69.872  1.00  0.00    -0.371 A  
HETATM   21  C   UNL     1     -10.914  13.097  68.892  1.00  0.00    -0.270 A  
HETATM   22  C   UNL     1     -10.456  14.407  68.621  1.00  0.00    -0.247 A  
ENDBRANCH   8   9
ENDBRANCH   6   8
ENDBRANCH   3   6
ENDBRANCH   2   3
TORSDOF 5
ENDMDL
MODEL       74
REMARK 921   NORMALIZED FREE ENERGY PREDICTED BY IDOCK:   -4.52 KCAL/MOL
REMARK 922        TOTAL FREE ENERGY PREDICTED BY IDOCK:   -6.66 KCAL/MOL
REMARK 923 INTER-LIGAND FREE ENERGY PREDICTED BY IDOCK:   -5.85 KCAL/MOL
REMARK 924 INTRA-LIGAND FREE ENERGY PREDICTED BY IDOCK:   -0.81 KCAL/MOL
REMARK 927      BINDING AFFINITY PREDICTED BY RF-SCORE:    0.00 PKD
ROOT
HETATM    1  C   UNL     1     -10.405   6.895  73.425  1.00  0.00    -0.337 C  
HETATM    2  C   UNL     1     -11.369   7.714  72.563  1.00  0.00    -0.355 C  
ENDROOT
BRANCH   2   3
HETATM    3  N   UNL     1     -11.057   7.755  71.114  1.00  0.00    -0.244 NA 
BRANCH   3   4
HETATM    4  C   UNL     1     -11.656   6.611  70.408  1.00  0.00    -0.398 C  
HETATM    5  C   UNL     1     -10.691   5.606  69.793  1.00  0.00    -0.401 C  
ENDBRANCH   3   4
BRANCH   3   6
HETATM    6  C   UNL     1     -11.368   9.096  70.506  1.00  0.00    -0.257 C  
HETATM    7  C   UNL     1     -12.262   9.889  71.502  1.00  0.00    -0.505 C  
BRANCH   6   8
HETATM    8  C   UNL     1     -10.176  10.084  70.177  1.00  0.00    -0.242 C  
BRANCH   8   9
HETATM    9  N   UNL     1     -10.016  10.543  68.763  1.00  0.00    -0.183 NA 
HETATM   10  C   UNL     1      -9.288   9.680  67.888  1.00  0.00    -0.128 A  
HETATM   11  C   UNL     1      -8.366   8.722  68.363  1.00  0.00    -0.126 A  
HETATM   12  C   UNL     1      -7.840   7.717  67.543  1.00  0.00    -0.122 A  
HETATM   13  C   UNL     1      -8.191   7.663  66.205  1.00  0.00    -0.120 A  
HETATM   14  C   UNL     1      -8.993   8.668  65.679  1.00  0.00    -0.231 A  
HETATM   15  C   UNL     1      -9.505   9.694  66.496  1.00  0.00    -0.181 A  
HETATM   16  S   UNL     1     -10.441  10.942  65.655  1.00  0.00    -0.167 SA 
HETATM   17  C   UNL     1     -10.935  12.010  66.987  1.00  0.00    -0.274 A  
HETATM   18  C   UNL     1     -11.640  13.164  66.588  1.00  0.00    -0.403 A  
HETATM   19  C   UNL     1     -12.189  14.029  67.529  1.00  0.00    -0.258 A  
HETATM   20  C   UNL     1     -12.025  13.744  68.873  1.00  0.00    -0.394 A  
HETATM   21  C   UNL     1     -11.302  12.615  69.276  1.00  0.00    -0.306 A  
HETATM   22  C   UNL     1     -10.738  11.705  68.353  1.00  0.00    -0.217 A  
ENDBRANCH   8   9
ENDBRANCH   6   8
ENDBRANCH   3   6
ENDBRANCH   2   3
TORSDOF 5
ENDMDL
MODEL       75
REMARK 921   NORMALIZED FREE ENERGY PREDICTED BY IDOCK:   -4.52 KCAL/MOL
REMARK 922        TOTAL FREE ENERGY PREDICTED BY IDOCK:   -6.66 KCAL/MOL
REMARK 923 INTER-LIGAND FREE ENERGY PREDICTED BY IDOCK:   -6.54 KCAL/MOL
REMARK 924 INTRA-LIGAND FREE ENERGY PREDICTED BY IDOCK:   -0.12 KCAL/MOL
REMARK 927      BINDING AFFINITY PREDICTED BY RF-SCORE:    0.00 PKD
ROOT
HETATM    1  C   UNL     1     -12.836  15.521  70.979  1.00  0.00    -0.543 C  
HETATM    2  C   UNL     1     -12.606  14.178  70.280  1.00  0.00    -0.306 C  
ENDROOT
BRANCH   2   3
HETATM    3  N   UNL     1     -12.072  14.256  68.899  1.00  0.00    -0.314 NA 
BRANCH   3   4
HETATM    4  C   UNL     1     -10.803  15.001  68.861  1.00  0.00    -0.243 C  
HETATM    5  C   UNL     1     -10.805  16.316  68.092  1.00  0.00    -0.342 C  
ENDBRANCH   3   4
BRANCH   3   6
HETATM    6  C   UNL     1     -12.025  12.908  68.232  1.00  0.00    -0.254 C  
HETATM    7  C   UNL     1     -11.998  13.124  66.692  1.00  0.00    -0.451 C  
BRANCH   6   8
HETATM    8  C   UNL     1     -10.794  11.955  68.516  1.00  0.00    -0.221 C  
BRANCH   8   9
HETATM    9  N   UNL     1     -11.068  10.502  68.735  1.00  0.00    -0.249 NA 
HETATM   10  C   UNL     1     -10.533   9.597  67.769  1.00  0.00    -0.256 A  
HETATM   11  C   UNL     1     -10.197   9.999  66.457  1.00  0.00    -0.291 A  
HETATM   12  C   UNL     1      -9.452   9.189  65.593  1.00  0.00    -0.309 A  
HETATM   13  C   UNL     1      -9.050   7.929  66.001  1.00  0.00    -0.181 A  
HETATM   14  C   UNL     1      -9.475   7.454  67.235  1.00  0.00    -0.179 A  
HETATM   15  C   UNL     1     -10.245   8.257  68.098  1.00  0.00    -0.210 A  
HETATM   16  S   UNL     1     -10.775   7.473  69.597  1.00  0.00    -0.201 SA 
HETATM   17  C   UNL     1     -11.663   8.777  70.415  1.00  0.00    -0.019 A  
HETATM   18  C   UNL     1     -12.282   8.402  71.625  1.00  0.00    -0.358 A  
HETATM   19  C   UNL     1     -12.912   9.344  72.430  1.00  0.00    -0.427 A  
HETATM   20  C   UNL     1     -12.932  10.666  72.021  1.00  0.00    -0.466 A  
HETATM   21  C   UNL     1     -12.344  11.041  70.807  1.00  0.00    -0.496 A  
HETATM   22  C   UNL     1     -11.684  10.117  69.965  1.00  0.00    -0.223 A  
ENDBRANCH   8   9
ENDBRANCH   6   8
ENDBRANCH   3   6
ENDBRANCH   2   3
TORSDOF 5
ENDMDL
MODEL       76
REMARK 921   NORMALIZED FREE ENERGY PREDICTED BY IDOCK:   -4.52 KCAL/MOL
REMARK 922        TOTAL FREE ENERGY PREDICTED BY IDOCK:   -6.65 KCAL/MOL
REMARK 923 INTER-LIGAND FREE ENERGY PREDICTED BY IDOCK:   -5.80 KCAL/MOL
REMARK 924 INTRA-LIGAND FREE ENERGY PREDICTED BY IDOCK:   -0.85 KCAL/MOL
REMARK 927      BINDING AFFINITY PREDICTED BY RF-SCORE:    0.00 PKD
ROOT
HETATM    1  C   UNL     1     -11.385   6.128  69.581  1.00  0.00    -0.442 C  
HETATM    2  C   UNL     1     -10.987   6.981  70.789  1.00  0.00    -0.255 C  
ENDROOT
BRANCH   2   3
HETATM    3  N   UNL     1     -11.351   8.416  70.710  1.00  0.00    -0.268 NA 
BRANCH   3   4
HETATM    4  C   UNL     1     -12.582   8.694  71.467  1.00  0.00    -0.322 C  
HETATM    5  C   UNL     1     -13.016  10.152  71.554  1.00  0.00    -0.547 C  
ENDBRANCH   3   4
BRANCH   3   6
HETATM    6  C   UNL     1     -10.192   9.314  71.050  1.00  0.00    -0.314 C  
HETATM    7  C   UNL     1      -9.288   8.576  72.079  1.00  0.00    -0.353 C  
BRANCH   6   8
HETATM    8  C   UNL     1      -9.198   9.752  69.899  1.00  0.00    -0.234 C  
BRANCH   8   9
HETATM    9  N   UNL     1      -9.642   9.569  68.483  1.00  0.00    -0.141 NA 
HETATM   10  C   UNL     1     -10.479  10.588  67.937  1.00  0.00    -0.210 A  
HETATM   11  C   UNL     1     -11.251  11.451  68.747  1.00  0.00    -0.308 A  
HETATM   12  C   UNL     1     -11.873  12.597  68.240  1.00  0.00    -0.354 A  
HETATM   13  C   UNL     1     -11.776  12.897  66.892  1.00  0.00    -0.445 A  
HETATM   14  C   UNL     1     -11.135  12.001  66.047  1.00  0.00    -0.364 A  
HETATM   15  C   UNL     1     -10.528  10.834  66.549  1.00  0.00    -0.240 A  
HETATM   16  S   UNL     1      -9.826   9.755  65.331  1.00  0.00    -0.214 SA 
HETATM   17  C   UNL     1      -9.141   8.451  66.326  1.00  0.00    -0.194 A  
HETATM   18  C   UNL     1      -8.578   7.384  65.596  1.00  0.00    -0.128 A  
HETATM   19  C   UNL     1      -7.904   6.352  66.240  1.00  0.00    -0.101 A  
HETATM   20  C   UNL     1      -7.800   6.382  67.619  1.00  0.00    -0.106 A  
HETATM   21  C   UNL     1      -8.381   7.423  68.353  1.00  0.00    -0.125 A  
HETATM   22  C   UNL     1      -9.065   8.497  67.737  1.00  0.00    -0.135 A  
ENDBRANCH   8   9
ENDBRANCH   6   8
ENDBRANCH   3   6
ENDBRANCH   2   3
TORSDOF 5
ENDMDL
MODEL       77
REMARK 921   NORMALIZED FREE ENERGY PREDICTED BY IDOCK:   -4.50 KCAL/MOL
REMARK 922        TOTAL FREE ENERGY PREDICTED BY IDOCK:   -6.64 KCAL/MOL
REMARK 923 INTER-LIGAND FREE ENERGY PREDICTED BY IDOCK:   -5.20 KCAL/MOL
REMARK 924 INTRA-LIGAND FREE ENERGY PREDICTED BY IDOCK:   -1.44 KCAL/MOL
REMARK 927      BINDING AFFINITY PREDICTED BY RF-SCORE:    0.00 PKD
ROOT
HETATM    1  C   UNL     1     -10.572   8.064  67.058  1.00  0.00    -0.364 C  
HETATM    2  C   UNL     1     -10.054   8.296  68.480  1.00  0.00    -0.197 C  
ENDROOT
BRANCH   2   3
HETATM    3  N   UNL     1     -10.190   9.679  68.995  1.00  0.00    -0.190 NA 
BRANCH   3   4
HETATM    4  C   UNL     1     -11.229   9.760  70.034  1.00  0.00    -0.251 C  
HETATM    5  C   UNL     1     -12.226  10.906  69.917  1.00  0.00    -0.408 C  
ENDBRANCH   3   4
BRANCH   3   6
HETATM    6  C   UNL     1      -8.863  10.269  69.392  1.00  0.00    -0.163 C  
HETATM    7  C   UNL     1      -7.793   9.141  69.343  1.00  0.00    -0.095 C  
BRANCH   6   8
HETATM    8  C   UNL     1      -8.248  11.432  68.513  1.00  0.00    -0.153 C  
BRANCH   8   9
HETATM    9  N   UNL     1      -9.035  11.913  67.336  1.00  0.00    -0.167 NA 
HETATM   10  C   UNL     1      -8.849  11.206  66.110  1.00  0.00    -0.190 A  
HETATM   11  C   UNL     1      -7.690  10.444  65.842  1.00  0.00    -0.145 A  
HETATM   12  C   UNL     1      -7.609   9.559  64.760  1.00  0.00    -0.112 A  
HETATM   13  C   UNL     1      -8.674   9.438  63.885  1.00  0.00    -0.225 A  
HETATM   14  C   UNL     1      -9.775  10.269  64.046  1.00  0.00    -0.343 A  
HETATM   15  C   UNL     1      -9.852  11.177  65.120  1.00  0.00    -0.259 A  
HETATM   16  S   UNL     1     -11.283  12.222  65.134  1.00  0.00    -0.333 SA 
HETATM   17  C   UNL     1     -11.045  13.175  66.615  1.00  0.00    -0.292 A  
HETATM   18  C   UNL     1     -12.016  14.171  66.840  1.00  0.00    -0.479 A  
HETATM   19  C   UNL     1     -12.023  14.914  68.015  1.00  0.00    -0.216 A  
HETATM   20  C   UNL     1     -11.049  14.667  68.967  1.00  0.00    -0.273 A  
HETATM   21  C   UNL     1     -10.064  13.698  68.738  1.00  0.00    -0.129 A  
HETATM   22  C   UNL     1     -10.028  12.913  67.562  1.00  0.00    -0.215 A  
ENDBRANCH   8   9
ENDBRANCH   6   8
ENDBRANCH   3   6
ENDBRANCH   2   3
TORSDOF 5
ENDMDL
MODEL       78
REMARK 921   NORMALIZED FREE ENERGY PREDICTED BY IDOCK:   -4.48 KCAL/MOL
REMARK 922        TOTAL FREE ENERGY PREDICTED BY IDOCK:   -6.60 KCAL/MOL
REMARK 923 INTER-LIGAND FREE ENERGY PREDICTED BY IDOCK:   -5.41 KCAL/MOL
REMARK 924 INTRA-LIGAND FREE ENERGY PREDICTED BY IDOCK:   -1.19 KCAL/MOL
REMARK 927      BINDING AFFINITY PREDICTED BY RF-SCORE:    0.00 PKD
ROOT
HETATM    1  C   UNL     1     -11.285   6.197  69.413  1.00  0.00    -0.466 C  
HETATM    2  C   UNL     1     -10.610   6.800  68.178  1.00  0.00    -0.230 C  
ENDROOT
BRANCH   2   3
HETATM    3  N   UNL     1      -9.255   7.361  68.397  1.00  0.00    -0.139 NA 
BRANCH   3   4
HETATM    4  C   UNL     1      -8.238   6.592  67.661  1.00  0.00    -0.122 C  
HETATM    5  C   UNL     1      -7.306   5.719  68.493  1.00  0.00    -0.084 C  
ENDBRANCH   3   4
BRANCH   3   6
HETATM    6  C   UNL     1      -9.210   8.845  68.156  1.00  0.00    -0.139 C  
HETATM    7  C   UNL     1     -10.548   9.273  67.487  1.00  0.00    -0.329 C  
BRANCH   6   8
HETATM    8  C   UNL     1      -9.063   9.818  69.396  1.00  0.00    -0.201 C  
BRANCH   8   9
HETATM    9  N   UNL     1      -9.373   9.275  70.754  1.00  0.00    -0.259 NA 
HETATM   10  C   UNL     1     -10.713   9.437  71.218  1.00  0.00    -0.350 A  
HETATM   11  C   UNL     1     -11.576  10.433  70.711  1.00  0.00    -0.450 A  
HETATM   12  C   UNL     1     -12.951  10.441  70.977  1.00  0.00    -0.490 A  
HETATM   13  C   UNL     1     -13.501   9.471  71.796  1.00  0.00    -0.480 A  
HETATM   14  C   UNL     1     -12.659   8.556  72.415  1.00  0.00    -0.409 A  
HETATM   15  C   UNL     1     -11.273   8.558  72.168  1.00  0.00    -0.362 A  
HETATM   16  S   UNL     1     -10.330   7.381  73.098  1.00  0.00    -0.365 SA 
HETATM   17  C   UNL     1      -8.679   7.656  72.501  1.00  0.00    -0.132 A  
HETATM   18  C   UNL     1      -7.683   6.895  73.144  1.00  0.00    -0.096 A  
HETATM   19  C   UNL     1      -6.364   6.921  72.704  1.00  0.00    -0.053 A  
HETATM   20  C   UNL     1      -6.038   7.718  71.620  1.00  0.00    -0.035 A  
HETATM   21  C   UNL     1      -7.017   8.499  70.994  1.00  0.00    -0.062 A  
HETATM   22  C   UNL     1      -8.370   8.493  71.403  1.00  0.00    -0.161 A  
ENDBRANCH   8   9
ENDBRANCH   6   8
ENDBRANCH   3   6
ENDBRANCH   2   3
TORSDOF 5
ENDMDL
MODEL       79
REMARK 921   NORMALIZED FREE ENERGY PREDICTED BY IDOCK:   -4.47 KCAL/MOL
REMARK 922        TOTAL FREE ENERGY PREDICTED BY IDOCK:   -6.60 KCAL/MOL
REMARK 923 INTER-LIGAND FREE ENERGY PREDICTED BY IDOCK:   -6.15 KCAL/MOL
REMARK 924 INTRA-LIGAND FREE ENERGY PREDICTED BY IDOCK:   -0.45 KCAL/MOL
REMARK 927      BINDING AFFINITY PREDICTED BY RF-SCORE:    0.00 PKD
ROOT
HETATM    1  C   UNL     1     -10.021   8.710  71.546  1.00  0.00    -0.344 C  
HETATM    2  C   UNL     1     -10.144   8.226  70.099  1.00  0.00    -0.191 C  
ENDROOT
BRANCH   2   3
HETATM    3  N   UNL     1      -9.296   8.935  69.111  1.00  0.00    -0.148 NA 
BRANCH   3   4
HETATM    4  C   UNL     1      -7.975   8.297  68.988  1.00  0.00    -0.112 C  
HETATM    5  C   UNL     1      -6.888   9.104  68.289  1.00  0.00    -0.065 C  
ENDBRANCH   3   4
BRANCH   3   6
HETATM    6  C   UNL     1     -10.009   9.150  67.803  1.00  0.00    -0.189 C  
HETATM    7  C   UNL     1     -10.395   7.760  67.222  1.00  0.00    -0.371 C  
BRANCH   6   8
HETATM    8  C   UNL     1     -11.364   9.968  67.795  1.00  0.00     0.106 C  
BRANCH   8   9
HETATM    9  N   UNL     1     -11.300  11.428  67.480  1.00  0.00    -0.391 NA 
HETATM   10  C   UNL     1     -11.027  11.780  66.123  1.00  0.00    -0.307 A  
HETATM   11  C   UNL     1     -10.383  10.898  65.226  1.00  0.00    -0.334 A  
HETATM   12  C   UNL     1     -10.334  11.135  63.848  1.00  0.00    -0.441 A  
HETATM   13  C   UNL     1     -10.896  12.287  63.325  1.00  0.00    -0.359 A  
HETATM   14  C   UNL     1     -11.420  13.235  64.194  1.00  0.00    -0.438 A  
HETATM   15  C   UNL     1     -11.450  13.011  65.584  1.00  0.00    -0.333 A  
HETATM   16  S   UNL     1     -12.075  14.353  66.559  1.00  0.00    -0.302 SA 
HETATM   17  C   UNL     1     -11.992  13.696  68.208  1.00  0.00    -0.350 A  
HETATM   18  C   UNL     1     -12.359  14.602  69.224  1.00  0.00    -0.160 A  
HETATM   19  C   UNL     1     -12.453  14.192  70.550  1.00  0.00    -0.431 A  
HETATM   20  C   UNL     1     -12.171  12.874  70.863  1.00  0.00    -0.290 A  
HETATM   21  C   UNL     1     -11.779  11.976  69.864  1.00  0.00    -0.374 A  
HETATM   22  C   UNL     1     -11.682  12.348  68.503  1.00  0.00    -0.326 A  
ENDBRANCH   8   9
ENDBRANCH   6   8
ENDBRANCH   3   6
ENDBRANCH   2   3
TORSDOF 5
ENDMDL
MODEL       80
REMARK 921   NORMALIZED FREE ENERGY PREDICTED BY IDOCK:   -4.46 KCAL/MOL
REMARK 922        TOTAL FREE ENERGY PREDICTED BY IDOCK:   -6.57 KCAL/MOL
REMARK 923 INTER-LIGAND FREE ENERGY PREDICTED BY IDOCK:   -6.17 KCAL/MOL
REMARK 924 INTRA-LIGAND FREE ENERGY PREDICTED BY IDOCK:   -0.40 KCAL/MOL
REMARK 927      BINDING AFFINITY PREDICTED BY RF-SCORE:    0.00 PKD
ROOT
HETATM    1  C   UNL     1     -10.788  11.437  64.372  1.00  0.00    -0.397 C  
HETATM    2  C   UNL     1     -11.430  12.302  65.459  1.00  0.00    -0.361 C  
ENDROOT
BRANCH   2   3
HETATM    3  N   UNL     1     -10.487  13.021  66.349  1.00  0.00    -0.273 NA 
BRANCH   3   4
HETATM    4  C   UNL     1     -10.506  14.469  66.086  1.00  0.00    -0.298 C  
HETATM    5  C   UNL     1      -9.178  15.204  66.210  1.00  0.00    -0.336 C  
ENDBRANCH   3   4
BRANCH   3   6
HETATM    6  C   UNL     1     -10.675  12.646  67.794  1.00  0.00    -0.220 C  
HETATM    7  C   UNL     1     -11.904  13.425  68.345  1.00  0.00    -0.401 C  
BRANCH   6   8
HETATM    8  C   UNL     1     -10.970  11.136  68.163  1.00  0.00    -0.238 C  
BRANCH   8   9
HETATM    9  N   UNL     1     -10.308  10.569  69.378  1.00  0.00    -0.231 NA 
HETATM   10  C   UNL     1     -11.167  10.145  70.437  1.00  0.00    -0.330 A  
HETATM   11  C   UNL     1     -12.481  10.640  70.591  1.00  0.00    -0.462 A  
HETATM   12  C   UNL     1     -13.405  10.056  71.466  1.00  0.00    -0.451 A  
HETATM   13  C   UNL     1     -13.028   8.978  72.247  1.00  0.00    -0.490 A  
HETATM   14  C   UNL     1     -11.707   8.551  72.215  1.00  0.00    -0.443 A  
HETATM   15  C   UNL     1     -10.769   9.151  71.353  1.00  0.00    -0.343 A  
HETATM   16  S   UNL     1      -9.109   8.547  71.493  1.00  0.00    -0.237 SA 
HETATM   17  C   UNL     1      -8.253   9.493  70.256  1.00  0.00    -0.187 A  
HETATM   18  C   UNL     1      -6.862   9.273  70.202  1.00  0.00    -0.063 A  
HETATM   19  C   UNL     1      -6.082   9.856  69.209  1.00  0.00    -0.040 A  
HETATM   20  C   UNL     1      -6.694  10.669  68.271  1.00  0.00    -0.063 A  
HETATM   21  C   UNL     1      -8.071  10.915  68.336  1.00  0.00    -0.131 A  
HETATM   22  C   UNL     1      -8.901  10.333  69.322  1.00  0.00    -0.177 A  
ENDBRANCH   8   9
ENDBRANCH   6   8
ENDBRANCH   3   6
ENDBRANCH   2   3
TORSDOF 5
ENDMDL
MODEL       81
REMARK 921   NORMALIZED FREE ENERGY PREDICTED BY IDOCK:   -4.45 KCAL/MOL
REMARK 922        TOTAL FREE ENERGY PREDICTED BY IDOCK:   -6.56 KCAL/MOL
REMARK 923 INTER-LIGAND FREE ENERGY PREDICTED BY IDOCK:   -6.19 KCAL/MOL
REMARK 924 INTRA-LIGAND FREE ENERGY PREDICTED BY IDOCK:   -0.37 KCAL/MOL
REMARK 927      BINDING AFFINITY PREDICTED BY RF-SCORE:    0.00 PKD
ROOT
HETATM    1  C   UNL     1      -8.915  19.511  68.876  1.00  0.00    -0.316 C  
HETATM    2  C   UNL     1      -9.981  18.412  68.901  1.00  0.00    -0.345 C  
ENDROOT
BRANCH   2   3
HETATM    3  N   UNL     1     -10.392  17.887  67.576  1.00  0.00    -0.363 NA 
BRANCH   3   4
HETATM    4  C   UNL     1      -9.796  18.674  66.485  1.00  0.00    -0.364 C  
HETATM    5  C   UNL     1     -10.723  19.633  65.748  1.00  0.00    -0.493 C  
ENDBRANCH   3   4
BRANCH   3   6
HETATM    6  C   UNL     1     -10.178  16.402  67.464  1.00  0.00    -0.273 C  
HETATM    7  C   UNL     1     -11.501  15.686  67.861  1.00  0.00    -0.253 C  
BRANCH   6   8
HETATM    8  C   UNL     1      -9.806  15.785  66.055  1.00  0.00    -0.337 C  
BRANCH   8   9
HETATM    9  N   UNL     1      -9.582  14.309  65.973  1.00  0.00    -0.278 NA 
HETATM   10  C   UNL     1      -8.583  13.765  66.836  1.00  0.00    -0.109 A  
HETATM   11  C   UNL     1      -7.536  14.547  67.373  1.00  0.00    -0.209 A  
HETATM   12  C   UNL     1      -6.708  14.085  68.402  1.00  0.00    -0.099 A  
HETATM   13  C   UNL     1      -6.875  12.806  68.902  1.00  0.00    -0.096 A  
HETATM   14  C   UNL     1      -7.809  11.967  68.307  1.00  0.00    -0.145 A  
HETATM   15  C   UNL     1      -8.628  12.420  67.256  1.00  0.00    -0.185 A  
HETATM   16  S   UNL     1      -9.707  11.203  66.551  1.00  0.00    -0.205 SA 
HETATM   17  C   UNL     1     -10.580  12.135  65.316  1.00  0.00    -0.281 A  
HETATM   18  C   UNL     1     -11.468  11.381  64.523  1.00  0.00    -0.123 A  
HETATM   19  C   UNL     1     -12.302  11.997  63.597  1.00  0.00    -0.648 A  
HETATM   20  C   UNL     1     -12.243  13.372  63.456  1.00  0.00    -0.468 A  
HETATM   21  C   UNL     1     -11.343  14.125  64.220  1.00  0.00    -0.241 A  
HETATM   22  C   UNL     1     -10.487  13.540  65.181  1.00  0.00    -0.364 A  
ENDBRANCH   8   9
ENDBRANCH   6   8
ENDBRANCH   3   6
ENDBRANCH   2   3
TORSDOF 5
ENDMDL
MODEL       82
REMARK 921   NORMALIZED FREE ENERGY PREDICTED BY IDOCK:   -4.44 KCAL/MOL
REMARK 922        TOTAL FREE ENERGY PREDICTED BY IDOCK:   -6.56 KCAL/MOL
REMARK 923 INTER-LIGAND FREE ENERGY PREDICTED BY IDOCK:   -6.34 KCAL/MOL
REMARK 924 INTRA-LIGAND FREE ENERGY PREDICTED BY IDOCK:   -0.22 KCAL/MOL
REMARK 927      BINDING AFFINITY PREDICTED BY RF-SCORE:    0.00 PKD
ROOT
HETATM    1  C   UNL     1     -12.022   6.660  70.723  1.00  0.00    -0.412 C  
HETATM    2  C   UNL     1     -11.172   6.366  69.484  1.00  0.00    -0.412 C  
ENDROOT
BRANCH   2   3
HETATM    3  N   UNL     1      -9.853   7.041  69.436  1.00  0.00    -0.159 NA 
BRANCH   3   4
HETATM    4  C   UNL     1      -8.802   6.197  70.026  1.00  0.00    -0.144 C  
HETATM    5  C   UNL     1      -8.351   4.995  69.205  1.00  0.00    -0.082 C  
ENDBRANCH   3   4
BRANCH   3   6
HETATM    6  C   UNL     1      -9.535   7.566  68.062  1.00  0.00    -0.142 C  
HETATM    7  C   UNL     1     -10.812   7.435  67.182  1.00  0.00    -0.340 C  
BRANCH   6   8
HETATM    8  C   UNL     1      -9.101   9.079  67.900  1.00  0.00    -0.135 C  
BRANCH   8   9
HETATM    9  N   UNL     1     -10.121  10.052  67.402  1.00  0.00    -0.196 NA 
HETATM   10  C   UNL     1     -10.958  10.661  68.385  1.00  0.00    -0.251 A  
HETATM   11  C   UNL     1     -11.186  10.081  69.653  1.00  0.00    -0.285 A  
HETATM   12  C   UNL     1     -11.796  10.782  70.699  1.00  0.00    -0.460 A  
HETATM   13  C   UNL     1     -12.236  12.079  70.498  1.00  0.00    -0.414 A  
HETATM   14  C   UNL     1     -12.144  12.631  69.227  1.00  0.00    -0.218 A  
HETATM   15  C   UNL     1     -11.552  11.921  68.165  1.00  0.00    -0.334 A  
HETATM   16  S   UNL     1     -11.589  12.732  66.590  1.00  0.00    -0.388 SA 
HETATM   17  C   UNL     1     -10.739  11.574  65.544  1.00  0.00    -0.272 A  
HETATM   18  C   UNL     1     -10.693  11.932  64.181  1.00  0.00    -0.402 A  
HETATM   19  C   UNL     1      -9.963  11.180  63.267  1.00  0.00    -0.419 A  
HETATM   20  C   UNL     1      -9.283  10.061  63.715  1.00  0.00    -0.314 A  
HETATM   21  C   UNL     1      -9.348   9.683  65.062  1.00  0.00    -0.319 A  
HETATM   22  C   UNL     1     -10.069  10.426  66.025  1.00  0.00    -0.243 A  
ENDBRANCH   8   9
ENDBRANCH   6   8
ENDBRANCH   3   6
ENDBRANCH   2   3
TORSDOF 5
ENDMDL
MODEL       83
REMARK 921   NORMALIZED FREE ENERGY PREDICTED BY IDOCK:   -4.42 KCAL/MOL
REMARK 922        TOTAL FREE ENERGY PREDICTED BY IDOCK:   -6.53 KCAL/MOL
REMARK 923 INTER-LIGAND FREE ENERGY PREDICTED BY IDOCK:   -5.74 KCAL/MOL
REMARK 924 INTRA-LIGAND FREE ENERGY PREDICTED BY IDOCK:   -0.79 KCAL/MOL
REMARK 927      BINDING AFFINITY PREDICTED BY RF-SCORE:    0.00 PKD
ROOT
HETATM    1  C   UNL     1      -7.630  10.427  69.672  1.00  0.00    -0.158 C  
HETATM    2  C   UNL     1      -7.770  11.302  68.423  1.00  0.00    -0.125 C  
ENDROOT
BRANCH   2   3
HETATM    3  N   UNL     1      -8.679  12.466  68.553  1.00  0.00    -0.114 NA 
BRANCH   3   4
HETATM    4  C   UNL     1      -7.919  13.721  68.672  1.00  0.00    -0.095 C  
HETATM    5  C   UNL     1      -8.537  14.958  68.032  1.00  0.00    -0.160 C  
ENDBRANCH   3   4
BRANCH   3   6
HETATM    6  C   UNL     1      -9.741  12.478  67.487  1.00  0.00    -0.196 C  
HETATM    7  C   UNL     1      -9.407  11.365  66.452  1.00  0.00    -0.219 C  
BRANCH   6   8
HETATM    8  C   UNL     1     -11.243  12.193  67.899  1.00  0.00    -0.272 C  
BRANCH   8   9
HETATM    9  N   UNL     1     -11.529  11.882  69.333  1.00  0.00    -0.290 NA 
HETATM   10  C   UNL     1     -12.029  12.953  70.133  1.00  0.00    -0.301 A  
HETATM   11  C   UNL     1     -11.826  14.310  69.797  1.00  0.00    -0.380 A  
HETATM   12  C   UNL     1     -12.514  15.350  70.431  1.00  0.00    -0.447 A  
HETATM   13  C   UNL     1     -13.402  15.068  71.455  1.00  0.00    -0.500 A  
HETATM   14  C   UNL     1     -13.525  13.757  71.897  1.00  0.00    -0.514 A  
HETATM   15  C   UNL     1     -12.817  12.710  71.276  1.00  0.00    -0.250 A  
HETATM   16  S   UNL     1     -13.021  11.111  72.012  1.00  0.00    -0.082 SA 
HETATM   17  C   UNL     1     -12.032  10.077  70.959  1.00  0.00    -0.376 A  
HETATM   18  C   UNL     1     -11.941   8.731  71.368  1.00  0.00    -0.367 A  
HETATM   19  C   UNL     1     -11.297   7.784  70.579  1.00  0.00    -0.253 A  
HETATM   20  C   UNL     1     -10.734   8.185  69.380  1.00  0.00    -0.164 A  
HETATM   21  C   UNL     1     -10.795   9.526  68.981  1.00  0.00    -0.184 A  
HETATM   22  C   UNL     1     -11.450  10.517  69.748  1.00  0.00    -0.294 A  
ENDBRANCH   8   9
ENDBRANCH   6   8
ENDBRANCH   3   6
ENDBRANCH   2   3
TORSDOF 5
ENDMDL
MODEL       84
REMARK 921   NORMALIZED FREE ENERGY PREDICTED BY IDOCK:   -4.42 KCAL/MOL
REMARK 922        TOTAL FREE ENERGY PREDICTED BY IDOCK:   -6.53 KCAL/MOL
REMARK 923 INTER-LIGAND FREE ENERGY PREDICTED BY IDOCK:   -5.63 KCAL/MOL
REMARK 924 INTRA-LIGAND FREE ENERGY PREDICTED BY IDOCK:   -0.90 KCAL/MOL
REMARK 927      BINDING AFFINITY PREDICTED BY RF-SCORE:    0.00 PKD
ROOT
HETATM    1  C   UNL     1      -8.406   8.016  74.076  1.00  0.00    -0.323 C  
HETATM    2  C   UNL     1      -9.592   7.575  73.214  1.00  0.00    -0.254 C  
ENDROOT
BRANCH   2   3
HETATM    3  N   UNL     1      -9.245   6.983  71.899  1.00  0.00    -0.141 NA 
BRANCH   3   4
HETATM    4  C   UNL     1      -7.938   6.308  71.949  1.00  0.00    -0.102 C  
HETATM    5  C   UNL     1      -7.807   5.012  71.160  1.00  0.00    -0.093 C  
ENDBRANCH   3   4
BRANCH   3   6
HETATM    6  C   UNL     1     -10.361   6.141  71.345  1.00  0.00    -0.214 C  
HETATM    7  C   UNL     1     -11.291   5.726  72.521  1.00  0.00    -0.358 C  
BRANCH   6   8
HETATM    8  C   UNL     1     -11.341   6.774  70.275  1.00  0.00    -0.352 C  
BRANCH   8   9
HETATM    9  N   UNL     1     -11.017   8.135  69.748  1.00  0.00    -0.187 NA 
HETATM   10  C   UNL     1     -10.207   8.191  68.574  1.00  0.00    -0.208 A  
HETATM   11  C   UNL     1      -9.356   7.132  68.189  1.00  0.00    -0.129 A  
HETATM   12  C   UNL     1      -8.754   7.075  66.926  1.00  0.00    -0.122 A  
HETATM   13  C   UNL     1      -8.953   8.101  66.019  1.00  0.00    -0.213 A  
HETATM   14  C   UNL     1      -9.678   9.217  66.415  1.00  0.00    -0.325 A  
HETATM   15  C   UNL     1     -10.266   9.289  67.692  1.00  0.00    -0.230 A  
HETATM   16  S   UNL     1     -11.085  10.815  68.070  1.00  0.00    -0.316 SA 
HETATM   17  C   UNL     1     -11.713  10.516  69.705  1.00  0.00    -0.281 A  
HETATM   18  C   UNL     1     -12.354  11.620  70.303  1.00  0.00    -0.339 A  
HETATM   19  C   UNL     1     -12.994  11.498  71.532  1.00  0.00    -0.485 A  
HETATM   20  C   UNL     1     -12.986  10.270  72.170  1.00  0.00    -0.410 A  
HETATM   21  C   UNL     1     -12.327   9.177  71.596  1.00  0.00    -0.434 A  
HETATM   22  C   UNL     1     -11.674   9.255  70.343  1.00  0.00    -0.114 A  
ENDBRANCH   8   9
ENDBRANCH   6   8
ENDBRANCH   3   6
ENDBRANCH   2   3
TORSDOF 5
ENDMDL
MODEL       85
REMARK 921   NORMALIZED FREE ENERGY PREDICTED BY IDOCK:   -4.41 KCAL/MOL
REMARK 922        TOTAL FREE ENERGY PREDICTED BY IDOCK:   -6.52 KCAL/MOL
REMARK 923 INTER-LIGAND FREE ENERGY PREDICTED BY IDOCK:   -5.83 KCAL/MOL
REMARK 924 INTRA-LIGAND FREE ENERGY PREDICTED BY IDOCK:   -0.69 KCAL/MOL
REMARK 927      BINDING AFFINITY PREDICTED BY RF-SCORE:    0.00 PKD
ROOT
HETATM    1  C   UNL     1      -7.206   9.385  69.915  1.00  0.00    -0.083 C  
HETATM    2  C   UNL     1      -6.915   9.960  68.527  1.00  0.00    -0.067 C  
ENDROOT
BRANCH   2   3
HETATM    3  N   UNL     1      -8.105  10.280  67.702  1.00  0.00    -0.106 NA 
BRANCH   3   4
HETATM    4  C   UNL     1      -9.173   9.289  67.905  1.00  0.00    -0.129 C  
HETATM    5  C   UNL     1      -9.540   8.424  66.705  1.00  0.00    -0.294 C  
ENDBRANCH   3   4
BRANCH   3   6
HETATM    6  C   UNL     1      -8.541  11.711  67.868  1.00  0.00    -0.150 C  
HETATM    7  C   UNL     1      -7.396  12.633  67.361  1.00  0.00    -0.140 C  
BRANCH   6   8
HETATM    8  C   UNL     1      -9.824  12.216  67.091  1.00  0.00    -0.197 C  
BRANCH   8   9
HETATM    9  N   UNL     1     -10.684  13.246  67.753  1.00  0.00    -0.240 NA 
HETATM   10  C   UNL     1     -11.502  12.798  68.834  1.00  0.00    -0.305 A  
HETATM   11  C   UNL     1     -11.881  11.446  68.989  1.00  0.00    -0.415 A  
HETATM   12  C   UNL     1     -12.468  10.963  70.164  1.00  0.00    -0.356 A  
HETATM   13  C   UNL     1     -12.731  11.828  71.211  1.00  0.00    -0.420 A  
HETATM   14  C   UNL     1     -12.490  13.185  71.040  1.00  0.00    -0.406 A  
HETATM   15  C   UNL     1     -11.922  13.680  69.850  1.00  0.00    -0.348 A  
HETATM   16  S   UNL     1     -11.757  15.442  69.759  1.00  0.00    -0.358 SA 
HETATM   17  C   UNL     1     -10.989  15.671  68.172  1.00  0.00    -0.314 A  
HETATM   18  C   UNL     1     -10.811  17.016  67.791  1.00  0.00    -0.269 A  
HETATM   19  C   UNL     1     -10.120  17.347  66.630  1.00  0.00    -0.317 A  
HETATM   20  C   UNL     1      -9.613  16.328  65.842  1.00  0.00    -0.336 A  
HETATM   21  C   UNL     1      -9.811  14.989  66.200  1.00  0.00    -0.325 A  
HETATM   22  C   UNL     1     -10.497  14.611  67.377  1.00  0.00    -0.255 A  
ENDBRANCH   8   9
ENDBRANCH   6   8
ENDBRANCH   3   6
ENDBRANCH   2   3
TORSDOF 5
ENDMDL
MODEL       86
REMARK 921   NORMALIZED FREE ENERGY PREDICTED BY IDOCK:   -4.40 KCAL/MOL
REMARK 922        TOTAL FREE ENERGY PREDICTED BY IDOCK:   -6.50 KCAL/MOL
REMARK 923 INTER-LIGAND FREE ENERGY PREDICTED BY IDOCK:   -5.99 KCAL/MOL
REMARK 924 INTRA-LIGAND FREE ENERGY PREDICTED BY IDOCK:   -0.52 KCAL/MOL
REMARK 927      BINDING AFFINITY PREDICTED BY RF-SCORE:    0.00 PKD
ROOT
HETATM    1  C   UNL     1     -10.666  19.347  67.028  1.00  0.00    -0.582 C  
HETATM    2  C   UNL     1      -9.259  18.933  67.469  1.00  0.00    -0.290 C  
ENDROOT
BRANCH   2   3
HETATM    3  N   UNL     1      -8.320  18.586  66.376  1.00  0.00    -0.339 NA 
BRANCH   3   4
HETATM    4  C   UNL     1      -7.217  19.558  66.295  1.00  0.00    -0.262 C  
HETATM    5  C   UNL     1      -7.149  20.607  67.397  1.00  0.00    -0.399 C  
ENDBRANCH   3   4
BRANCH   3   6
HETATM    6  C   UNL     1      -7.882  17.148  66.440  1.00  0.00    -0.317 C  
HETATM    7  C   UNL     1      -6.396  17.110  66.899  1.00  0.00    -0.237 C  
BRANCH   6   8
HETATM    8  C   UNL     1      -8.624  16.164  67.433  1.00  0.00    -0.180 C  
BRANCH   8   9
HETATM    9  N   UNL     1      -8.927  14.781  66.952  1.00  0.00    -0.240 NA 
HETATM   10  C   UNL     1      -8.182  13.718  67.546  1.00  0.00    -0.188 A  
HETATM   11  C   UNL     1      -6.929  13.924  68.165  1.00  0.00    -0.120 A  
HETATM   12  C   UNL     1      -6.315  12.948  68.957  1.00  0.00    -0.100 A  
HETATM   13  C   UNL     1      -6.918  11.713  69.123  1.00  0.00    -0.105 A  
HETATM   14  C   UNL     1      -8.085  11.434  68.423  1.00  0.00    -0.145 A  
HETATM   15  C   UNL     1      -8.694  12.406  67.607  1.00  0.00    -0.178 A  
HETATM   16  S   UNL     1     -10.128  11.865  66.717  1.00  0.00    -0.204 SA 
HETATM   17  C   UNL     1     -10.620  13.338  65.854  1.00  0.00    -0.281 A  
HETATM   18  C   UNL     1     -11.714  13.174  64.980  1.00  0.00    -0.369 A  
HETATM   19  C   UNL     1     -12.280  14.264  64.328  1.00  0.00    -0.451 A  
HETATM   20  C   UNL     1     -11.745  15.522  64.542  1.00  0.00    -0.253 A  
HETATM   21  C   UNL     1     -10.641  15.688  65.386  1.00  0.00    -0.436 A  
HETATM   22  C   UNL     1     -10.043  14.609  66.077  1.00  0.00    -0.311 A  
ENDBRANCH   8   9
ENDBRANCH   6   8
ENDBRANCH   3   6
ENDBRANCH   2   3
TORSDOF 5
ENDMDL
MODEL       87
REMARK 921   NORMALIZED FREE ENERGY PREDICTED BY IDOCK:   -4.40 KCAL/MOL
REMARK 922        TOTAL FREE ENERGY PREDICTED BY IDOCK:   -6.50 KCAL/MOL
REMARK 923 INTER-LIGAND FREE ENERGY PREDICTED BY IDOCK:   -5.72 KCAL/MOL
REMARK 924 INTRA-LIGAND FREE ENERGY PREDICTED BY IDOCK:   -0.78 KCAL/MOL
REMARK 927      BINDING AFFINITY PREDICTED BY RF-SCORE:    0.00 PKD
ROOT
HETATM    1  C   UNL     1      -9.502   1.985  68.865  1.00  0.00    -0.174 C  
HETATM    2  C   UNL     1      -9.332   3.076  67.805  1.00  0.00    -0.202 C  
ENDROOT
BRANCH   2   3
HETATM    3  N   UNL     1      -9.359   4.471  68.308  1.00  0.00    -0.133 NA 
BRANCH   3   4
HETATM    4  C   UNL     1      -8.088   4.825  68.960  1.00  0.00    -0.078 C  
HETATM    5  C   UNL     1      -7.463   6.156  68.561  1.00  0.00    -0.087 C  
ENDBRANCH   3   4
BRANCH   3   6
HETATM    6  C   UNL     1      -9.813   5.444  67.254  1.00  0.00    -0.156 C  
HETATM    7  C   UNL     1     -10.281   4.635  66.010  1.00  0.00    -0.306 C  
BRANCH   6   8
HETATM    8  C   UNL     1     -11.027   6.409  67.573  1.00  0.00    -0.364 C  
BRANCH   8   9
HETATM    9  N   UNL     1     -10.746   7.655  68.351  1.00  0.00    -0.109 NA 
HETATM   10  C   UNL     1     -10.410   8.819  67.596  1.00  0.00    -0.254 A  
HETATM   11  C   UNL     1      -9.893   8.748  66.283  1.00  0.00    -0.342 A  
HETATM   12  C   UNL     1      -9.795   9.872  65.454  1.00  0.00    -0.384 A  
HETATM   13  C   UNL     1     -10.177  11.115  65.929  1.00  0.00    -0.303 A  
HETATM   14  C   UNL     1     -10.566  11.239  67.256  1.00  0.00    -0.271 A  
HETATM   15  C   UNL     1     -10.644  10.114  68.100  1.00  0.00    -0.223 A  
HETATM   16  S   UNL     1     -11.075  10.454  69.785  1.00  0.00    -0.314 SA 
HETATM   17  C   UNL     1     -11.107   8.829  70.505  1.00  0.00    -0.246 A  
HETATM   18  C   UNL     1     -11.348   8.803  71.894  1.00  0.00    -0.431 A  
HETATM   19  C   UNL     1     -11.515   7.600  72.570  1.00  0.00    -0.405 A  
HETATM   20  C   UNL     1     -11.433   6.416  71.857  1.00  0.00    -0.352 A  
HETATM   21  C   UNL     1     -11.165   6.434  70.483  1.00  0.00    -0.414 A  
HETATM   22  C   UNL     1     -11.001   7.635  69.756  1.00  0.00    -0.170 A  
ENDBRANCH   8   9
ENDBRANCH   6   8
ENDBRANCH   3   6
ENDBRANCH   2   3
TORSDOF 5
ENDMDL
MODEL       88
REMARK 921   NORMALIZED FREE ENERGY PREDICTED BY IDOCK:   -4.40 KCAL/MOL
REMARK 922        TOTAL FREE ENERGY PREDICTED BY IDOCK:   -6.50 KCAL/MOL
REMARK 923 INTER-LIGAND FREE ENERGY PREDICTED BY IDOCK:   -5.88 KCAL/MOL
REMARK 924 INTRA-LIGAND FREE ENERGY PREDICTED BY IDOCK:   -0.62 KCAL/MOL
REMARK 927      BINDING AFFINITY PREDICTED BY RF-SCORE:    0.00 PKD
ROOT
HETATM    1  C   UNL     1     -10.672   8.857  71.936  1.00  0.00    -0.426 C  
HETATM    2  C   UNL     1     -10.111   8.244  70.650  1.00  0.00    -0.191 C  
ENDROOT
BRANCH   2   3
HETATM    3  N   UNL     1      -9.403   9.182  69.747  1.00  0.00    -0.172 NA 
BRANCH   3   4
HETATM    4  C   UNL     1      -8.054   9.489  70.250  1.00  0.00    -0.181 C  
HETATM    5  C   UNL     1      -7.227  10.473  69.433  1.00  0.00    -0.117 C  
ENDBRANCH   3   4
BRANCH   3   6
HETATM    6  C   UNL     1      -9.445   8.728  68.313  1.00  0.00    -0.141 C  
HETATM    7  C   UNL     1      -9.665   7.188  68.294  1.00  0.00    -0.148 C  
BRANCH   6   8
HETATM    8  C   UNL     1     -10.575   9.297  67.362  1.00  0.00    -0.255 C  
BRANCH   8   9
HETATM    9  N   UNL     1     -10.344  10.625  66.715  1.00  0.00    -0.236 NA 
HETATM   10  C   UNL     1      -9.837  10.607  65.380  1.00  0.00    -0.267 A  
HETATM   11  C   UNL     1      -9.137   9.501  64.849  1.00  0.00    -0.276 A  
HETATM   12  C   UNL     1      -8.857   9.377  63.483  1.00  0.00    -0.198 A  
HETATM   13  C   UNL     1      -9.235  10.379  62.607  1.00  0.00    -0.322 A  
HETATM   14  C   UNL     1      -9.808  11.538  63.115  1.00  0.00    -0.413 A  
HETATM   15  C   UNL     1     -10.070  11.677  64.492  1.00  0.00    -0.278 A  
HETATM   16  S   UNL     1     -10.725  13.247  64.988  1.00  0.00    -0.353 SA 
HETATM   17  C   UNL     1     -10.952  13.030  66.737  1.00  0.00    -0.276 A  
HETATM   18  C   UNL     1     -11.396  14.179  67.423  1.00  0.00    -0.346 A  
HETATM   19  C   UNL     1     -11.726  14.125  68.773  1.00  0.00    -0.380 A  
HETATM   20  C   UNL     1     -11.605  12.920  69.442  1.00  0.00    -0.363 A  
HETATM   21  C   UNL     1     -11.138  11.781  68.775  1.00  0.00    -0.293 A  
HETATM   22  C   UNL     1     -10.802  11.790  67.401  1.00  0.00    -0.251 A  
ENDBRANCH   8   9
ENDBRANCH   6   8
ENDBRANCH   3   6
ENDBRANCH   2   3
TORSDOF 5
ENDMDL
MODEL       89
REMARK 921   NORMALIZED FREE ENERGY PREDICTED BY IDOCK:   -4.37 KCAL/MOL
REMARK 922        TOTAL FREE ENERGY PREDICTED BY IDOCK:   -6.46 KCAL/MOL
REMARK 923 INTER-LIGAND FREE ENERGY PREDICTED BY IDOCK:   -6.21 KCAL/MOL
REMARK 924 INTRA-LIGAND FREE ENERGY PREDICTED BY IDOCK:   -0.25 KCAL/MOL
REMARK 927      BINDING AFFINITY PREDICTED BY RF-SCORE:    0.00 PKD
ROOT
HETATM    1  C   UNL     1      -9.025   9.739  69.742  1.00  0.00    -0.239 C  
HETATM    2  C   UNL     1      -9.612   9.109  71.008  1.00  0.00    -0.280 C  
ENDROOT
BRANCH   2   3
HETATM    3  N   UNL     1     -10.994   9.522  71.349  1.00  0.00    -0.365 NA 
BRANCH   3   4
HETATM    4  C   UNL     1     -11.658  10.156  70.198  1.00  0.00    -0.277 C  
HETATM    5  C   UNL     1     -11.936  11.650  70.307  1.00  0.00    -0.445 C  
ENDBRANCH   3   4
BRANCH   3   6
HETATM    6  C   UNL     1     -11.778   8.407  71.986  1.00  0.00    -0.352 C  
HETATM    7  C   UNL     1     -13.161   8.970  72.424  1.00  0.00    -0.487 C  
BRANCH   6   8
HETATM    8  C   UNL     1     -12.131   7.128  71.123  1.00  0.00    -0.358 C  
BRANCH   8   9
HETATM    9  N   UNL     1     -11.036   6.150  70.839  1.00  0.00    -0.283 NA 
HETATM   10  C   UNL     1     -10.498   5.448  71.959  1.00  0.00    -0.221 A  
HETATM   11  C   UNL     1     -10.597   5.938  73.280  1.00  0.00    -0.277 A  
HETATM   12  C   UNL     1     -10.296   5.149  74.397  1.00  0.00    -0.313 A  
HETATM   13  C   UNL     1      -9.846   3.852  74.225  1.00  0.00    -0.165 A  
HETATM   14  C   UNL     1      -9.613   3.385  72.937  1.00  0.00    -0.167 A  
HETATM   15  C   UNL     1      -9.893   4.183  71.812  1.00  0.00    -0.182 A  
HETATM   16  S   UNL     1      -9.462   3.473  70.247  1.00  0.00    -0.168 SA 
HETATM   17  C   UNL     1      -9.984   4.726  69.101  1.00  0.00    -0.163 A  
HETATM   18  C   UNL     1      -9.680   4.458  67.751  1.00  0.00    -0.191 A  
HETATM   19  C   UNL     1     -10.131   5.293  66.735  1.00  0.00    -0.255 A  
HETATM   20  C   UNL     1     -10.881   6.407  67.069  1.00  0.00    -0.464 A  
HETATM   21  C   UNL     1     -11.162   6.696  68.410  1.00  0.00    -0.215 A  
HETATM   22  C   UNL     1     -10.733   5.867  69.472  1.00  0.00    -0.343 A  
ENDBRANCH   8   9
ENDBRANCH   6   8
ENDBRANCH   3   6
ENDBRANCH   2   3
TORSDOF 5
ENDMDL
MODEL       90
REMARK 921   NORMALIZED FREE ENERGY PREDICTED BY IDOCK:   -4.36 KCAL/MOL
REMARK 922        TOTAL FREE ENERGY PREDICTED BY IDOCK:   -6.46 KCAL/MOL
REMARK 923 INTER-LIGAND FREE ENERGY PREDICTED BY IDOCK:   -6.00 KCAL/MOL
REMARK 924 INTRA-LIGAND FREE ENERGY PREDICTED BY IDOCK:   -0.46 KCAL/MOL
REMARK 927      BINDING AFFINITY PREDICTED BY RF-SCORE:    0.00 PKD
ROOT
HETATM    1  C   UNL     1     -12.842  11.916  71.588  1.00  0.00    -0.417 C  
HETATM    2  C   UNL     1     -12.865  10.413  71.297  1.00  0.00    -0.433 C  
ENDROOT
BRANCH   2   3
HETATM    3  N   UNL     1     -11.634   9.670  71.659  1.00  0.00    -0.379 NA 
BRANCH   3   4
HETATM    4  C   UNL     1     -11.953   8.314  72.134  1.00  0.00    -0.369 C  
HETATM    5  C   UNL     1     -13.261   7.707  71.643  1.00  0.00    -0.395 C  
ENDBRANCH   3   4
BRANCH   3   6
HETATM    6  C   UNL     1     -10.600   9.722  70.567  1.00  0.00    -0.312 C  
HETATM    7  C   UNL     1      -9.285   9.090  71.109  1.00  0.00    -0.326 C  
BRANCH   6   8
HETATM    8  C   UNL     1     -10.875   8.951  69.212  1.00  0.00    -0.096 C  
BRANCH   8   9
HETATM    9  N   UNL     1     -10.174   9.427  67.980  1.00  0.00    -0.192 NA 
HETATM   10  C   UNL     1      -9.218   8.537  67.404  1.00  0.00    -0.140 A  
HETATM   11  C   UNL     1      -8.592   7.512  68.147  1.00  0.00    -0.123 A  
HETATM   12  C   UNL     1      -7.850   6.492  67.539  1.00  0.00    -0.113 A  
HETATM   13  C   UNL     1      -7.678   6.487  66.166  1.00  0.00    -0.092 A  
HETATM   14  C   UNL     1      -8.171   7.551  65.422  1.00  0.00    -0.136 A  
HETATM   15  C   UNL     1      -8.898   8.592  66.032  1.00  0.00    -0.173 A  
HETATM   16  S   UNL     1      -9.384   9.914  64.958  1.00  0.00    -0.279 SA 
HETATM   17  C   UNL     1     -10.284  10.985  66.053  1.00  0.00    -0.252 A  
HETATM   18  C   UNL     1     -10.728  12.189  65.471  1.00  0.00    -0.321 A  
HETATM   19  C   UNL     1     -11.542  13.069  66.175  1.00  0.00    -0.412 A  
HETATM   20  C   UNL     1     -11.909  12.748  67.471  1.00  0.00    -0.402 A  
HETATM   21  C   UNL     1     -11.449  11.567  68.066  1.00  0.00    -0.381 A  
HETATM   22  C   UNL     1     -10.629  10.640  67.381  1.00  0.00    -0.256 A  
ENDBRANCH   8   9
ENDBRANCH   6   8
ENDBRANCH   3   6
ENDBRANCH   2   3
TORSDOF 5
ENDMDL
MODEL       91
REMARK 921   NORMALIZED FREE ENERGY PREDICTED BY IDOCK:   -4.36 KCAL/MOL
REMARK 922        TOTAL FREE ENERGY PREDICTED BY IDOCK:   -6.45 KCAL/MOL
REMARK 923 INTER-LIGAND FREE ENERGY PREDICTED BY IDOCK:   -5.59 KCAL/MOL
REMARK 924 INTRA-LIGAND FREE ENERGY PREDICTED BY IDOCK:   -0.86 KCAL/MOL
REMARK 927      BINDING AFFINITY PREDICTED BY RF-SCORE:    0.00 PKD
ROOT
HETATM    1  C   UNL     1     -10.070  18.107  66.891  1.00  0.00    -0.362 C  
HETATM    2  C   UNL     1     -10.451  16.625  66.840  1.00  0.00    -0.271 C  
ENDROOT
BRANCH   2   3
HETATM    3  N   UNL     1      -9.434  15.682  67.363  1.00  0.00    -0.214 NA 
BRANCH   3   4
HETATM    4  C   UNL     1      -8.160  16.368  67.629  1.00  0.00    -0.156 C  
HETATM    5  C   UNL     1      -7.649  16.330  69.063  1.00  0.00    -0.219 C  
ENDBRANCH   3   4
BRANCH   3   6
HETATM    6  C   UNL     1      -9.957  14.867  68.516  1.00  0.00    -0.223 C  
HETATM    7  C   UNL     1     -11.291  15.506  69.000  1.00  0.00    -0.331 C  
BRANCH   6   8
HETATM    8  C   UNL     1     -10.315  13.344  68.278  1.00  0.00    -0.249 C  
BRANCH   8   9
HETATM    9  N   UNL     1      -9.779  12.682  67.049  1.00  0.00    -0.220 NA 
HETATM   10  C   UNL     1      -8.487  12.083  67.156  1.00  0.00    -0.180 A  
HETATM   11  C   UNL     1      -7.551  12.472  68.140  1.00  0.00    -0.127 A  
HETATM   12  C   UNL     1      -6.393  11.732  68.407  1.00  0.00    -0.051 A  
HETATM   13  C   UNL     1      -6.115  10.595  67.667  1.00  0.00    -0.048 A  
HETATM   14  C   UNL     1      -6.948  10.260  66.608  1.00  0.00    -0.103 A  
HETATM   15  C   UNL     1      -8.101  11.016  66.321  1.00  0.00    -0.159 A  
HETATM   16  S   UNL     1      -9.009  10.506  64.887  1.00  0.00    -0.208 SA 
HETATM   17  C   UNL     1     -10.375  11.644  64.877  1.00  0.00    -0.283 A  
HETATM   18  C   UNL     1     -11.238  11.521  63.769  1.00  0.00    -0.456 A  
HETATM   19  C   UNL     1     -12.409  12.265  63.687  1.00  0.00    -0.664 A  
HETATM   20  C   UNL     1     -12.716  13.142  64.713  1.00  0.00    -0.373 A  
HETATM   21  C   UNL     1     -11.849  13.290  65.802  1.00  0.00    -0.428 A  
HETATM   22  C   UNL     1     -10.654  12.545  65.930  1.00  0.00    -0.265 A  
ENDBRANCH   8   9
ENDBRANCH   6   8
ENDBRANCH   3   6
ENDBRANCH   2   3
TORSDOF 5
ENDMDL
MODEL       92
REMARK 921   NORMALIZED FREE ENERGY PREDICTED BY IDOCK:   -4.35 KCAL/MOL
REMARK 922        TOTAL FREE ENERGY PREDICTED BY IDOCK:   -6.44 KCAL/MOL
REMARK 923 INTER-LIGAND FREE ENERGY PREDICTED BY IDOCK:   -6.11 KCAL/MOL
REMARK 924 INTRA-LIGAND FREE ENERGY PREDICTED BY IDOCK:   -0.33 KCAL/MOL
REMARK 927      BINDING AFFINITY PREDICTED BY RF-SCORE:    0.00 PKD
ROOT
HETATM    1  C   UNL     1     -12.380  12.374  63.943  1.00  0.00    -0.602 C  
HETATM    2  C   UNL     1     -11.382  12.180  65.088  1.00  0.00    -0.327 C  
ENDROOT
BRANCH   2   3
HETATM    3  N   UNL     1     -10.846  10.807  65.246  1.00  0.00    -0.079 NA 
BRANCH   3   4
HETATM    4  C   UNL     1      -9.530  10.672  64.601  1.00  0.00    -0.258 C  
HETATM    5  C   UNL     1      -9.515  10.086  63.195  1.00  0.00    -0.229 C  
ENDBRANCH   3   4
BRANCH   3   6
HETATM    6  C   UNL     1     -10.890  10.343  66.677  1.00  0.00    -0.070 C  
HETATM    7  C   UNL     1     -10.389   8.872  66.730  1.00  0.00    -0.317 C  
BRANCH   6   8
HETATM    8  C   UNL     1     -10.009  11.097  67.755  1.00  0.00    -0.175 C  
BRANCH   8   9
HETATM    9  N   UNL     1     -10.694  11.631  68.971  1.00  0.00    -0.202 NA 
HETATM   10  C   UNL     1     -10.891  13.043  69.027  1.00  0.00    -0.155 A  
HETATM   11  C   UNL     1     -10.105  13.949  68.281  1.00  0.00    -0.241 A  
HETATM   12  C   UNL     1     -10.447  15.299  68.140  1.00  0.00    -0.246 A  
HETATM   13  C   UNL     1     -11.571  15.797  68.776  1.00  0.00    -0.401 A  
HETATM   14  C   UNL     1     -12.291  14.963  69.621  1.00  0.00    -0.244 A  
HETATM   15  C   UNL     1     -11.937  13.610  69.785  1.00  0.00    -0.341 A  
HETATM   16  S   UNL     1     -12.905  12.704  70.961  1.00  0.00    -0.071 SA 
HETATM   17  C   UNL     1     -12.201  11.076  70.862  1.00  0.00    -0.367 A  
HETATM   18  C   UNL     1     -12.736  10.144  71.775  1.00  0.00    -0.534 A  
HETATM   19  C   UNL     1     -12.363   8.805  71.733  1.00  0.00    -0.412 A  
HETATM   20  C   UNL     1     -11.445   8.397  70.781  1.00  0.00    -0.277 A  
HETATM   21  C   UNL     1     -10.888   9.322  69.890  1.00  0.00    -0.252 A  
HETATM   22  C   UNL     1     -11.248  10.689  69.892  1.00  0.00    -0.308 A  
ENDBRANCH   8   9
ENDBRANCH   6   8
ENDBRANCH   3   6
ENDBRANCH   2   3
TORSDOF 5
ENDMDL
MODEL       93
REMARK 921   NORMALIZED FREE ENERGY PREDICTED BY IDOCK:   -4.34 KCAL/MOL
REMARK 922        TOTAL FREE ENERGY PREDICTED BY IDOCK:   -6.43 KCAL/MOL
REMARK 923 INTER-LIGAND FREE ENERGY PREDICTED BY IDOCK:   -6.11 KCAL/MOL
REMARK 924 INTRA-LIGAND FREE ENERGY PREDICTED BY IDOCK:   -0.32 KCAL/MOL
REMARK 927      BINDING AFFINITY PREDICTED BY RF-SCORE:    0.00 PKD
ROOT
HETATM    1  C   UNL     1     -10.579   6.814  68.268  1.00  0.00    -0.276 C  
HETATM    2  C   UNL     1     -10.603   7.953  67.245  1.00  0.00    -0.295 C  
ENDROOT
BRANCH   2   3
HETATM    3  N   UNL     1      -9.301   8.617  66.993  1.00  0.00    -0.152 NA 
BRANCH   3   4
HETATM    4  C   UNL     1      -8.873   8.435  65.597  1.00  0.00    -0.156 C  
HETATM    5  C   UNL     1      -8.035   7.199  65.295  1.00  0.00    -0.127 C  
ENDBRANCH   3   4
BRANCH   3   6
HETATM    6  C   UNL     1      -9.293  10.045  67.468  1.00  0.00    -0.144 C  
HETATM    7  C   UNL     1      -8.167  10.805  66.710  1.00  0.00    -0.135 C  
BRANCH   6   8
HETATM    8  C   UNL     1     -10.584  10.934  67.247  1.00  0.00    -0.251 C  
BRANCH   8   9
HETATM    9  N   UNL     1     -10.861  12.024  68.232  1.00  0.00    -0.217 NA 
HETATM   10  C   UNL     1     -10.529  13.352  67.828  1.00  0.00    -0.243 A  
HETATM   11  C   UNL     1      -9.577  13.622  66.820  1.00  0.00    -0.277 A  
HETATM   12  C   UNL     1      -9.427  14.892  66.251  1.00  0.00    -0.339 A  
HETATM   13  C   UNL     1     -10.201  15.947  66.704  1.00  0.00    -0.293 A  
HETATM   14  C   UNL     1     -11.052  15.743  67.783  1.00  0.00    -0.313 A  
HETATM   15  C   UNL     1     -11.188  14.472  68.373  1.00  0.00    -0.271 A  
HETATM   16  S   UNL     1     -12.249  14.399  69.791  1.00  0.00    -0.296 SA 
HETATM   17  C   UNL     1     -12.197  12.675  70.218  1.00  0.00    -0.271 A  
HETATM   18  C   UNL     1     -12.903  12.335  71.389  1.00  0.00    -0.373 A  
HETATM   19  C   UNL     1     -13.046  11.008  71.781  1.00  0.00    -0.554 A  
HETATM   20  C   UNL     1     -12.473  10.018  71.003  1.00  0.00    -0.460 A  
HETATM   21  C   UNL     1     -11.746  10.350  69.853  1.00  0.00    -0.341 A  
HETATM   22  C   UNL     1     -11.587  11.685  69.414  1.00  0.00    -0.327 A  
ENDBRANCH   8   9
ENDBRANCH   6   8
ENDBRANCH   3   6
ENDBRANCH   2   3
TORSDOF 5
ENDMDL
MODEL       94
REMARK 921   NORMALIZED FREE ENERGY PREDICTED BY IDOCK:   -4.33 KCAL/MOL
REMARK 922        TOTAL FREE ENERGY PREDICTED BY IDOCK:   -6.42 KCAL/MOL
REMARK 923 INTER-LIGAND FREE ENERGY PREDICTED BY IDOCK:   -5.45 KCAL/MOL
REMARK 924 INTRA-LIGAND FREE ENERGY PREDICTED BY IDOCK:   -0.97 KCAL/MOL
REMARK 927      BINDING AFFINITY PREDICTED BY RF-SCORE:    0.00 PKD
ROOT
HETATM    1  C   UNL     1      -7.325  11.757  67.931  1.00  0.00    -0.098 C  
HETATM    2  C   UNL     1      -8.215  12.650  67.062  1.00  0.00    -0.108 C  
ENDROOT
BRANCH   2   3
HETATM    3  N   UNL     1      -9.397  13.235  67.742  1.00  0.00    -0.200 NA 
BRANCH   3   4
HETATM    4  C   UNL     1      -9.104  14.586  68.246  1.00  0.00    -0.196 C  
HETATM    5  C   UNL     1     -10.300  15.435  68.660  1.00  0.00    -0.234 C  
ENDBRANCH   3   4
BRANCH   3   6
HETATM    6  C   UNL     1     -10.640  13.137  66.900  1.00  0.00    -0.263 C  
HETATM    7  C   UNL     1     -10.215  13.099  65.403  1.00  0.00    -0.301 C  
BRANCH   6   8
HETATM    8  C   UNL     1     -11.585  11.880  67.071  1.00  0.00    -0.291 C  
BRANCH   8   9
HETATM    9  N   UNL     1     -11.193  10.839  68.071  1.00  0.00    -0.291 NA 
HETATM   10  C   UNL     1     -11.700  11.000  69.395  1.00  0.00    -0.323 A  
HETATM   11  C   UNL     1     -12.122  12.251  69.899  1.00  0.00    -0.319 A  
HETATM   12  C   UNL     1     -12.841  12.374  71.094  1.00  0.00    -0.299 A  
HETATM   13  C   UNL     1     -13.128  11.248  71.846  1.00  0.00    -0.510 A  
HETATM   14  C   UNL     1     -12.616  10.021  71.444  1.00  0.00    -0.518 A  
HETATM   15  C   UNL     1     -11.871   9.897  70.256  1.00  0.00    -0.184 A  
HETATM   16  S   UNL     1     -11.218   8.282  69.930  1.00  0.00     0.066 SA 
HETATM   17  C   UNL     1     -10.397   8.509  68.371  1.00  0.00    -0.202 A  
HETATM   18  C   UNL     1      -9.699   7.379  67.900  1.00  0.00    -0.166 A  
HETATM   19  C   UNL     1      -9.107   7.375  66.642  1.00  0.00    -0.184 A  
HETATM   20  C   UNL     1      -9.205   8.509  65.854  1.00  0.00    -0.245 A  
HETATM   21  C   UNL     1      -9.872   9.645  66.327  1.00  0.00    -0.323 A  
HETATM   22  C   UNL     1     -10.497   9.687  67.595  1.00  0.00    -0.261 A  
ENDBRANCH   8   9
ENDBRANCH   6   8
ENDBRANCH   3   6
ENDBRANCH   2   3
TORSDOF 5
ENDMDL
MODEL       95
REMARK 921   NORMALIZED FREE ENERGY PREDICTED BY IDOCK:   -4.33 KCAL/MOL
REMARK 922        TOTAL FREE ENERGY PREDICTED BY IDOCK:   -6.42 KCAL/MOL
REMARK 923 INTER-LIGAND FREE ENERGY PREDICTED BY IDOCK:   -5.78 KCAL/MOL
REMARK 924 INTRA-LIGAND FREE ENERGY PREDICTED BY IDOCK:   -0.64 KCAL/MOL
REMARK 927      BINDING AFFINITY PREDICTED BY RF-SCORE:    0.00 PKD
ROOT
HETATM    1  C   UNL     1     -11.546  13.701  68.208  1.00  0.00    -0.374 C  
HETATM    2  C   UNL     1     -10.479  13.010  67.354  1.00  0.00    -0.234 C  
ENDROOT
BRANCH   2   3
HETATM    3  N   UNL     1     -10.928  11.804  66.617  1.00  0.00    -0.281 NA 
BRANCH   3   4
HETATM    4  C   UNL     1     -11.139  12.101  65.191  1.00  0.00    -0.322 C  
HETATM    5  C   UNL     1     -12.504  12.655  64.802  1.00  0.00    -0.555 C  
ENDBRANCH   3   4
BRANCH   3   6
HETATM    6  C   UNL     1     -10.045  10.616  66.884  1.00  0.00    -0.214 C  
HETATM    7  C   UNL     1      -8.801  10.712  65.954  1.00  0.00    -0.187 C  
BRANCH   6   8
HETATM    8  C   UNL     1      -9.436  10.423  68.333  1.00  0.00    -0.149 C  
BRANCH   8   9
HETATM    9  N   UNL     1      -9.948   9.289  69.162  1.00  0.00    -0.173 NA 
HETATM   10  C   UNL     1      -9.226   8.060  69.082  1.00  0.00    -0.151 A  
HETATM   11  C   UNL     1      -8.406   7.733  67.980  1.00  0.00    -0.124 A  
HETATM   12  C   UNL     1      -7.511   6.656  68.005  1.00  0.00    -0.098 A  
HETATM   13  C   UNL     1      -7.438   5.845  69.124  1.00  0.00    -0.085 A  
HETATM   14  C   UNL     1      -8.323   6.062  70.172  1.00  0.00    -0.120 A  
HETATM   15  C   UNL     1      -9.240   7.130  70.141  1.00  0.00    -0.155 A  
HETATM   16  S   UNL     1     -10.354   7.218  71.517  1.00  0.00    -0.200 SA 
HETATM   17  C   UNL     1     -11.303   8.674  71.147  1.00  0.00    -0.275 A  
HETATM   18  C   UNL     1     -12.347   8.946  72.054  1.00  0.00    -0.460 A  
HETATM   19  C   UNL     1     -13.097  10.113  71.956  1.00  0.00    -0.538 A  
HETATM   20  C   UNL     1     -12.807  11.009  70.941  1.00  0.00    -0.393 A  
HETATM   21  C   UNL     1     -11.790  10.732  70.020  1.00  0.00    -0.424 A  
HETATM   22  C   UNL     1     -10.998   9.563  70.091  1.00  0.00    -0.262 A  
ENDBRANCH   8   9
ENDBRANCH   6   8
ENDBRANCH   3   6
ENDBRANCH   2   3
TORSDOF 5
ENDMDL
MODEL       96
REMARK 921   NORMALIZED FREE ENERGY PREDICTED BY IDOCK:   -4.31 KCAL/MOL
REMARK 922        TOTAL FREE ENERGY PREDICTED BY IDOCK:   -6.39 KCAL/MOL
REMARK 923 INTER-LIGAND FREE ENERGY PREDICTED BY IDOCK:   -5.70 KCAL/MOL
REMARK 924 INTRA-LIGAND FREE ENERGY PREDICTED BY IDOCK:   -0.69 KCAL/MOL
REMARK 927      BINDING AFFINITY PREDICTED BY RF-SCORE:    0.00 PKD
ROOT
HETATM    1  C   UNL     1      -8.624   8.602  71.376  1.00  0.00    -0.247 C  
HETATM    2  C   UNL     1     -10.074   9.061  71.553  1.00  0.00    -0.339 C  
ENDROOT
BRANCH   2   3
HETATM    3  N   UNL     1     -11.000   8.704  70.450  1.00  0.00    -0.235 NA 
BRANCH   3   4
HETATM    4  C   UNL     1     -12.175   7.978  70.958  1.00  0.00    -0.185 C  
HETATM    5  C   UNL     1     -11.923   6.596  71.546  1.00  0.00    -0.402 C  
ENDBRANCH   3   4
BRANCH   3   6
HETATM    6  C   UNL     1     -11.325   9.887  69.578  1.00  0.00    -0.124 C  
HETATM    7  C   UNL     1     -11.831  11.042  70.489  1.00  0.00    -0.464 C  
BRANCH   6   8
HETATM    8  C   UNL     1     -10.171  10.544  68.717  1.00  0.00    -0.190 C  
BRANCH   8   9
HETATM    9  N   UNL     1     -10.142  10.258  67.249  1.00  0.00    -0.193 NA 
HETATM   10  C   UNL     1     -10.754  11.225  66.396  1.00  0.00    -0.267 A  
HETATM   11  C   UNL     1     -11.735  12.130  66.857  1.00  0.00    -0.374 A  
HETATM   12  C   UNL     1     -12.155  13.231  66.100  1.00  0.00    -0.477 A  
HETATM   13  C   UNL     1     -11.632  13.439  64.836  1.00  0.00    -0.354 A  
HETATM   14  C   UNL     1     -10.763  12.496  64.303  1.00  0.00    -0.399 A  
HETATM   15  C   UNL     1     -10.356  11.375  65.052  1.00  0.00    -0.287 A  
HETATM   16  S   UNL     1      -9.312  10.225  64.198  1.00  0.00    -0.306 SA 
HETATM   17  C   UNL     1      -8.990   9.002  65.447  1.00  0.00    -0.200 A  
HETATM   18  C   UNL     1      -8.234   7.896  65.009  1.00  0.00    -0.134 A  
HETATM   19  C   UNL     1      -7.808   6.920  65.904  1.00  0.00    -0.106 A  
HETATM   20  C   UNL     1      -8.148   7.045  67.240  1.00  0.00    -0.115 A  
HETATM   21  C   UNL     1      -8.924   8.126  67.676  1.00  0.00    -0.135 A  
HETATM   22  C   UNL     1      -9.367   9.145  66.802  1.00  0.00    -0.165 A  
ENDBRANCH   8   9
ENDBRANCH   6   8
ENDBRANCH   3   6
ENDBRANCH   2   3
TORSDOF 5
ENDMDL
MODEL       97
REMARK 921   NORMALIZED FREE ENERGY PREDICTED BY IDOCK:   -4.31 KCAL/MOL
REMARK 922        TOTAL FREE ENERGY PREDICTED BY IDOCK:   -6.39 KCAL/MOL
REMARK 923 INTER-LIGAND FREE ENERGY PREDICTED BY IDOCK:   -5.26 KCAL/MOL
REMARK 924 INTRA-LIGAND FREE ENERGY PREDICTED BY IDOCK:   -1.12 KCAL/MOL
REMARK 927      BINDING AFFINITY PREDICTED BY RF-SCORE:    0.00 PKD
ROOT
HETATM    1  C   UNL     1      -7.544   9.120  70.837  1.00  0.00    -0.146 C  
HETATM    2  C   UNL     1      -6.917   8.815  69.474  1.00  0.00    -0.055 C  
ENDROOT
BRANCH   2   3
HETATM    3  N   UNL     1      -7.429   9.618  68.338  1.00  0.00    -0.080 NA 
BRANCH   3   4
HETATM    4  C   UNL     1      -6.544  10.758  68.052  1.00  0.00    -0.063 C  
HETATM    5  C   UNL     1      -6.784  11.498  66.742  1.00  0.00    -0.121 C  
ENDBRANCH   3   4
BRANCH   3   6
HETATM    6  C   UNL     1      -7.754   8.764  67.142  1.00  0.00    -0.096 C  
HETATM    7  C   UNL     1      -7.135   7.354  67.365  1.00  0.00    -0.085 C  
BRANCH   6   8
HETATM    8  C   UNL     1      -9.271   8.476  66.795  1.00  0.00    -0.172 C  
BRANCH   8   9
HETATM    9  N   UNL     1     -10.253   9.590  66.967  1.00  0.00    -0.241 NA 
HETATM   10  C   UNL     1     -10.829   9.742  68.264  1.00  0.00    -0.210 A  
HETATM   11  C   UNL     1     -10.888   8.682  69.197  1.00  0.00    -0.060 A  
HETATM   12  C   UNL     1     -11.222   8.884  70.541  1.00  0.00    -0.287 A  
HETATM   13  C   UNL     1     -11.548  10.152  70.989  1.00  0.00    -0.462 A  
HETATM   14  C   UNL     1     -11.626  11.191  70.070  1.00  0.00    -0.421 A  
HETATM   15  C   UNL     1     -11.314  10.987  68.712  1.00  0.00    -0.283 A  
HETATM   16  S   UNL     1     -11.544  12.393  67.658  1.00  0.00    -0.354 SA 
HETATM   17  C   UNL     1     -11.026  11.772  66.075  1.00  0.00    -0.306 A  
HETATM   18  C   UNL     1     -11.186  12.675  65.005  1.00  0.00    -0.331 A  
HETATM   19  C   UNL     1     -10.717  12.368  63.732  1.00  0.00    -0.492 A  
HETATM   20  C   UNL     1     -10.093  11.150  63.527  1.00  0.00    -0.437 A  
HETATM   21  C   UNL     1      -9.956  10.237  64.578  1.00  0.00    -0.359 A  
HETATM   22  C   UNL     1     -10.408  10.514  65.889  1.00  0.00    -0.206 A  
ENDBRANCH   8   9
ENDBRANCH   6   8
ENDBRANCH   3   6
ENDBRANCH   2   3
TORSDOF 5
ENDMDL
MODEL       98
REMARK 921   NORMALIZED FREE ENERGY PREDICTED BY IDOCK:   -4.30 KCAL/MOL
REMARK 922        TOTAL FREE ENERGY PREDICTED BY IDOCK:   -6.37 KCAL/MOL
REMARK 923 INTER-LIGAND FREE ENERGY PREDICTED BY IDOCK:   -5.48 KCAL/MOL
REMARK 924 INTRA-LIGAND FREE ENERGY PREDICTED BY IDOCK:   -0.89 KCAL/MOL
REMARK 927      BINDING AFFINITY PREDICTED BY RF-SCORE:    0.00 PKD
ROOT
HETATM    1  C   UNL     1      -9.209   8.065  66.048  1.00  0.00    -0.179 C  
HETATM    2  C   UNL     1      -8.376   7.606  67.248  1.00  0.00    -0.115 C  
ENDROOT
BRANCH   2   3
HETATM    3  N   UNL     1      -9.107   7.501  68.534  1.00  0.00    -0.134 NA 
BRANCH   3   4
HETATM    4  C   UNL     1      -9.734   6.177  68.682  1.00  0.00    -0.128 C  
HETATM    5  C   UNL     1     -11.160   6.152  69.216  1.00  0.00    -0.463 C  
ENDBRANCH   3   4
BRANCH   3   6
HETATM    6  C   UNL     1      -8.261   7.926  69.703  1.00  0.00    -0.122 C  
HETATM    7  C   UNL     1      -6.780   8.003  69.232  1.00  0.00    -0.040 C  
BRANCH   6   8
HETATM    8  C   UNL     1      -8.532   9.333  70.375  1.00  0.00    -0.206 C  
BRANCH   8   9
HETATM    9  N   UNL     1      -9.708  10.123  69.896  1.00  0.00    -0.200 NA 
HETATM   10  C   UNL     1     -10.941   9.917  70.585  1.00  0.00    -0.337 A  
HETATM   11  C   UNL     1     -11.211   8.743  71.322  1.00  0.00    -0.352 A  
HETATM   12  C   UNL     1     -12.302   8.639  72.193  1.00  0.00    -0.452 A  
HETATM   13  C   UNL     1     -13.184   9.698  72.325  1.00  0.00    -0.492 A  
HETATM   14  C   UNL     1     -13.020  10.815  71.516  1.00  0.00    -0.562 A  
HETATM   15  C   UNL     1     -11.937  10.914  70.622  1.00  0.00    -0.368 A  
HETATM   16  S   UNL     1     -11.918  12.365  69.605  1.00  0.00    -0.230 SA 
HETATM   17  C   UNL     1     -10.425  12.153  68.664  1.00  0.00    -0.216 A  
HETATM   18  C   UNL     1     -10.195  13.144  67.689  1.00  0.00    -0.224 A  
HETATM   19  C   UNL     1      -9.011  13.170  66.959  1.00  0.00    -0.228 A  
HETATM   20  C   UNL     1      -8.058  12.197  67.199  1.00  0.00    -0.175 A  
HETATM   21  C   UNL     1      -8.292  11.193  68.146  1.00  0.00    -0.136 A  
HETATM   22  C   UNL     1      -9.476  11.136  68.917  1.00  0.00    -0.124 A  
ENDBRANCH   8   9
ENDBRANCH   6   8
ENDBRANCH   3   6
ENDBRANCH   2   3
TORSDOF 5
ENDMDL
MODEL       99
REMARK 921   NORMALIZED FREE ENERGY PREDICTED BY IDOCK:   -4.29 KCAL/MOL
REMARK 922        TOTAL FREE ENERGY PREDICTED BY IDOCK:   -6.36 KCAL/MOL
REMARK 923 INTER-LIGAND FREE ENERGY PREDICTED BY IDOCK:   -5.33 KCAL/MOL
REMARK 924 INTRA-LIGAND FREE ENERGY PREDICTED BY IDOCK:   -1.03 KCAL/MOL
REMARK 927      BINDING AFFINITY PREDICTED BY RF-SCORE:    0.00 PKD
ROOT
HETATM    1  C   UNL     1     -10.228  10.238  65.099  1.00  0.00    -0.295 C  
HETATM    2  C   UNL     1      -9.259   9.130  65.522  1.00  0.00    -0.224 C  
ENDROOT
BRANCH   2   3
HETATM    3  N   UNL     1      -9.616   8.406  66.766  1.00  0.00    -0.200 NA 
BRANCH   3   4
HETATM    4  C   UNL     1     -10.166   7.074  66.466  1.00  0.00    -0.057 C  
HETATM    5  C   UNL     1      -9.388   5.877  66.998  1.00  0.00    -0.125 C  
ENDBRANCH   3   4
BRANCH   3   6
HETATM    6  C   UNL     1      -8.490   8.406  67.764  1.00  0.00    -0.131 C  
HETATM    7  C   UNL     1      -7.319   9.247  67.179  1.00  0.00    -0.091 C  
BRANCH   6   8
HETATM    8  C   UNL     1      -8.738   9.025  69.199  1.00  0.00    -0.135 C  
BRANCH   8   9
HETATM    9  N   UNL     1     -10.119   9.495  69.531  1.00  0.00    -0.194 NA 
HETATM   10  C   UNL     1     -10.954   8.579  70.239  1.00  0.00    -0.235 A  
HETATM   11  C   UNL     1     -10.736   7.184  70.221  1.00  0.00    -0.258 A  
HETATM   12  C   UNL     1     -11.390   6.311  71.099  1.00  0.00    -0.364 A  
HETATM   13  C   UNL     1     -12.317   6.805  72.000  1.00  0.00    -0.311 A  
HETATM   14  C   UNL     1     -12.649   8.153  71.954  1.00  0.00    -0.368 A  
HETATM   15  C   UNL     1     -12.011   9.030  71.056  1.00  0.00    -0.269 A  
HETATM   16  S   UNL     1     -12.608  10.698  71.065  1.00  0.00    -0.450 SA 
HETATM   17  C   UNL     1     -11.562  11.485  69.862  1.00  0.00    -0.308 A  
HETATM   18  C   UNL     1     -11.876  12.833  69.597  1.00  0.00    -0.384 A  
HETATM   19  C   UNL     1     -11.073  13.606  68.766  1.00  0.00    -0.302 A  
HETATM   20  C   UNL     1      -9.955  13.027  68.191  1.00  0.00    -0.231 A  
HETATM   21  C   UNL     1      -9.653  11.681  68.428  1.00  0.00    -0.195 A  
HETATM   22  C   UNL     1     -10.437  10.863  69.274  1.00  0.00    -0.202 A  
ENDBRANCH   8   9
ENDBRANCH   6   8
ENDBRANCH   3   6
ENDBRANCH   2   3
TORSDOF 5
ENDMDL
MODEL      100
REMARK 921   NORMALIZED FREE ENERGY PREDICTED BY IDOCK:   -4.29 KCAL/MOL
REMARK 922        TOTAL FREE ENERGY PREDICTED BY IDOCK:   -6.36 KCAL/MOL
REMARK 923 INTER-LIGAND FREE ENERGY PREDICTED BY IDOCK:   -5.74 KCAL/MOL
REMARK 924 INTRA-LIGAND FREE ENERGY PREDICTED BY IDOCK:   -0.62 KCAL/MOL
REMARK 927      BINDING AFFINITY PREDICTED BY RF-SCORE:    0.00 PKD
ROOT
HETATM    1  C   UNL     1      -7.440  11.014  67.295  1.00  0.00    -0.107 C  
HETATM    2  C   UNL     1      -7.555  12.540  67.299  1.00  0.00    -0.131 C  
ENDROOT
BRANCH   2   3
HETATM    3  N   UNL     1      -8.113  13.139  68.536  1.00  0.00    -0.124 NA 
BRANCH   3   4
HETATM    4  C   UNL     1      -7.135  14.029  69.183  1.00  0.00    -0.085 C  
HETATM    5  C   UNL     1      -5.844  14.298  68.419  1.00  0.00    -0.105 C  
ENDBRANCH   3   4
BRANCH   3   6
HETATM    6  C   UNL     1      -9.464  13.759  68.305  1.00  0.00    -0.214 C  
HETATM    7  C   UNL     1      -9.311  14.883  67.240  1.00  0.00    -0.210 C  
BRANCH   6   8
HETATM    8  C   UNL     1     -10.639  12.853  67.752  1.00  0.00    -0.222 C  
BRANCH   8   9
HETATM    9  N   UNL     1     -11.337  11.947  68.715  1.00  0.00    -0.248 NA 
HETATM   10  C   UNL     1     -11.105  10.547  68.560  1.00  0.00    -0.275 A  
HETATM   11  C   UNL     1     -10.671   9.980  67.341  1.00  0.00    -0.336 A  
HETATM   12  C   UNL     1     -10.209   8.662  67.249  1.00  0.00    -0.337 A  
HETATM   13  C   UNL     1     -10.203   7.853  68.371  1.00  0.00    -0.232 A  
HETATM   14  C   UNL     1     -10.745   8.338  69.554  1.00  0.00    -0.179 A  
HETATM   15  C   UNL     1     -11.232   9.656  69.645  1.00  0.00    -0.141 A  
HETATM   16  S   UNL     1     -11.966  10.093  71.198  1.00  0.00    -0.388 SA 
HETATM   17  C   UNL     1     -12.415  11.793  70.943  1.00  0.00    -0.318 A  
HETATM   18  C   UNL     1     -13.111  12.388  72.015  1.00  0.00    -0.470 A  
HETATM   19  C   UNL     1     -13.424  13.743  72.003  1.00  0.00    -0.559 A  
HETATM   20  C   UNL     1     -13.046  14.505  70.912  1.00  0.00    -0.405 A  
HETATM   21  C   UNL     1     -12.380  13.916  69.831  1.00  0.00    -0.358 A  
HETATM   22  C   UNL     1     -12.033  12.545  69.808  1.00  0.00    -0.289 A  
ENDBRANCH   8   9
ENDBRANCH   6   8
ENDBRANCH   3   6
ENDBRANCH   2   3
TORSDOF 5
ENDMDL
MODEL      101
REMARK 921   NORMALIZED FREE ENERGY PREDICTED BY IDOCK:   -4.28 KCAL/MOL
REMARK 922        TOTAL FREE ENERGY PREDICTED BY IDOCK:   -6.35 KCAL/MOL
REMARK 923 INTER-LIGAND FREE ENERGY PREDICTED BY IDOCK:   -6.19 KCAL/MOL
REMARK 924 INTRA-LIGAND FREE ENERGY PREDICTED BY IDOCK:   -0.15 KCAL/MOL
REMARK 927      BINDING AFFINITY PREDICTED BY RF-SCORE:    0.00 PKD
ROOT
HETATM    1  C   UNL     1     -12.978  15.549  71.174  1.00  0.00    -0.560 C  
HETATM    2  C   UNL     1     -11.509  15.759  70.797  1.00  0.00    -0.393 C  
ENDROOT
BRANCH   2   3
HETATM    3  N   UNL     1     -11.242  15.987  69.357  1.00  0.00    -0.328 NA 
BRANCH   3   4
HETATM    4  C   UNL     1     -10.373  17.158  69.157  1.00  0.00    -0.297 C  
HETATM    5  C   UNL     1     -10.651  18.015  67.929  1.00  0.00    -0.387 C  
ENDBRANCH   3   4
BRANCH   3   6
HETATM    6  C   UNL     1     -10.776  14.737  68.662  1.00  0.00    -0.253 C  
HETATM    7  C   UNL     1     -12.026  13.886  68.295  1.00  0.00    -0.392 C  
BRANCH   6   8
HETATM    8  C   UNL     1      -9.978  14.868  67.301  1.00  0.00    -0.230 C  
BRANCH   8   9
HETATM    9  N   UNL     1      -9.339  13.638  66.742  1.00  0.00    -0.258 NA 
HETATM   10  C   UNL     1      -8.205  13.130  67.445  1.00  0.00    -0.187 A  
HETATM   11  C   UNL     1      -7.416  13.936  68.296  1.00  0.00    -0.118 A  
HETATM   12  C   UNL     1      -6.465  13.396  69.170  1.00  0.00    -0.105 A  
HETATM   13  C   UNL     1      -6.244  12.031  69.192  1.00  0.00    -0.087 A  
HETATM   14  C   UNL     1      -6.909  11.226  68.276  1.00  0.00    -0.064 A  
HETATM   15  C   UNL     1      -7.849  11.767  67.379  1.00  0.00    -0.155 A  
HETATM   16  S   UNL     1      -8.547  10.621  66.221  1.00  0.00    -0.158 SA 
HETATM   17  C   UNL     1      -9.682  11.641  65.311  1.00  0.00    -0.229 A  
HETATM   18  C   UNL     1     -10.332  10.993  64.241  1.00  0.00    -0.430 A  
HETATM   19  C   UNL     1     -11.331  11.633  63.516  1.00  0.00    -0.447 A  
HETATM   20  C   UNL     1     -11.675  12.930  63.855  1.00  0.00    -0.526 A  
HETATM   21  C   UNL     1     -11.014  13.590  64.897  1.00  0.00    -0.359 A  
HETATM   22  C   UNL     1     -10.001  12.972  65.666  1.00  0.00    -0.230 A  
ENDBRANCH   8   9
ENDBRANCH   6   8
ENDBRANCH   3   6
ENDBRANCH   2   3
TORSDOF 5
ENDMDL
MODEL      102
REMARK 921   NORMALIZED FREE ENERGY PREDICTED BY IDOCK:   -4.28 KCAL/MOL
REMARK 922        TOTAL FREE ENERGY PREDICTED BY IDOCK:   -6.34 KCAL/MOL
REMARK 923 INTER-LIGAND FREE ENERGY PREDICTED BY IDOCK:   -5.37 KCAL/MOL
REMARK 924 INTRA-LIGAND FREE ENERGY PREDICTED BY IDOCK:   -0.98 KCAL/MOL
REMARK 927      BINDING AFFINITY PREDICTED BY RF-SCORE:    0.00 PKD
ROOT
HETATM    1  C   UNL     1     -10.349   7.437  67.224  1.00  0.00    -0.356 C  
HETATM    2  C   UNL     1      -9.879   8.237  68.441  1.00  0.00    -0.172 C  
ENDROOT
BRANCH   2   3
HETATM    3  N   UNL     1     -10.398   9.623  68.538  1.00  0.00    -0.197 NA 
BRANCH   3   4
HETATM    4  C   UNL     1     -11.467   9.720  69.545  1.00  0.00    -0.009 C  
HETATM    5  C   UNL     1     -11.322   8.843  70.783  1.00  0.00    -0.325 C  
ENDBRANCH   3   4
BRANCH   3   6
HETATM    6  C   UNL     1      -9.294  10.632  68.699  1.00  0.00    -0.177 C  
HETATM    7  C   UNL     1      -8.002   9.878  69.127  1.00  0.00    -0.112 C  
BRANCH   6   8
HETATM    8  C   UNL     1      -8.850  11.490  67.446  1.00  0.00    -0.157 C  
BRANCH   8   9
HETATM    9  N   UNL     1      -9.623  11.327  66.176  1.00  0.00    -0.206 NA 
HETATM   10  C   UNL     1     -10.759  12.173  66.004  1.00  0.00    -0.273 A  
HETATM   11  C   UNL     1     -11.430  12.773  67.093  1.00  0.00    -0.394 A  
HETATM   12  C   UNL     1     -12.379  13.788  66.922  1.00  0.00    -0.328 A  
HETATM   13  C   UNL     1     -12.717  14.209  65.649  1.00  0.00    -0.469 A  
HETATM   14  C   UNL     1     -12.173  13.550  64.554  1.00  0.00    -0.445 A  
HETATM   15  C   UNL     1     -11.235  12.513  64.721  1.00  0.00    -0.306 A  
HETATM   16  S   UNL     1     -10.701  11.720  63.229  1.00  0.00    -0.293 SA 
HETATM   17  C   UNL     1      -9.529  10.527  63.830  1.00  0.00    -0.298 A  
HETATM   18  C   UNL     1      -8.993   9.676  62.842  1.00  0.00    -0.260 A  
HETATM   19  C   UNL     1      -7.980   8.773  63.147  1.00  0.00    -0.159 A  
HETATM   20  C   UNL     1      -7.507   8.714  64.446  1.00  0.00    -0.108 A  
HETATM   21  C   UNL     1      -8.055   9.535  65.438  1.00  0.00    -0.125 A  
HETATM   22  C   UNL     1      -9.076  10.475  65.168  1.00  0.00    -0.197 A  
ENDBRANCH   8   9
ENDBRANCH   6   8
ENDBRANCH   3   6
ENDBRANCH   2   3
TORSDOF 5
ENDMDL
MODEL      103
REMARK 921   NORMALIZED FREE ENERGY PREDICTED BY IDOCK:   -4.27 KCAL/MOL
REMARK 922        TOTAL FREE ENERGY PREDICTED BY IDOCK:   -6.34 KCAL/MOL
REMARK 923 INTER-LIGAND FREE ENERGY PREDICTED BY IDOCK:   -5.87 KCAL/MOL
REMARK 924 INTRA-LIGAND FREE ENERGY PREDICTED BY IDOCK:   -0.46 KCAL/MOL
REMARK 927      BINDING AFFINITY PREDICTED BY RF-SCORE:    0.00 PKD
ROOT
HETATM    1  C   UNL     1     -12.166   9.217  71.278  1.00  0.00    -0.410 C  
HETATM    2  C   UNL     1     -11.499  10.460  70.682  1.00  0.00    -0.349 C  
ENDROOT
BRANCH   2   3
HETATM    3  N   UNL     1     -10.511  10.204  69.606  1.00  0.00    -0.236 NA 
BRANCH   3   4
HETATM    4  C   UNL     1      -9.934   8.855  69.724  1.00  0.00    -0.191 C  
HETATM    5  C   UNL     1      -8.500   8.768  70.230  1.00  0.00    -0.154 C  
ENDBRANCH   3   4
BRANCH   3   6
HETATM    6  C   UNL     1     -11.060  10.531  68.243  1.00  0.00    -0.284 C  
HETATM    7  C   UNL     1     -11.782  11.907  68.324  1.00  0.00    -0.385 C  
BRANCH   6   8
HETATM    8  C   UNL     1     -10.057  10.685  67.029  1.00  0.00    -0.211 C  
BRANCH   8   9
HETATM    9  N   UNL     1      -9.600  12.063  66.669  1.00  0.00    -0.211 NA 
HETATM   10  C   UNL     1     -10.358  12.749  65.673  1.00  0.00    -0.279 A  
HETATM   11  C   UNL     1     -11.164  12.071  64.732  1.00  0.00    -0.373 A  
HETATM   12  C   UNL     1     -12.092  12.735  63.922  1.00  0.00    -0.562 A  
HETATM   13  C   UNL     1     -12.216  14.112  64.000  1.00  0.00    -0.369 A  
HETATM   14  C   UNL     1     -11.348  14.820  64.821  1.00  0.00    -0.399 A  
HETATM   15  C   UNL     1     -10.397  14.157  65.620  1.00  0.00    -0.333 A  
HETATM   16  S   UNL     1      -9.312  15.209  66.545  1.00  0.00    -0.298 SA 
HETATM   17  C   UNL     1      -8.309  14.039  67.431  1.00  0.00    -0.196 A  
HETATM   18  C   UNL     1      -7.278  14.610  68.203  1.00  0.00    -0.127 A  
HETATM   19  C   UNL     1      -6.489  13.826  69.038  1.00  0.00    -0.105 A  
HETATM   20  C   UNL     1      -6.728  12.464  69.095  1.00  0.00    -0.090 A  
HETATM   21  C   UNL     1      -7.732  11.886  68.310  1.00  0.00    -0.127 A  
HETATM   22  C   UNL     1      -8.563  12.649  67.457  1.00  0.00    -0.185 A  
ENDBRANCH   8   9
ENDBRANCH   6   8
ENDBRANCH   3   6
ENDBRANCH   2   3
TORSDOF 5
ENDMDL
MODEL      104
REMARK 921   NORMALIZED FREE ENERGY PREDICTED BY IDOCK:   -4.26 KCAL/MOL
REMARK 922        TOTAL FREE ENERGY PREDICTED BY IDOCK:   -6.32 KCAL/MOL
REMARK 923 INTER-LIGAND FREE ENERGY PREDICTED BY IDOCK:   -5.45 KCAL/MOL
REMARK 924 INTRA-LIGAND FREE ENERGY PREDICTED BY IDOCK:   -0.87 KCAL/MOL
REMARK 927      BINDING AFFINITY PREDICTED BY RF-SCORE:    0.00 PKD
ROOT
HETATM    1  C   UNL     1      -8.451   9.533  69.592  1.00  0.00    -0.174 C  
HETATM    2  C   UNL     1      -9.192   9.020  70.830  1.00  0.00    -0.259 C  
ENDROOT
BRANCH   2   3
HETATM    3  N   UNL     1     -10.598   9.469  70.969  1.00  0.00    -0.319 NA 
BRANCH   3   4
HETATM    4  C   UNL     1     -11.144   9.913  69.677  1.00  0.00    -0.241 C  
HETATM    5  C   UNL     1     -11.658  11.345  69.607  1.00  0.00    -0.399 C  
ENDBRANCH   3   4
BRANCH   3   6
HETATM    6  C   UNL     1     -11.447   8.459  71.693  1.00  0.00    -0.287 C  
HETATM    7  C   UNL     1     -12.728   9.176  72.208  1.00  0.00    -0.447 C  
BRANCH   6   8
HETATM    8  C   UNL     1     -11.993   7.206  70.896  1.00  0.00    -0.334 C  
BRANCH   8   9
HETATM    9  N   UNL     1     -11.038   6.093  70.600  1.00  0.00    -0.308 NA 
HETATM   10  C   UNL     1     -10.484   6.057  69.285  1.00  0.00    -0.264 A  
HETATM   11  C   UNL     1     -11.107   6.681  68.182  1.00  0.00    -0.287 A  
HETATM   12  C   UNL     1     -10.456   6.861  66.956  1.00  0.00    -0.374 A  
HETATM   13  C   UNL     1      -9.169   6.385  66.782  1.00  0.00    -0.154 A  
HETATM   14  C   UNL     1      -8.577   5.653  67.803  1.00  0.00    -0.101 A  
HETATM   15  C   UNL     1      -9.238   5.450  69.030  1.00  0.00    -0.120 A  
HETATM   16  S   UNL     1      -8.383   4.425  70.196  1.00  0.00    -0.066 SA 
HETATM   17  C   UNL     1      -9.483   4.434  71.591  1.00  0.00    -0.153 A  
HETATM   18  C   UNL     1      -9.085   3.610  72.663  1.00  0.00    -0.131 A  
HETATM   19  C   UNL     1      -9.787   3.607  73.864  1.00  0.00    -0.154 A  
HETATM   20  C   UNL     1     -10.897   4.424  73.990  1.00  0.00    -0.314 A  
HETATM   21  C   UNL     1     -11.315   5.223  72.919  1.00  0.00    -0.368 A  
HETATM   22  C   UNL     1     -10.623   5.265  71.687  1.00  0.00    -0.192 A  
ENDBRANCH   8   9
ENDBRANCH   6   8
ENDBRANCH   3   6
ENDBRANCH   2   3
TORSDOF 5
ENDMDL
MODEL      105
REMARK 921   NORMALIZED FREE ENERGY PREDICTED BY IDOCK:   -4.25 KCAL/MOL
REMARK 922        TOTAL FREE ENERGY PREDICTED BY IDOCK:   -6.31 KCAL/MOL
REMARK 923 INTER-LIGAND FREE ENERGY PREDICTED BY IDOCK:   -5.80 KCAL/MOL
REMARK 924 INTRA-LIGAND FREE ENERGY PREDICTED BY IDOCK:   -0.50 KCAL/MOL
REMARK 927      BINDING AFFINITY PREDICTED BY RF-SCORE:    0.00 PKD
ROOT
HETATM    1  C   UNL     1     -13.584  12.816  72.299  1.00  0.00    -0.563 C  
HETATM    2  C   UNL     1     -12.735  11.965  71.350  1.00  0.00    -0.290 C  
ENDROOT
BRANCH   2   3
HETATM    3  N   UNL     1     -12.405  12.593  70.048  1.00  0.00    -0.158 NA 
BRANCH   3   4
HETATM    4  C   UNL     1     -11.633  13.831  70.235  1.00  0.00    -0.117 C  
HETATM    5  C   UNL     1     -12.383  15.142  70.034  1.00  0.00    -0.356 C  
ENDBRANCH   3   4
BRANCH   3   6
HETATM    6  C   UNL     1     -11.788  11.612  69.087  1.00  0.00    -0.326 C  
HETATM    7  C   UNL     1     -11.615  12.318  67.712  1.00  0.00    -0.416 C  
BRANCH   6   8
HETATM    8  C   UNL     1     -10.355  11.022  69.408  1.00  0.00    -0.104 C  
BRANCH   8   9
HETATM    9  N   UNL     1     -10.117   9.571  69.134  1.00  0.00    -0.187 NA 
HETATM   10  C   UNL     1     -10.619   8.647  70.099  1.00  0.00    -0.225 A  
HETATM   11  C   UNL     1     -10.881   9.015  71.438  1.00  0.00    -0.400 A  
HETATM   12  C   UNL     1     -11.596   8.192  72.315  1.00  0.00    -0.436 A  
HETATM   13  C   UNL     1     -12.039   6.951  71.892  1.00  0.00    -0.370 A  
HETATM   14  C   UNL     1     -11.685   6.506  70.625  1.00  0.00    -0.436 A  
HETATM   15  C   UNL     1     -10.946   7.322  69.747  1.00  0.00    -0.216 A  
HETATM   16  S   UNL     1     -10.505   6.575  68.201  1.00  0.00    -0.246 SA 
HETATM   17  C   UNL     1      -9.637   7.888  67.377  1.00  0.00    -0.152 A  
HETATM   18  C   UNL     1      -9.086   7.539  66.127  1.00  0.00    -0.179 A  
HETATM   19  C   UNL     1      -8.481   8.495  65.318  1.00  0.00    -0.192 A  
HETATM   20  C   UNL     1      -8.418   9.804  65.764  1.00  0.00    -0.141 A  
HETATM   21  C   UNL     1      -8.937  10.152  67.017  1.00  0.00    -0.148 A  
HETATM   22  C   UNL     1      -9.571   9.214  67.864  1.00  0.00    -0.146 A  
ENDBRANCH   8   9
ENDBRANCH   6   8
ENDBRANCH   3   6
ENDBRANCH   2   3
TORSDOF 5
ENDMDL
MODEL      106
REMARK 921   NORMALIZED FREE ENERGY PREDICTED BY IDOCK:   -4.24 KCAL/MOL
REMARK 922        TOTAL FREE ENERGY PREDICTED BY IDOCK:   -6.30 KCAL/MOL
REMARK 923 INTER-LIGAND FREE ENERGY PREDICTED BY IDOCK:   -5.74 KCAL/MOL
REMARK 924 INTRA-LIGAND FREE ENERGY PREDICTED BY IDOCK:   -0.56 KCAL/MOL
REMARK 927      BINDING AFFINITY PREDICTED BY RF-SCORE:    0.00 PKD
ROOT
HETATM    1  C   UNL     1     -10.001  10.273  64.358  1.00  0.00    -0.331 C  
HETATM    2  C   UNL     1      -8.936  11.124  65.054  1.00  0.00    -0.068 C  
ENDROOT
BRANCH   2   3
HETATM    3  N   UNL     1      -8.807  10.922  66.517  1.00  0.00    -0.158 NA 
BRANCH   3   4
HETATM    4  C   UNL     1      -7.395  10.948  66.934  1.00  0.00    -0.128 C  
HETATM    5  C   UNL     1      -6.606   9.657  66.754  1.00  0.00    -0.067 C  
ENDBRANCH   3   4
BRANCH   3   6
HETATM    6  C   UNL     1      -9.705  11.842  67.297  1.00  0.00    -0.184 C  
HETATM    7  C   UNL     1      -9.998  13.096  66.424  1.00  0.00    -0.282 C  
BRANCH   6   8
HETATM    8  C   UNL     1     -11.136  11.327  67.736  1.00  0.00    -0.271 C  
BRANCH   8   9
HETATM    9  N   UNL     1     -11.354  11.009  69.181  1.00  0.00    -0.254 NA 
HETATM   10  C   UNL     1     -11.877  12.059  69.995  1.00  0.00    -0.314 A  
HETATM   11  C   UNL     1     -11.756  13.422  69.646  1.00  0.00    -0.375 A  
HETATM   12  C   UNL     1     -12.471  14.430  70.302  1.00  0.00    -0.413 A  
HETATM   13  C   UNL     1     -13.305  14.109  71.359  1.00  0.00    -0.402 A  
HETATM   14  C   UNL     1     -13.347  12.796  71.809  1.00  0.00    -0.436 A  
HETATM   15  C   UNL     1     -12.610  11.782  71.167  1.00  0.00    -0.309 A  
HETATM   16  S   UNL     1     -12.706  10.179  71.916  1.00  0.00    -0.343 SA 
HETATM   17  C   UNL     1     -11.706   9.190  70.830  1.00  0.00    -0.256 A  
HETATM   18  C   UNL     1     -11.532   7.853  71.240  1.00  0.00    -0.293 A  
HETATM   19  C   UNL     1     -10.871   6.935  70.431  1.00  0.00    -0.297 A  
HETATM   20  C   UNL     1     -10.373   7.358  69.211  1.00  0.00    -0.204 A  
HETATM   21  C   UNL     1     -10.516   8.691  68.810  1.00  0.00    -0.209 A  
HETATM   22  C   UNL     1     -11.191   9.653  69.597  1.00  0.00    -0.141 A  
ENDBRANCH   8   9
ENDBRANCH   6   8
ENDBRANCH   3   6
ENDBRANCH   2   3
TORSDOF 5
ENDMDL
MODEL      107
REMARK 921   NORMALIZED FREE ENERGY PREDICTED BY IDOCK:   -4.24 KCAL/MOL
REMARK 922        TOTAL FREE ENERGY PREDICTED BY IDOCK:   -6.30 KCAL/MOL
REMARK 923 INTER-LIGAND FREE ENERGY PREDICTED BY IDOCK:   -5.94 KCAL/MOL
REMARK 924 INTRA-LIGAND FREE ENERGY PREDICTED BY IDOCK:   -0.35 KCAL/MOL
REMARK 927      BINDING AFFINITY PREDICTED BY RF-SCORE:    0.00 PKD
ROOT
HETATM    1  C   UNL     1      -5.378  12.504  67.399  1.00  0.00    -0.086 C  
HETATM    2  C   UNL     1      -6.817  12.977  67.626  1.00  0.00    -0.154 C  
ENDROOT
BRANCH   2   3
HETATM    3  N   UNL     1      -7.082  13.619  68.936  1.00  0.00    -0.110 NA 
BRANCH   3   4
HETATM    4  C   UNL     1      -5.891  13.576  69.799  1.00  0.00    -0.117 C  
HETATM    5  C   UNL     1      -5.448  14.895  70.420  1.00  0.00    -0.132 C  
ENDBRANCH   3   4
BRANCH   3   6
HETATM    6  C   UNL     1      -7.693  14.986  68.783  1.00  0.00    -0.141 C  
HETATM    7  C   UNL     1      -7.428  15.480  67.332  1.00  0.00    -0.235 C  
BRANCH   6   8
HETATM    8  C   UNL     1      -9.255  15.153  68.974  1.00  0.00    -0.221 C  
BRANCH   8   9
HETATM    9  N   UNL     1     -10.066  15.574  67.790  1.00  0.00    -0.230 NA 
HETATM   10  C   UNL     1     -10.266  16.976  67.617  1.00  0.00    -0.317 A  
HETATM   11  C   UNL     1     -10.161  17.895  68.685  1.00  0.00    -0.394 A  
HETATM   12  C   UNL     1     -10.111  19.279  68.481  1.00  0.00    -0.513 A  
HETATM   13  C   UNL     1     -10.205  19.792  67.199  1.00  0.00    -0.574 A  
HETATM   14  C   UNL     1     -10.440  18.923  66.142  1.00  0.00    -0.521 A  
HETATM   15  C   UNL     1     -10.514  17.532  66.345  1.00  0.00    -0.277 A  
HETATM   16  S   UNL     1     -10.902  16.570  64.908  1.00  0.00    -0.026 SA 
HETATM   17  C   UNL     1     -10.870  14.909  65.539  1.00  0.00    -0.356 A  
HETATM   18  C   UNL     1     -11.234  13.916  64.608  1.00  0.00    -0.380 A  
HETATM   19  C   UNL     1     -11.143  12.566  64.929  1.00  0.00    -0.336 A  
HETATM   20  C   UNL     1     -10.694  12.207  66.188  1.00  0.00    -0.307 A  
HETATM   21  C   UNL     1     -10.358  13.189  67.127  1.00  0.00    -0.247 A  
HETATM   22  C   UNL     1     -10.426  14.571  66.838  1.00  0.00    -0.269 A  
ENDBRANCH   8   9
ENDBRANCH   6   8
ENDBRANCH   3   6
ENDBRANCH   2   3
TORSDOF 5
ENDMDL
MODEL      108
REMARK 921   NORMALIZED FREE ENERGY PREDICTED BY IDOCK:   -4.23 KCAL/MOL
REMARK 922        TOTAL FREE ENERGY PREDICTED BY IDOCK:   -6.29 KCAL/MOL
REMARK 923 INTER-LIGAND FREE ENERGY PREDICTED BY IDOCK:   -5.12 KCAL/MOL
REMARK 924 INTRA-LIGAND FREE ENERGY PREDICTED BY IDOCK:   -1.17 KCAL/MOL
REMARK 927      BINDING AFFINITY PREDICTED BY RF-SCORE:    0.00 PKD
ROOT
HETATM    1  C   UNL     1      -7.460   9.081  70.773  1.00  0.00    -0.121 C  
HETATM    2  C   UNL     1      -6.735   7.820  70.294  1.00  0.00    -0.038 C  
ENDROOT
BRANCH   2   3
HETATM    3  N   UNL     1      -7.163   7.296  68.975  1.00  0.00    -0.086 NA 
BRANCH   3   4
HETATM    4  C   UNL     1      -7.851   6.003  69.115  1.00  0.00    -0.099 C  
HETATM    5  C   UNL     1      -7.825   5.361  70.497  1.00  0.00    -0.093 C  
ENDBRANCH   3   4
BRANCH   3   6
HETATM    6  C   UNL     1      -7.920   8.322  68.176  1.00  0.00    -0.123 C  
HETATM    7  C   UNL     1      -7.205   8.500  66.806  1.00  0.00    -0.075 C  
BRANCH   6   8
HETATM    8  C   UNL     1      -9.430   8.037  67.797  1.00  0.00    -0.145 C  
BRANCH   8   9
HETATM    9  N   UNL     1     -10.475   8.957  68.342  1.00  0.00    -0.207 NA 
HETATM   10  C   UNL     1     -10.981   8.652  69.642  1.00  0.00    -0.091 A  
HETATM   11  C   UNL     1     -10.908   7.356  70.200  1.00  0.00    -0.270 A  
HETATM   12  C   UNL     1     -11.173   7.105  71.551  1.00  0.00    -0.273 A  
HETATM   13  C   UNL     1     -11.558   8.142  72.383  1.00  0.00    -0.463 A  
HETATM   14  C   UNL     1     -11.765   9.402  71.837  1.00  0.00    -0.376 A  
HETATM   15  C   UNL     1     -11.523   9.654  70.473  1.00  0.00    -0.285 A  
HETATM   16  S   UNL     1     -11.915  11.290  69.918  1.00  0.00    -0.378 SA 
HETATM   17  C   UNL     1     -11.452  11.233  68.203  1.00  0.00    -0.306 A  
HETATM   18  C   UNL     1     -11.739  12.404  67.474  1.00  0.00    -0.425 A  
HETATM   19  C   UNL     1     -11.329  12.545  66.153  1.00  0.00    -0.388 A  
HETATM   20  C   UNL     1     -10.635  11.507  65.555  1.00  0.00    -0.334 A  
HETATM   21  C   UNL     1     -10.371  10.330  66.265  1.00  0.00    -0.256 A  
HETATM   22  C   UNL     1     -10.760  10.150  67.612  1.00  0.00    -0.285 A  
ENDBRANCH   8   9
ENDBRANCH   6   8
ENDBRANCH   3   6
ENDBRANCH   2   3
TORSDOF 5
ENDMDL
MODEL      109
REMARK 921   NORMALIZED FREE ENERGY PREDICTED BY IDOCK:   -4.23 KCAL/MOL
REMARK 922        TOTAL FREE ENERGY PREDICTED BY IDOCK:   -6.28 KCAL/MOL
REMARK 923 INTER-LIGAND FREE ENERGY PREDICTED BY IDOCK:   -5.27 KCAL/MOL
REMARK 924 INTRA-LIGAND FREE ENERGY PREDICTED BY IDOCK:   -1.02 KCAL/MOL
REMARK 927      BINDING AFFINITY PREDICTED BY RF-SCORE:    0.00 PKD
ROOT
HETATM    1  C   UNL     1      -7.896   8.048  74.358  1.00  0.00    -0.287 C  
HETATM    2  C   UNL     1      -9.250   7.684  73.743  1.00  0.00    -0.277 C  
ENDROOT
BRANCH   2   3
HETATM    3  N   UNL     1      -9.201   7.107  72.379  1.00  0.00    -0.134 NA 
BRANCH   3   4
HETATM    4  C   UNL     1      -7.815   6.834  71.967  1.00  0.00    -0.096 C  
HETATM    5  C   UNL     1      -7.582   5.575  71.140  1.00  0.00    -0.102 C  
ENDBRANCH   3   4
BRANCH   3   6
HETATM    6  C   UNL     1     -10.140   5.941  72.223  1.00  0.00    -0.182 C  
HETATM    7  C   UNL     1     -10.752   5.617  73.616  1.00  0.00    -0.302 C  
BRANCH   6   8
HETATM    8  C   UNL     1     -11.394   6.088  71.269  1.00  0.00    -0.230 C  
BRANCH   8   9
HETATM    9  N   UNL     1     -11.383   7.195  70.263  1.00  0.00    -0.282 NA 
HETATM   10  C   UNL     1     -12.003   8.420  70.652  1.00  0.00    -0.026 A  
HETATM   11  C   UNL     1     -12.979   8.486  71.672  1.00  0.00    -0.369 A  
HETATM   12  C   UNL     1     -13.407   9.699  72.223  1.00  0.00    -0.498 A  
HETATM   13  C   UNL     1     -12.898  10.893  71.742  1.00  0.00    -0.509 A  
HETATM   14  C   UNL     1     -12.036  10.868  70.654  1.00  0.00    -0.468 A  
HETATM   15  C   UNL     1     -11.622   9.651  70.081  1.00  0.00    -0.141 A  
HETATM   16  S   UNL     1     -10.589   9.795  68.648  1.00  0.00    -0.216 SA 
HETATM   17  C   UNL     1     -10.253   8.096  68.248  1.00  0.00    -0.206 A  
HETATM   18  C   UNL     1      -9.502   7.904  67.070  1.00  0.00    -0.222 A  
HETATM   19  C   UNL     1      -9.066   6.637  66.697  1.00  0.00    -0.159 A  
HETATM   20  C   UNL     1      -9.390   5.557  67.498  1.00  0.00    -0.114 A  
HETATM   21  C   UNL     1     -10.160   5.737  68.654  1.00  0.00    -0.227 A  
HETATM   22  C   UNL     1     -10.613   7.008  69.075  1.00  0.00    -0.217 A  
ENDBRANCH   8   9
ENDBRANCH   6   8
ENDBRANCH   3   6
ENDBRANCH   2   3
TORSDOF 5
ENDMDL
MODEL      110
REMARK 921   NORMALIZED FREE ENERGY PREDICTED BY IDOCK:   -4.23 KCAL/MOL
REMARK 922        TOTAL FREE ENERGY PREDICTED BY IDOCK:   -6.28 KCAL/MOL
REMARK 923 INTER-LIGAND FREE ENERGY PREDICTED BY IDOCK:   -5.88 KCAL/MOL
REMARK 924 INTRA-LIGAND FREE ENERGY PREDICTED BY IDOCK:   -0.40 KCAL/MOL
REMARK 927      BINDING AFFINITY PREDICTED BY RF-SCORE:    0.00 PKD
ROOT
HETATM    1  C   UNL     1      -8.856   4.534  64.593  1.00  0.00    -0.151 C  
HETATM    2  C   UNL     1      -9.159   5.139  65.967  1.00  0.00    -0.149 C  
ENDROOT
BRANCH   2   3
HETATM    3  N   UNL     1      -8.616   6.498  66.204  1.00  0.00    -0.140 NA 
BRANCH   3   4
HETATM    4  C   UNL     1      -7.869   6.984  65.033  1.00  0.00    -0.125 C  
HETATM    5  C   UNL     1      -8.186   8.396  64.557  1.00  0.00    -0.149 C  
ENDBRANCH   3   4
BRANCH   3   6
HETATM    6  C   UNL     1      -9.668   7.447  66.711  1.00  0.00    -0.207 C  
HETATM    7  C   UNL     1     -10.965   6.635  66.992  1.00  0.00    -0.463 C  
BRANCH   6   8
HETATM    8  C   UNL     1      -9.402   8.238  68.056  1.00  0.00    -0.132 C  
BRANCH   8   9
HETATM    9  N   UNL     1     -10.506   9.089  68.599  1.00  0.00    -0.214 NA 
HETATM   10  C   UNL     1     -11.067   8.689  69.850  1.00  0.00    -0.116 A  
HETATM   11  C   UNL     1     -10.977   7.365  70.332  1.00  0.00    -0.269 A  
HETATM   12  C   UNL     1     -11.302   7.024  71.651  1.00  0.00    -0.288 A  
HETATM   13  C   UNL     1     -11.766   7.995  72.521  1.00  0.00    -0.446 A  
HETATM   14  C   UNL     1     -11.989   9.278  72.040  1.00  0.00    -0.391 A  
HETATM   15  C   UNL     1     -11.686   9.620  70.708  1.00  0.00    -0.314 A  
HETATM   16  S   UNL     1     -12.107  11.274  70.230  1.00  0.00    -0.379 SA 
HETATM   17  C   UNL     1     -11.554  11.336  68.542  1.00  0.00    -0.315 A  
HETATM   18  C   UNL     1     -11.845  12.540  67.869  1.00  0.00    -0.383 A  
HETATM   19  C   UNL     1     -11.372  12.774  66.582  1.00  0.00    -0.364 A  
HETATM   20  C   UNL     1     -10.612  11.797  65.963  1.00  0.00    -0.302 A  
HETATM   21  C   UNL     1     -10.343  10.588  66.614  1.00  0.00    -0.295 A  
HETATM   22  C   UNL     1     -10.796  10.315  67.926  1.00  0.00    -0.284 A  
ENDBRANCH   8   9
ENDBRANCH   6   8
ENDBRANCH   3   6
ENDBRANCH   2   3
TORSDOF 5
ENDMDL
MODEL      111
REMARK 921   NORMALIZED FREE ENERGY PREDICTED BY IDOCK:   -4.22 KCAL/MOL
REMARK 922        TOTAL FREE ENERGY PREDICTED BY IDOCK:   -6.28 KCAL/MOL
REMARK 923 INTER-LIGAND FREE ENERGY PREDICTED BY IDOCK:   -6.17 KCAL/MOL
REMARK 924 INTRA-LIGAND FREE ENERGY PREDICTED BY IDOCK:   -0.11 KCAL/MOL
REMARK 927      BINDING AFFINITY PREDICTED BY RF-SCORE:    0.00 PKD
ROOT
HETATM    1  C   UNL     1     -13.402  12.793  71.823  1.00  0.00    -0.436 C  
HETATM    2  C   UNL     1     -12.175  13.521  71.267  1.00  0.00    -0.117 C  
ENDROOT
BRANCH   2   3
HETATM    3  N   UNL     1     -12.404  14.317  70.037  1.00  0.00    -0.345 NA 
BRANCH   3   4
HETATM    4  C   UNL     1     -12.472  15.756  70.341  1.00  0.00    -0.295 C  
HETATM    5  C   UNL     1     -11.907  16.199  71.684  1.00  0.00    -0.557 C  
ENDBRANCH   3   4
BRANCH   3   6
HETATM    6  C   UNL     1     -11.438  13.955  68.941  1.00  0.00    -0.301 C  
HETATM    7  C   UNL     1     -12.027  12.753  68.149  1.00  0.00    -0.295 C  
BRANCH   6   8
HETATM    8  C   UNL     1     -11.103  15.031  67.830  1.00  0.00    -0.310 C  
BRANCH   8   9
HETATM    9  N   UNL     1      -9.746  15.660  67.850  1.00  0.00    -0.211 NA 
HETATM   10  C   UNL     1      -9.701  17.086  67.825  1.00  0.00    -0.258 A  
HETATM   11  C   UNL     1     -10.767  17.870  67.332  1.00  0.00    -0.306 A  
HETATM   12  C   UNL     1     -10.834  19.254  67.529  1.00  0.00    -0.524 A  
HETATM   13  C   UNL     1      -9.812  19.907  68.196  1.00  0.00    -0.524 A  
HETATM   14  C   UNL     1      -8.689  19.185  68.579  1.00  0.00    -0.401 A  
HETATM   15  C   UNL     1      -8.607  17.796  68.361  1.00  0.00    -0.292 A  
HETATM   16  S   UNL     1      -7.075  17.039  68.831  1.00  0.00    -0.237 SA 
HETATM   17  C   UNL     1      -7.362  15.327  68.449  1.00  0.00    -0.114 A  
HETATM   18  C   UNL     1      -6.252  14.483  68.650  1.00  0.00    -0.083 A  
HETATM   19  C   UNL     1      -6.364  13.104  68.502  1.00  0.00    -0.082 A  
HETATM   20  C   UNL     1      -7.588  12.569  68.144  1.00  0.00    -0.127 A  
HETATM   21  C   UNL     1      -8.688  13.404  67.915  1.00  0.00    -0.187 A  
HETATM   22  C   UNL     1      -8.620  14.808  68.065  1.00  0.00    -0.166 A  
ENDBRANCH   8   9
ENDBRANCH   6   8
ENDBRANCH   3   6
ENDBRANCH   2   3
TORSDOF 5
ENDMDL
MODEL      112
REMARK 921   NORMALIZED FREE ENERGY PREDICTED BY IDOCK:   -4.22 KCAL/MOL
REMARK 922        TOTAL FREE ENERGY PREDICTED BY IDOCK:   -6.27 KCAL/MOL
REMARK 923 INTER-LIGAND FREE ENERGY PREDICTED BY IDOCK:   -6.13 KCAL/MOL
REMARK 924 INTRA-LIGAND FREE ENERGY PREDICTED BY IDOCK:   -0.13 KCAL/MOL
REMARK 927      BINDING AFFINITY PREDICTED BY RF-SCORE:    0.00 PKD
ROOT
HETATM    1  C   UNL     1     -12.525  15.482  71.689  1.00  0.00    -0.473 C  
HETATM    2  C   UNL     1     -11.086  15.473  71.166  1.00  0.00    -0.314 C  
ENDROOT
BRANCH   2   3
HETATM    3  N   UNL     1     -10.940  15.428  69.691  1.00  0.00    -0.263 NA 
BRANCH   3   4
HETATM    4  C   UNL     1     -10.067  16.511  69.211  1.00  0.00    -0.270 C  
HETATM    5  C   UNL     1     -10.642  17.428  68.139  1.00  0.00    -0.376 C  
ENDBRANCH   3   4
BRANCH   3   6
HETATM    6  C   UNL     1     -10.560  14.057  69.202  1.00  0.00    -0.128 C  
HETATM    7  C   UNL     1     -11.861  13.224  69.023  1.00  0.00    -0.365 C  
BRANCH   6   8
HETATM    8  C   UNL     1      -9.812  13.918  67.813  1.00  0.00    -0.237 C  
BRANCH   8   9
HETATM    9  N   UNL     1     -10.024  12.665  67.025  1.00  0.00    -0.217 NA 
HETATM   10  C   UNL     1     -10.832  12.775  65.854  1.00  0.00    -0.269 A  
HETATM   11  C   UNL     1     -11.771  13.815  65.674  1.00  0.00    -0.360 A  
HETATM   12  C   UNL     1     -12.382  14.069  64.441  1.00  0.00    -0.401 A  
HETATM   13  C   UNL     1     -12.102  13.261  63.352  1.00  0.00    -0.508 A  
HETATM   14  C   UNL     1     -11.284  12.152  63.529  1.00  0.00    -0.536 A  
HETATM   15  C   UNL     1     -10.686  11.880  64.774  1.00  0.00    -0.307 A  
HETATM   16  S   UNL     1      -9.741  10.383  64.855  1.00  0.00    -0.332 SA 
HETATM   17  C   UNL     1      -9.132  10.405  66.525  1.00  0.00    -0.155 A  
HETATM   18  C   UNL     1      -8.399   9.263  66.902  1.00  0.00    -0.123 A  
HETATM   19  C   UNL     1      -7.765   9.193  68.138  1.00  0.00    -0.092 A  
HETATM   20  C   UNL     1      -7.872  10.267  69.004  1.00  0.00    -0.114 A  
HETATM   21  C   UNL     1      -8.623  11.393  68.648  1.00  0.00    -0.126 A  
HETATM   22  C   UNL     1      -9.273  11.509  67.397  1.00  0.00    -0.166 A  
ENDBRANCH   8   9
ENDBRANCH   6   8
ENDBRANCH   3   6
ENDBRANCH   2   3
TORSDOF 5
ENDMDL
MODEL      113
REMARK 921   NORMALIZED FREE ENERGY PREDICTED BY IDOCK:   -4.20 KCAL/MOL
REMARK 922        TOTAL FREE ENERGY PREDICTED BY IDOCK:   -6.25 KCAL/MOL
REMARK 923 INTER-LIGAND FREE ENERGY PREDICTED BY IDOCK:   -5.63 KCAL/MOL
REMARK 924 INTRA-LIGAND FREE ENERGY PREDICTED BY IDOCK:   -0.62 KCAL/MOL
REMARK 927      BINDING AFFINITY PREDICTED BY RF-SCORE:    0.00 PKD
ROOT
HETATM    1  C   UNL     1      -6.246   5.680  66.320  1.00  0.00    -0.034 C  
HETATM    2  C   UNL     1      -7.535   5.912  67.113  1.00  0.00    -0.084 C  
ENDROOT
BRANCH   2   3
HETATM    3  N   UNL     1      -8.703   6.365  66.320  1.00  0.00    -0.139 NA 
BRANCH   3   4
HETATM    4  C   UNL     1      -9.891   5.546  66.609  1.00  0.00    -0.170 C  
HETATM    5  C   UNL     1      -9.764   4.530  67.737  1.00  0.00    -0.199 C  
ENDBRANCH   3   4
BRANCH   3   6
HETATM    6  C   UNL     1      -8.925   7.849  66.437  1.00  0.00    -0.166 C  
HETATM    7  C   UNL     1      -8.518   8.512  65.090  1.00  0.00    -0.193 C  
BRANCH   6   8
HETATM    8  C   UNL     1     -10.389   8.386  66.711  1.00  0.00    -0.287 C  
BRANCH   8   9
HETATM    9  N   UNL     1     -10.562   9.450  67.748  1.00  0.00    -0.263 NA 
HETATM   10  C   UNL     1     -10.816  10.772  67.272  1.00  0.00    -0.288 A  
HETATM   11  C   UNL     1     -10.460  11.192  65.972  1.00  0.00    -0.312 A  
HETATM   12  C   UNL     1     -10.921  12.392  65.418  1.00  0.00    -0.335 A  
HETATM   13  C   UNL     1     -11.726  13.233  66.167  1.00  0.00    -0.416 A  
HETATM   14  C   UNL     1     -11.986  12.911  67.493  1.00  0.00    -0.354 A  
HETATM   15  C   UNL     1     -11.505  11.716  68.061  1.00  0.00    -0.315 A  
HETATM   16  S   UNL     1     -11.854  11.495  69.784  1.00  0.00    -0.370 SA 
HETATM   17  C   UNL     1     -11.140   9.902  70.117  1.00  0.00    -0.296 A  
HETATM   18  C   UNL     1     -11.198   9.499  71.466  1.00  0.00    -0.437 A  
HETATM   19  C   UNL     1     -10.783   8.229  71.853  1.00  0.00    -0.350 A  
HETATM   20  C   UNL     1     -10.300   7.362  70.889  1.00  0.00    -0.206 A  
HETATM   21  C   UNL     1     -10.212   7.766  69.552  1.00  0.00    -0.207 A  
HETATM   22  C   UNL     1     -10.634   9.043  69.115  1.00  0.00    -0.203 A  
ENDBRANCH   8   9
ENDBRANCH   6   8
ENDBRANCH   3   6
ENDBRANCH   2   3
TORSDOF 5
ENDMDL
MODEL      114
REMARK 921   NORMALIZED FREE ENERGY PREDICTED BY IDOCK:   -4.20 KCAL/MOL
REMARK 922        TOTAL FREE ENERGY PREDICTED BY IDOCK:   -6.24 KCAL/MOL
REMARK 923 INTER-LIGAND FREE ENERGY PREDICTED BY IDOCK:   -5.86 KCAL/MOL
REMARK 924 INTRA-LIGAND FREE ENERGY PREDICTED BY IDOCK:   -0.38 KCAL/MOL
REMARK 927      BINDING AFFINITY PREDICTED BY RF-SCORE:    0.00 PKD
ROOT
HETATM    1  C   UNL     1      -7.933   4.948  68.328  1.00  0.00    -0.086 C  
HETATM    2  C   UNL     1      -9.001   5.474  67.366  1.00  0.00    -0.107 C  
ENDROOT
BRANCH   2   3
HETATM    3  N   UNL     1      -8.630   6.684  66.593  1.00  0.00    -0.118 NA 
BRANCH   3   4
HETATM    4  C   UNL     1      -8.147   6.328  65.249  1.00  0.00    -0.132 C  
HETATM    5  C   UNL     1      -7.646   7.473  64.377  1.00  0.00    -0.111 C  
ENDBRANCH   3   4
BRANCH   3   6
HETATM    6  C   UNL     1      -9.717   7.724  66.611  1.00  0.00    -0.222 C  
HETATM    7  C   UNL     1     -10.960   7.119  67.325  1.00  0.00    -0.333 C  
BRANCH   6   8
HETATM    8  C   UNL     1      -9.459   9.091  67.366  1.00  0.00    -0.144 C  
BRANCH   8   9
HETATM    9  N   UNL     1     -10.460  10.187  67.193  1.00  0.00    -0.238 NA 
HETATM   10  C   UNL     1     -11.144  10.622  68.368  1.00  0.00    -0.272 A  
HETATM   11  C   UNL     1     -11.272   9.808  69.516  1.00  0.00    -0.181 A  
HETATM   12  C   UNL     1     -11.719  10.309  70.744  1.00  0.00    -0.453 A  
HETATM   13  C   UNL     1     -12.091  11.637  70.854  1.00  0.00    -0.312 A  
HETATM   14  C   UNL     1     -12.100  12.430  69.714  1.00  0.00    -0.292 A  
HETATM   15  C   UNL     1     -11.674  11.924  68.471  1.00  0.00    -0.330 A  
HETATM   16  S   UNL     1     -11.826  13.038  67.101  1.00  0.00    -0.345 SA 
HETATM   17  C   UNL     1     -11.173  12.079  65.755  1.00  0.00    -0.334 A  
HETATM   18  C   UNL     1     -11.250  12.702  64.493  1.00  0.00    -0.375 A  
HETATM   19  C   UNL     1     -10.674  12.119  63.370  1.00  0.00    -0.461 A  
HETATM   20  C   UNL     1     -10.026  10.904  63.506  1.00  0.00    -0.419 A  
HETATM   21  C   UNL     1      -9.970  10.266  64.750  1.00  0.00    -0.392 A  
HETATM   22  C   UNL     1     -10.533  10.829  65.919  1.00  0.00    -0.204 A  
ENDBRANCH   8   9
ENDBRANCH   6   8
ENDBRANCH   3   6
ENDBRANCH   2   3
TORSDOF 5
ENDMDL
MODEL      115
REMARK 921   NORMALIZED FREE ENERGY PREDICTED BY IDOCK:   -4.19 KCAL/MOL
REMARK 922        TOTAL FREE ENERGY PREDICTED BY IDOCK:   -6.24 KCAL/MOL
REMARK 923 INTER-LIGAND FREE ENERGY PREDICTED BY IDOCK:   -5.33 KCAL/MOL
REMARK 924 INTRA-LIGAND FREE ENERGY PREDICTED BY IDOCK:   -0.90 KCAL/MOL
REMARK 927      BINDING AFFINITY PREDICTED BY RF-SCORE:    0.00 PKD
ROOT
HETATM    1  C   UNL     1     -12.994  12.045  63.505  1.00  0.00    -0.329 C  
HETATM    2  C   UNL     1     -12.330  12.677  64.732  1.00  0.00    -0.489 C  
ENDROOT
BRANCH   2   3
HETATM    3  N   UNL     1     -10.986  12.154  65.076  1.00  0.00    -0.300 NA 
BRANCH   3   4
HETATM    4  C   UNL     1     -10.559  11.119  64.121  1.00  0.00    -0.368 C  
HETATM    5  C   UNL     1      -9.441  11.497  63.157  1.00  0.00    -0.332 C  
ENDBRANCH   3   4
BRANCH   3   6
HETATM    6  C   UNL     1      -9.986  13.258  65.289  1.00  0.00    -0.173 C  
HETATM    7  C   UNL     1     -10.702  14.618  65.051  1.00  0.00    -0.448 C  
BRANCH   6   8
HETATM    8  C   UNL     1      -9.310  13.415  66.712  1.00  0.00    -0.256 C  
BRANCH   8   9
HETATM    9  N   UNL     1      -9.370  12.251  67.649  1.00  0.00    -0.180 NA 
HETATM   10  C   UNL     1     -10.357  12.309  68.679  1.00  0.00    -0.188 A  
HETATM   11  C   UNL     1     -10.914  13.527  69.128  1.00  0.00    -0.220 A  
HETATM   12  C   UNL     1     -12.044  13.576  69.951  1.00  0.00    -0.408 A  
HETATM   13  C   UNL     1     -12.633  12.402  70.387  1.00  0.00    -0.101 A  
HETATM   14  C   UNL     1     -12.032  11.190  70.070  1.00  0.00    -0.447 A  
HETATM   15  C   UNL     1     -10.881  11.137  69.261  1.00  0.00    -0.229 A  
HETATM   16  S   UNL     1     -10.191   9.523  69.020  1.00  0.00    -0.208 SA 
HETATM   17  C   UNL     1      -8.814   9.852  67.947  1.00  0.00    -0.129 A  
HETATM   18  C   UNL     1      -8.014   8.730  67.651  1.00  0.00    -0.106 A  
HETATM   19  C   UNL     1      -6.972   8.815  66.733  1.00  0.00    -0.080 A  
HETATM   20  C   UNL     1      -6.723  10.028  66.116  1.00  0.00    -0.100 A  
HETATM   21  C   UNL     1      -7.495  11.154  66.427  1.00  0.00    -0.103 A  
HETATM   22  C   UNL     1      -8.570  11.108  67.345  1.00  0.00    -0.137 A  
ENDBRANCH   8   9
ENDBRANCH   6   8
ENDBRANCH   3   6
ENDBRANCH   2   3
TORSDOF 5
ENDMDL
MODEL      116
REMARK 921   NORMALIZED FREE ENERGY PREDICTED BY IDOCK:   -4.19 KCAL/MOL
REMARK 922        TOTAL FREE ENERGY PREDICTED BY IDOCK:   -6.23 KCAL/MOL
REMARK 923 INTER-LIGAND FREE ENERGY PREDICTED BY IDOCK:   -5.45 KCAL/MOL
REMARK 924 INTRA-LIGAND FREE ENERGY PREDICTED BY IDOCK:   -0.78 KCAL/MOL
REMARK 927      BINDING AFFINITY PREDICTED BY RF-SCORE:    0.00 PKD
ROOT
HETATM    1  C   UNL     1     -10.528  12.614  67.142  1.00  0.00    -0.245 C  
HETATM    2  C   UNL     1      -9.660  11.462  66.630  1.00  0.00    -0.191 C  
ENDROOT
BRANCH   2   3
HETATM    3  N   UNL     1      -9.816  10.173  67.347  1.00  0.00    -0.180 NA 
BRANCH   3   4
HETATM    4  C   UNL     1     -10.270   9.111  66.435  1.00  0.00    -0.230 C  
HETATM    5  C   UNL     1     -10.480   7.730  67.045  1.00  0.00    -0.419 C  
ENDBRANCH   3   4
BRANCH   3   6
HETATM    6  C   UNL     1      -8.595   9.823  68.155  1.00  0.00    -0.118 C  
HETATM    7  C   UNL     1      -7.463  10.824  67.788  1.00  0.00    -0.094 C  
BRANCH   6   8
HETATM    8  C   UNL     1      -8.678   9.885  69.734  1.00  0.00    -0.212 C  
BRANCH   8   9
HETATM    9  N   UNL     1      -9.577   8.912  70.428  1.00  0.00    -0.181 NA 
HETATM   10  C   UNL     1      -9.022   7.632  70.730  1.00  0.00    -0.149 A  
HETATM   11  C   UNL     1      -7.913   7.101  70.034  1.00  0.00    -0.118 A  
HETATM   12  C   UNL     1      -7.217   5.972  70.481  1.00  0.00    -0.083 A  
HETATM   13  C   UNL     1      -7.634   5.312  71.623  1.00  0.00    -0.103 A  
HETATM   14  C   UNL     1      -8.797   5.730  72.257  1.00  0.00    -0.135 A  
HETATM   15  C   UNL     1      -9.514   6.851  71.796  1.00  0.00    -0.153 A  
HETATM   16  S   UNL     1     -11.019   7.203  72.663  1.00  0.00    -0.307 SA 
HETATM   17  C   UNL     1     -11.601   8.666  71.840  1.00  0.00    -0.350 A  
HETATM   18  C   UNL     1     -12.856   9.132  72.280  1.00  0.00    -0.472 A  
HETATM   19  C   UNL     1     -13.382  10.330  71.807  1.00  0.00    -0.476 A  
HETATM   20  C   UNL     1     -12.653  11.061  70.885  1.00  0.00    -0.488 A  
HETATM   21  C   UNL     1     -11.419  10.590  70.422  1.00  0.00    -0.427 A  
HETATM   22  C   UNL     1     -10.844   9.384  70.885  1.00  0.00    -0.322 A  
ENDBRANCH   8   9
ENDBRANCH   6   8
ENDBRANCH   3   6
ENDBRANCH   2   3
TORSDOF 5
ENDMDL
MODEL      117
REMARK 921   NORMALIZED FREE ENERGY PREDICTED BY IDOCK:   -4.18 KCAL/MOL
REMARK 922        TOTAL FREE ENERGY PREDICTED BY IDOCK:   -6.22 KCAL/MOL
REMARK 923 INTER-LIGAND FREE ENERGY PREDICTED BY IDOCK:   -5.42 KCAL/MOL
REMARK 924 INTRA-LIGAND FREE ENERGY PREDICTED BY IDOCK:   -0.80 KCAL/MOL
REMARK 927      BINDING AFFINITY PREDICTED BY RF-SCORE:    0.00 PKD
ROOT
HETATM    1  C   UNL     1     -12.277  13.691  65.707  1.00  0.00    -0.503 C  
HETATM    2  C   UNL     1     -12.180  14.133  67.170  1.00  0.00    -0.313 C  
ENDROOT
BRANCH   2   3
HETATM    3  N   UNL     1     -10.936  13.743  67.877  1.00  0.00    -0.248 NA 
BRANCH   3   4
HETATM    4  C   UNL     1     -10.194  14.928  68.338  1.00  0.00    -0.231 C  
HETATM    5  C   UNL     1     -10.916  16.267  68.242  1.00  0.00    -0.348 C  
ENDBRANCH   3   4
BRANCH   3   6
HETATM    6  C   UNL     1     -11.189  12.711  68.942  1.00  0.00    -0.280 C  
HETATM    7  C   UNL     1     -12.172  13.315  69.984  1.00  0.00    -0.345 C  
BRANCH   6   8
HETATM    8  C   UNL     1     -11.850  11.333  68.531  1.00  0.00    -0.285 C  
BRANCH   8   9
HETATM    9  N   UNL     1     -10.984  10.114  68.526  1.00  0.00    -0.239 NA 
HETATM   10  C   UNL     1     -10.050   9.998  67.452  1.00  0.00    -0.208 A  
HETATM   11  C   UNL     1     -10.217  10.674  66.224  1.00  0.00    -0.304 A  
HETATM   12  C   UNL     1      -9.196  10.762  65.271  1.00  0.00    -0.233 A  
HETATM   13  C   UNL     1      -7.982  10.139  65.501  1.00  0.00    -0.146 A  
HETATM   14  C   UNL     1      -7.831   9.357  66.639  1.00  0.00    -0.104 A  
HETATM   15  C   UNL     1      -8.864   9.247  67.589  1.00  0.00    -0.119 A  
HETATM   16  S   UNL     1      -8.544   8.146  68.940  1.00  0.00    -0.130 SA 
HETATM   17  C   UNL     1     -10.020   8.300  69.916  1.00  0.00    -0.190 A  
HETATM   18  C   UNL     1     -10.078   7.450  71.039  1.00  0.00    -0.191 A  
HETATM   19  C   UNL     1     -11.119   7.544  71.957  1.00  0.00    -0.288 A  
HETATM   20  C   UNL     1     -12.112   8.485  71.746  1.00  0.00    -0.391 A  
HETATM   21  C   UNL     1     -12.076   9.312  70.617  1.00  0.00    -0.154 A  
HETATM   22  C   UNL     1     -11.030   9.258  69.667  1.00  0.00    -0.175 A  
ENDBRANCH   8   9
ENDBRANCH   6   8
ENDBRANCH   3   6
ENDBRANCH   2   3
TORSDOF 5
ENDMDL
MODEL      118
REMARK 921   NORMALIZED FREE ENERGY PREDICTED BY IDOCK:   -4.18 KCAL/MOL
REMARK 922        TOTAL FREE ENERGY PREDICTED BY IDOCK:   -6.22 KCAL/MOL
REMARK 923 INTER-LIGAND FREE ENERGY PREDICTED BY IDOCK:   -5.73 KCAL/MOL
REMARK 924 INTRA-LIGAND FREE ENERGY PREDICTED BY IDOCK:   -0.49 KCAL/MOL
REMARK 927      BINDING AFFINITY PREDICTED BY RF-SCORE:    0.00 PKD
ROOT
HETATM    1  C   UNL     1     -10.447  12.818  66.380  1.00  0.00    -0.265 C  
HETATM    2  C   UNL     1      -9.631  11.554  66.661  1.00  0.00    -0.197 C  
ENDROOT
BRANCH   2   3
HETATM    3  N   UNL     1     -10.319  10.270  66.383  1.00  0.00    -0.218 NA 
BRANCH   3   4
HETATM    4  C   UNL     1      -9.644   9.527  65.307  1.00  0.00    -0.243 C  
HETATM    5  C   UNL     1      -9.431  10.270  63.994  1.00  0.00    -0.356 C  
ENDBRANCH   3   4
BRANCH   3   6
HETATM    6  C   UNL     1     -10.558   9.473  67.637  1.00  0.00    -0.269 C  
HETATM    7  C   UNL     1     -10.518   7.962  67.270  1.00  0.00    -0.390 C  
BRANCH   6   8
HETATM    8  C   UNL     1      -9.538   9.611  68.839  1.00  0.00    -0.161 C  
BRANCH   8   9
HETATM    9  N   UNL     1      -9.870   8.920  70.123  1.00  0.00    -0.171 NA 
HETATM   10  C   UNL     1     -11.006   9.406  70.837  1.00  0.00    -0.320 A  
HETATM   11  C   UNL     1     -11.509  10.714  70.661  1.00  0.00    -0.374 A  
HETATM   12  C   UNL     1     -12.753  11.113  71.165  1.00  0.00    -0.510 A  
HETATM   13  C   UNL     1     -13.519  10.223  71.898  1.00  0.00    -0.403 A  
HETATM   14  C   UNL     1     -12.994   8.973  72.199  1.00  0.00    -0.490 A  
HETATM   15  C   UNL     1     -11.733   8.576  71.714  1.00  0.00    -0.327 A  
HETATM   16  S   UNL     1     -11.173   6.984  72.257  1.00  0.00    -0.273 SA 
HETATM   17  C   UNL     1      -9.609   6.827  71.430  1.00  0.00    -0.167 A  
HETATM   18  C   UNL     1      -8.883   5.663  71.753  1.00  0.00    -0.138 A  
HETATM   19  C   UNL     1      -7.698   5.351  71.096  1.00  0.00    -0.102 A  
HETATM   20  C   UNL     1      -7.231   6.212  70.118  1.00  0.00    -0.076 A  
HETATM   21  C   UNL     1      -7.931   7.385  69.812  1.00  0.00    -0.125 A  
HETATM   22  C   UNL     1      -9.145   7.733  70.447  1.00  0.00    -0.155 A  
ENDBRANCH   8   9
ENDBRANCH   6   8
ENDBRANCH   3   6
ENDBRANCH   2   3
TORSDOF 5
ENDMDL
MODEL      119
REMARK 921   NORMALIZED FREE ENERGY PREDICTED BY IDOCK:   -4.18 KCAL/MOL
REMARK 922        TOTAL FREE ENERGY PREDICTED BY IDOCK:   -6.22 KCAL/MOL
REMARK 923 INTER-LIGAND FREE ENERGY PREDICTED BY IDOCK:   -5.70 KCAL/MOL
REMARK 924 INTRA-LIGAND FREE ENERGY PREDICTED BY IDOCK:   -0.52 KCAL/MOL
REMARK 927      BINDING AFFINITY PREDICTED BY RF-SCORE:    0.00 PKD
ROOT
HETATM    1  C   UNL     1     -10.407   7.209  67.538  1.00  0.00    -0.303 C  
HETATM    2  C   UNL     1     -10.364   8.610  66.922  1.00  0.00    -0.285 C  
ENDROOT
BRANCH   2   3
HETATM    3  N   UNL     1      -9.036   9.270  66.921  1.00  0.00    -0.129 NA 
BRANCH   3   4
HETATM    4  C   UNL     1      -8.446   9.274  65.573  1.00  0.00    -0.140 C  
HETATM    5  C   UNL     1      -7.447   8.168  65.260  1.00  0.00    -0.080 C  
ENDBRANCH   3   4
BRANCH   3   6
HETATM    6  C   UNL     1      -9.073  10.617  67.591  1.00  0.00    -0.142 C  
HETATM    7  C   UNL     1      -8.216  10.541  68.887  1.00  0.00    -0.141 C  
BRANCH   6   8
HETATM    8  C   UNL     1      -8.504  11.874  66.817  1.00  0.00    -0.167 C  
BRANCH   8   9
HETATM    9  N   UNL     1      -9.412  13.045  66.618  1.00  0.00    -0.253 NA 
HETATM   10  C   UNL     1      -9.148  14.202  67.411  1.00  0.00    -0.198 A  
HETATM   11  C   UNL     1      -8.433  14.141  68.627  1.00  0.00    -0.120 A  
HETATM   12  C   UNL     1      -7.960  15.287  69.278  1.00  0.00    -0.223 A  
HETATM   13  C   UNL     1      -8.224  16.539  68.750  1.00  0.00    -0.248 A  
HETATM   14  C   UNL     1      -9.035  16.639  67.626  1.00  0.00    -0.206 A  
HETATM   15  C   UNL     1      -9.531  15.490  66.982  1.00  0.00    -0.225 A  
HETATM   16  S   UNL     1     -10.618  15.791  65.615  1.00  0.00    -0.381 SA 
HETATM   17  C   UNL     1     -10.994  14.146  65.057  1.00  0.00    -0.384 A  
HETATM   18  C   UNL     1     -11.929  14.079  64.004  1.00  0.00    -0.388 A  
HETATM   19  C   UNL     1     -12.231  12.868  63.390  1.00  0.00    -0.574 A  
HETATM   20  C   UNL     1     -11.603  11.719  63.836  1.00  0.00    -0.469 A  
HETATM   21  C   UNL     1     -10.695  11.774  64.901  1.00  0.00    -0.347 A  
HETATM   22  C   UNL     1     -10.352  12.985  65.544  1.00  0.00    -0.294 A  
ENDBRANCH   8   9
ENDBRANCH   6   8
ENDBRANCH   3   6
ENDBRANCH   2   3
TORSDOF 5
ENDMDL
MODEL      120
REMARK 921   NORMALIZED FREE ENERGY PREDICTED BY IDOCK:   -4.17 KCAL/MOL
REMARK 922        TOTAL FREE ENERGY PREDICTED BY IDOCK:   -6.20 KCAL/MOL
REMARK 923 INTER-LIGAND FREE ENERGY PREDICTED BY IDOCK:   -5.19 KCAL/MOL
REMARK 924 INTRA-LIGAND FREE ENERGY PREDICTED BY IDOCK:   -1.01 KCAL/MOL
REMARK 927      BINDING AFFINITY PREDICTED BY RF-SCORE:    0.00 PKD
ROOT
HETATM    1  C   UNL     1      -6.537   8.727  68.674  1.00  0.00    -0.055 C  
HETATM    2  C   UNL     1      -7.201   8.158  67.418  1.00  0.00    -0.088 C  
ENDROOT
BRANCH   2   3
HETATM    3  N   UNL     1      -7.983   9.126  66.611  1.00  0.00    -0.103 NA 
BRANCH   3   4
HETATM    4  C   UNL     1      -7.117   9.855  65.670  1.00  0.00    -0.112 C  
HETATM    5  C   UNL     1      -7.585   9.922  64.222  1.00  0.00    -0.139 C  
ENDBRANCH   3   4
BRANCH   3   6
HETATM    6  C   UNL     1      -9.194   8.491  65.982  1.00  0.00    -0.202 C  
HETATM    7  C   UNL     1      -9.025   6.946  66.046  1.00  0.00    -0.131 C  
BRANCH   6   8
HETATM    8  C   UNL     1     -10.618   8.757  66.620  1.00  0.00    -0.070 C  
BRANCH   8   9
HETATM    9  N   UNL     1     -10.725   9.802  67.683  1.00  0.00    -0.277 NA 
HETATM   10  C   UNL     1     -10.968  11.139  67.245  1.00  0.00    -0.296 A  
HETATM   11  C   UNL     1     -10.655  11.578  65.939  1.00  0.00    -0.318 A  
HETATM   12  C   UNL     1     -11.111  12.799  65.429  1.00  0.00    -0.317 A  
HETATM   13  C   UNL     1     -11.866  13.642  66.227  1.00  0.00    -0.426 A  
HETATM   14  C   UNL     1     -12.080  13.298  67.555  1.00  0.00    -0.312 A  
HETATM   15  C   UNL     1     -11.603  12.082  68.079  1.00  0.00    -0.342 A  
HETATM   16  S   UNL     1     -11.887  11.833  69.811  1.00  0.00    -0.338 SA 
HETATM   17  C   UNL     1     -11.196  10.218  70.083  1.00  0.00    -0.318 A  
HETATM   18  C   UNL     1     -11.209   9.789  71.425  1.00  0.00    -0.368 A  
HETATM   19  C   UNL     1     -10.807   8.502  71.770  1.00  0.00    -0.374 A  
HETATM   20  C   UNL     1     -10.383   7.645  70.770  1.00  0.00    -0.203 A  
HETATM   21  C   UNL     1     -10.340   8.075  69.438  1.00  0.00    -0.217 A  
HETATM   22  C   UNL     1     -10.750   9.369  69.044  1.00  0.00    -0.187 A  
ENDBRANCH   8   9
ENDBRANCH   6   8
ENDBRANCH   3   6
ENDBRANCH   2   3
TORSDOF 5
ENDMDL
MODEL      121
REMARK 921   NORMALIZED FREE ENERGY PREDICTED BY IDOCK:   -4.17 KCAL/MOL
REMARK 922        TOTAL FREE ENERGY PREDICTED BY IDOCK:   -6.20 KCAL/MOL
REMARK 923 INTER-LIGAND FREE ENERGY PREDICTED BY IDOCK:   -5.87 KCAL/MOL
REMARK 924 INTRA-LIGAND FREE ENERGY PREDICTED BY IDOCK:   -0.33 KCAL/MOL
REMARK 927      BINDING AFFINITY PREDICTED BY RF-SCORE:    0.00 PKD
ROOT
HETATM    1  C   UNL     1      -8.617   5.966  65.374  1.00  0.00    -0.138 C  
HETATM    2  C   UNL     1      -8.706   5.980  66.902  1.00  0.00    -0.112 C  
ENDROOT
BRANCH   2   3
HETATM    3  N   UNL     1      -9.817   6.777  67.474  1.00  0.00    -0.126 NA 
BRANCH   3   4
HETATM    4  C   UNL     1     -10.804   5.911  68.141  1.00  0.00    -0.236 C  
HETATM    5  C   UNL     1     -11.404   6.433  69.440  1.00  0.00    -0.443 C  
ENDBRANCH   3   4
BRANCH   3   6
HETATM    6  C   UNL     1      -9.320   7.920  68.316  1.00  0.00    -0.143 C  
HETATM    7  C   UNL     1      -8.042   7.452  69.070  1.00  0.00    -0.127 C  
BRANCH   6   8
HETATM    8  C   UNL     1      -8.884   9.264  67.604  1.00  0.00    -0.119 C  
BRANCH   8   9
HETATM    9  N   UNL     1      -9.961  10.177  67.110  1.00  0.00    -0.187 NA 
HETATM   10  C   UNL     1     -10.819  10.748  68.097  1.00  0.00    -0.236 A  
HETATM   11  C   UNL     1     -11.002  10.166  69.371  1.00  0.00    -0.285 A  
HETATM   12  C   UNL     1     -11.638  10.841  70.419  1.00  0.00    -0.431 A  
HETATM   13  C   UNL     1     -12.149  12.111  70.213  1.00  0.00    -0.385 A  
HETATM   14  C   UNL     1     -12.101  12.657  68.938  1.00  0.00    -0.164 A  
HETATM   15  C   UNL     1     -11.482  11.972  67.875  1.00  0.00    -0.330 A  
HETATM   16  S   UNL     1     -11.579  12.768  66.294  1.00  0.00    -0.398 SA 
HETATM   17  C   UNL     1     -10.679  11.649  65.247  1.00  0.00    -0.291 A  
HETATM   18  C   UNL     1     -10.667  11.998  63.882  1.00  0.00    -0.450 A  
HETATM   19  C   UNL     1      -9.907  11.280  62.965  1.00  0.00    -0.370 A  
HETATM   20  C   UNL     1      -9.163  10.202  63.414  1.00  0.00    -0.324 A  
HETATM   21  C   UNL     1      -9.193   9.832  64.764  1.00  0.00    -0.319 A  
HETATM   22  C   UNL     1      -9.943  10.542  65.729  1.00  0.00    -0.258 A  
ENDBRANCH   8   9
ENDBRANCH   6   8
ENDBRANCH   3   6
ENDBRANCH   2   3
TORSDOF 5
ENDMDL
MODEL      122
REMARK 921   NORMALIZED FREE ENERGY PREDICTED BY IDOCK:   -4.15 KCAL/MOL
REMARK 922        TOTAL FREE ENERGY PREDICTED BY IDOCK:   -6.18 KCAL/MOL
REMARK 923 INTER-LIGAND FREE ENERGY PREDICTED BY IDOCK:   -5.36 KCAL/MOL
REMARK 924 INTRA-LIGAND FREE ENERGY PREDICTED BY IDOCK:   -0.82 KCAL/MOL
REMARK 927      BINDING AFFINITY PREDICTED BY RF-SCORE:    0.00 PKD
ROOT
HETATM    1  C   UNL     1     -12.368  13.619  64.115  1.00  0.00    -0.385 C  
HETATM    2  C   UNL     1     -12.245  13.828  65.627  1.00  0.00    -0.454 C  
ENDROOT
BRANCH   2   3
HETATM    3  N   UNL     1     -10.862  13.847  66.163  1.00  0.00    -0.289 NA 
BRANCH   3   4
HETATM    4  C   UNL     1     -10.543  15.152  66.763  1.00  0.00    -0.298 C  
HETATM    5  C   UNL     1      -9.263  15.828  66.290  1.00  0.00    -0.368 C  
ENDBRANCH   3   4
BRANCH   3   6
HETATM    6  C   UNL     1     -10.583  12.666  67.051  1.00  0.00    -0.240 C  
HETATM    7  C   UNL     1     -11.194  12.953  68.453  1.00  0.00    -0.305 C  
BRANCH   6   8
HETATM    8  C   UNL     1     -11.168  11.250  66.652  1.00  0.00    -0.177 C  
BRANCH   8   9
HETATM    9  N   UNL     1     -10.201  10.140  66.391  1.00  0.00    -0.233 NA 
HETATM   10  C   UNL     1      -9.547  10.145  65.122  1.00  0.00    -0.292 A  
HETATM   11  C   UNL     1     -10.080  10.812  63.997  1.00  0.00    -0.410 A  
HETATM   12  C   UNL     1      -9.336  11.028  62.831  1.00  0.00    -0.380 A  
HETATM   13  C   UNL     1      -8.042  10.546  62.739  1.00  0.00    -0.159 A  
HETATM   14  C   UNL     1      -7.535   9.775  63.777  1.00  0.00    -0.128 A  
HETATM   15  C   UNL     1      -8.289   9.535  64.942  1.00  0.00    -0.146 A  
HETATM   16  S   UNL     1      -7.532   8.464  66.133  1.00  0.00    -0.090 SA 
HETATM   17  C   UNL     1      -8.736   8.435  67.440  1.00  0.00    -0.135 A  
HETATM   18  C   UNL     1      -8.426   7.571  68.510  1.00  0.00    -0.129 A  
HETATM   19  C   UNL     1      -9.218   7.533  69.653  1.00  0.00    -0.146 A  
HETATM   20  C   UNL     1     -10.330   8.355  69.722  1.00  0.00    -0.216 A  
HETATM   21  C   UNL     1     -10.659   9.194  68.651  1.00  0.00    -0.207 A  
HETATM   22  C   UNL     1      -9.875   9.271  67.477  1.00  0.00    -0.175 A  
ENDBRANCH   8   9
ENDBRANCH   6   8
ENDBRANCH   3   6
ENDBRANCH   2   3
TORSDOF 5
ENDMDL
MODEL      123
REMARK 921   NORMALIZED FREE ENERGY PREDICTED BY IDOCK:   -4.14 KCAL/MOL
REMARK 922        TOTAL FREE ENERGY PREDICTED BY IDOCK:   -6.17 KCAL/MOL
REMARK 923 INTER-LIGAND FREE ENERGY PREDICTED BY IDOCK:   -5.25 KCAL/MOL
REMARK 924 INTRA-LIGAND FREE ENERGY PREDICTED BY IDOCK:   -0.92 KCAL/MOL
REMARK 927      BINDING AFFINITY PREDICTED BY RF-SCORE:    0.00 PKD
ROOT
HETATM    1  C   UNL     1     -10.673  10.013  70.087  1.00  0.00    -0.361 C  
HETATM    2  C   UNL     1      -9.898   9.982  68.767  1.00  0.00    -0.167 C  
ENDROOT
BRANCH   2   3
HETATM    3  N   UNL     1     -10.132  11.129  67.857  1.00  0.00    -0.173 NA 
BRANCH   3   4
HETATM    4  C   UNL     1     -11.536  11.569  67.908  1.00  0.00    -0.301 C  
HETATM    5  C   UNL     1     -11.786  13.008  68.339  1.00  0.00    -0.370 C  
ENDBRANCH   3   4
BRANCH   3   6
HETATM    6  C   UNL     1      -9.125  12.229  68.061  1.00  0.00    -0.191 C  
HETATM    7  C   UNL     1      -7.946  11.662  68.902  1.00  0.00    -0.026 C  
BRANCH   6   8
HETATM    8  C   UNL     1      -8.429  12.875  66.795  1.00  0.00    -0.013 C  
BRANCH   8   9
HETATM    9  N   UNL     1      -8.991  14.154  66.263  1.00  0.00    -0.046 NA 
HETATM   10  C   UNL     1     -10.004  14.041  65.263  1.00  0.00    -0.252 A  
HETATM   11  C   UNL     1     -10.151  12.889  64.459  1.00  0.00    -0.259 A  
HETATM   12  C   UNL     1     -11.278  12.673  63.658  1.00  0.00    -0.525 A  
HETATM   13  C   UNL     1     -12.281  13.625  63.605  1.00  0.00    -0.376 A  
HETATM   14  C   UNL     1     -12.106  14.825  64.282  1.00  0.00    -0.415 A  
HETATM   15  C   UNL     1     -10.962  15.057  65.070  1.00  0.00    -0.423 A  
HETATM   16  S   UNL     1     -10.851  16.669  65.798  1.00  0.00    -0.010 SA 
HETATM   17  C   UNL     1      -9.336  16.568  66.720  1.00  0.00    -0.243 A  
HETATM   18  C   UNL     1      -8.946  17.767  67.350  1.00  0.00    -0.240 A  
HETATM   19  C   UNL     1      -7.845  17.806  68.199  1.00  0.00    -0.264 A  
HETATM   20  C   UNL     1      -7.125  16.643  68.412  1.00  0.00    -0.167 A  
HETATM   21  C   UNL     1      -7.489  15.455  67.767  1.00  0.00    -0.173 A  
HETATM   22  C   UNL     1      -8.608  15.370  66.907  1.00  0.00    -0.259 A  
ENDBRANCH   8   9
ENDBRANCH   6   8
ENDBRANCH   3   6
ENDBRANCH   2   3
TORSDOF 5
ENDMDL
MODEL      124
REMARK 921   NORMALIZED FREE ENERGY PREDICTED BY IDOCK:   -4.14 KCAL/MOL
REMARK 922        TOTAL FREE ENERGY PREDICTED BY IDOCK:   -6.16 KCAL/MOL
REMARK 923 INTER-LIGAND FREE ENERGY PREDICTED BY IDOCK:   -5.49 KCAL/MOL
REMARK 924 INTRA-LIGAND FREE ENERGY PREDICTED BY IDOCK:   -0.67 KCAL/MOL
REMARK 927      BINDING AFFINITY PREDICTED BY RF-SCORE:    0.00 PKD
ROOT
HETATM    1  C   UNL     1      -6.112   7.614  69.347  1.00  0.00    -0.031 C  
HETATM    2  C   UNL     1      -7.380   7.951  68.559  1.00  0.00    -0.097 C  
ENDROOT
BRANCH   2   3
HETATM    3  N   UNL     1      -7.185   8.222  67.114  1.00  0.00    -0.083 NA 
BRANCH   3   4
HETATM    4  C   UNL     1      -7.400   7.007  66.312  1.00  0.00    -0.076 C  
HETATM    5  C   UNL     1      -8.291   5.933  66.924  1.00  0.00    -0.108 C  
ENDBRANCH   3   4
BRANCH   3   6
HETATM    6  C   UNL     1      -7.968   9.422  66.652  1.00  0.00    -0.108 C  
HETATM    7  C   UNL     1      -7.242  10.033  65.419  1.00  0.00    -0.139 C  
BRANCH   6   8
HETATM    8  C   UNL     1      -9.462   9.223  66.169  1.00  0.00    -0.236 C  
BRANCH   8   9
HETATM    9  N   UNL     1     -10.493  10.183  66.669  1.00  0.00    -0.212 NA 
HETATM   10  C   UNL     1     -10.892  10.041  68.033  1.00  0.00    -0.260 A  
HETATM   11  C   UNL     1     -10.738   8.832  68.746  1.00  0.00    -0.111 A  
HETATM   12  C   UNL     1     -10.895   8.756  70.135  1.00  0.00    -0.241 A  
HETATM   13  C   UNL     1     -11.252   9.884  70.853  1.00  0.00    -0.433 A  
HETATM   14  C   UNL     1     -11.538  11.057  70.165  1.00  0.00    -0.421 A  
HETATM   15  C   UNL     1     -11.404  11.131  68.765  1.00  0.00    -0.277 A  
HETATM   16  S   UNL     1     -11.888  12.671  68.034  1.00  0.00    -0.257 SA 
HETATM   17  C   UNL     1     -11.550  12.398  66.311  1.00  0.00    -0.393 A  
HETATM   18  C   UNL     1     -11.927  13.456  65.460  1.00  0.00    -0.433 A  
HETATM   19  C   UNL     1     -11.619  13.430  64.104  1.00  0.00    -0.440 A  
HETATM   20  C   UNL     1     -10.938  12.339  63.595  1.00  0.00    -0.532 A  
HETATM   21  C   UNL     1     -10.585  11.271  64.429  1.00  0.00    -0.410 A  
HETATM   22  C   UNL     1     -10.869  11.263  65.814  1.00  0.00    -0.194 A  
ENDBRANCH   8   9
ENDBRANCH   6   8
ENDBRANCH   3   6
ENDBRANCH   2   3
TORSDOF 5
ENDMDL
MODEL      125
REMARK 921   NORMALIZED FREE ENERGY PREDICTED BY IDOCK:   -4.13 KCAL/MOL
REMARK 922        TOTAL FREE ENERGY PREDICTED BY IDOCK:   -6.15 KCAL/MOL
REMARK 923 INTER-LIGAND FREE ENERGY PREDICTED BY IDOCK:   -5.66 KCAL/MOL
REMARK 924 INTRA-LIGAND FREE ENERGY PREDICTED BY IDOCK:   -0.50 KCAL/MOL
REMARK 927      BINDING AFFINITY PREDICTED BY RF-SCORE:    0.00 PKD
ROOT
HETATM    1  C   UNL     1     -10.044   5.312  70.558  1.00  0.00    -0.315 C  
HETATM    2  C   UNL     1     -10.284   5.814  69.131  1.00  0.00    -0.223 C  
ENDROOT
BRANCH   2   3
HETATM    3  N   UNL     1      -9.085   6.312  68.415  1.00  0.00    -0.115 NA 
BRANCH   3   4
HETATM    4  C   UNL     1      -8.865   5.565  67.166  1.00  0.00    -0.106 C  
HETATM    5  C   UNL     1      -9.898   4.504  66.812  1.00  0.00    -0.242 C  
ENDBRANCH   3   4
BRANCH   3   6
HETATM    6  C   UNL     1      -9.103   7.808  68.254  1.00  0.00    -0.130 C  
HETATM    7  C   UNL     1     -10.520   8.231  67.772  1.00  0.00    -0.280 C  
BRANCH   6   8
HETATM    8  C   UNL     1      -8.831   8.719  69.519  1.00  0.00    -0.144 C  
BRANCH   8   9
HETATM    9  N   UNL     1      -9.702   9.918  69.719  1.00  0.00    -0.227 NA 
HETATM   10  C   UNL     1      -9.415  11.059  68.911  1.00  0.00    -0.155 A  
HETATM   11  C   UNL     1      -8.149  11.274  68.323  1.00  0.00    -0.137 A  
HETATM   12  C   UNL     1      -7.934  12.247  67.340  1.00  0.00    -0.171 A  
HETATM   13  C   UNL     1      -8.975  13.068  66.942  1.00  0.00    -0.210 A  
HETATM   14  C   UNL     1     -10.197  12.969  67.593  1.00  0.00    -0.216 A  
HETATM   15  C   UNL     1     -10.411  12.007  68.599  1.00  0.00    -0.218 A  
HETATM   16  S   UNL     1     -11.997  12.068  69.388  1.00  0.00    -0.236 SA 
HETATM   17  C   UNL     1     -11.903  10.716  70.538  1.00  0.00    -0.357 A  
HETATM   18  C   UNL     1     -13.025  10.578  71.381  1.00  0.00    -0.542 A  
HETATM   19  C   UNL     1     -13.140   9.498  72.248  1.00  0.00    -0.492 A  
HETATM   20  C   UNL     1     -12.127   8.555  72.280  1.00  0.00    -0.455 A  
HETATM   21  C   UNL     1     -10.997   8.701  71.467  1.00  0.00    -0.360 A  
HETATM   22  C   UNL     1     -10.846   9.778  70.563  1.00  0.00    -0.323 A  
ENDBRANCH   8   9
ENDBRANCH   6   8
ENDBRANCH   3   6
ENDBRANCH   2   3
TORSDOF 5
ENDMDL
MODEL      126
REMARK 921   NORMALIZED FREE ENERGY PREDICTED BY IDOCK:   -4.12 KCAL/MOL
REMARK 922        TOTAL FREE ENERGY PREDICTED BY IDOCK:   -6.15 KCAL/MOL
REMARK 923 INTER-LIGAND FREE ENERGY PREDICTED BY IDOCK:   -5.41 KCAL/MOL
REMARK 924 INTRA-LIGAND FREE ENERGY PREDICTED BY IDOCK:   -0.74 KCAL/MOL
REMARK 927      BINDING AFFINITY PREDICTED BY RF-SCORE:    0.00 PKD
ROOT
HETATM    1  C   UNL     1     -12.737  12.018  63.436  1.00  0.00    -0.527 C  
HETATM    2  C   UNL     1     -12.252  12.392  64.839  1.00  0.00    -0.418 C  
ENDROOT
BRANCH   2   3
HETATM    3  N   UNL     1     -10.946  11.816  65.241  1.00  0.00    -0.303 NA 
BRANCH   3   4
HETATM    4  C   UNL     1     -10.455  10.860  64.236  1.00  0.00    -0.335 C  
HETATM    5  C   UNL     1      -9.383  11.366  63.278  1.00  0.00    -0.267 C  
ENDBRANCH   3   4
BRANCH   3   6
HETATM    6  C   UNL     1      -9.954  12.878  65.630  1.00  0.00    -0.235 C  
HETATM    7  C   UNL     1     -10.656  14.263  65.529  1.00  0.00    -0.351 C  
BRANCH   6   8
HETATM    8  C   UNL     1      -9.340  12.856  67.089  1.00  0.00    -0.229 C  
BRANCH   8   9
HETATM    9  N   UNL     1      -9.223  11.536  67.780  1.00  0.00    -0.161 NA 
HETATM   10  C   UNL     1      -8.039  10.781  67.523  1.00  0.00    -0.111 A  
HETATM   11  C   UNL     1      -7.252  10.974  66.366  1.00  0.00    -0.127 A  
HETATM   12  C   UNL     1      -5.974  10.421  66.227  1.00  0.00    -0.084 A  
HETATM   13  C   UNL     1      -5.455   9.622  67.231  1.00  0.00    -0.036 A  
HETATM   14  C   UNL     1      -6.254   9.307  68.322  1.00  0.00    -0.053 A  
HETATM   15  C   UNL     1      -7.550   9.842  68.454  1.00  0.00    -0.083 A  
HETATM   16  S   UNL     1      -8.469   9.276  69.860  1.00  0.00    -0.183 SA 
HETATM   17  C   UNL     1      -9.993  10.176  69.706  1.00  0.00    -0.220 A  
HETATM   18  C   UNL     1     -10.970   9.852  70.669  1.00  0.00    -0.405 A  
HETATM   19  C   UNL     1     -12.166  10.558  70.742  1.00  0.00    -0.468 A  
HETATM   20  C   UNL     1     -12.391  11.586  69.844  1.00  0.00    -0.247 A  
HETATM   21  C   UNL     1     -11.437  11.894  68.866  1.00  0.00    -0.358 A  
HETATM   22  C   UNL     1     -10.204  11.210  68.765  1.00  0.00    -0.206 A  
ENDBRANCH   8   9
ENDBRANCH   6   8
ENDBRANCH   3   6
ENDBRANCH   2   3
TORSDOF 5
ENDMDL
MODEL      127
REMARK 921   NORMALIZED FREE ENERGY PREDICTED BY IDOCK:   -4.11 KCAL/MOL
REMARK 922        TOTAL FREE ENERGY PREDICTED BY IDOCK:   -6.13 KCAL/MOL
REMARK 923 INTER-LIGAND FREE ENERGY PREDICTED BY IDOCK:   -5.60 KCAL/MOL
REMARK 924 INTRA-LIGAND FREE ENERGY PREDICTED BY IDOCK:   -0.53 KCAL/MOL
REMARK 927      BINDING AFFINITY PREDICTED BY RF-SCORE:    0.00 PKD
ROOT
HETATM    1  C   UNL     1      -6.527   6.764  69.561  1.00  0.00    -0.044 C  
HETATM    2  C   UNL     1      -7.222   6.701  68.198  1.00  0.00    -0.088 C  
ENDROOT
BRANCH   2   3
HETATM    3  N   UNL     1      -7.772   7.983  67.697  1.00  0.00    -0.108 NA 
BRANCH   3   4
HETATM    4  C   UNL     1      -6.695   8.910  67.313  1.00  0.00    -0.066 C  
HETATM    5  C   UNL     1      -7.002  10.398  67.423  1.00  0.00    -0.085 C  
ENDBRANCH   3   4
BRANCH   3   6
HETATM    6  C   UNL     1      -8.823   7.775  66.640  1.00  0.00    -0.148 C  
HETATM    7  C   UNL     1      -9.039   6.245  66.461  1.00  0.00    -0.162 C  
BRANCH   6   8
HETATM    8  C   UNL     1     -10.277   8.351  66.881  1.00  0.00    -0.313 C  
BRANCH   8   9
HETATM    9  N   UNL     1     -10.439   9.835  66.958  1.00  0.00    -0.239 NA 
HETATM   10  C   UNL     1     -10.255  10.563  65.744  1.00  0.00    -0.243 A  
HETATM   11  C   UNL     1      -9.508  10.052  64.659  1.00  0.00    -0.367 A  
HETATM   12  C   UNL     1      -9.528  10.643  63.390  1.00  0.00    -0.352 A  
HETATM   13  C   UNL     1     -10.268  11.793  63.176  1.00  0.00    -0.376 A  
HETATM   14  C   UNL     1     -10.908  12.392  64.253  1.00  0.00    -0.395 A  
HETATM   15  C   UNL     1     -10.871  11.814  65.536  1.00  0.00    -0.297 A  
HETATM   16  S   UNL     1     -11.665  12.746  66.817  1.00  0.00    -0.383 SA 
HETATM   17  C   UNL     1     -11.446  11.705  68.239  1.00  0.00    -0.303 A  
HETATM   18  C   UNL     1     -11.920  12.250  69.450  1.00  0.00    -0.318 A  
HETATM   19  C   UNL     1     -11.920  11.502  70.622  1.00  0.00    -0.391 A  
HETATM   20  C   UNL     1     -11.436  10.206  70.586  1.00  0.00    -0.432 A  
HETATM   21  C   UNL     1     -10.938   9.667  69.394  1.00  0.00    -0.215 A  
HETATM   22  C   UNL     1     -10.931  10.390  68.178  1.00  0.00    -0.281 A  
ENDBRANCH   8   9
ENDBRANCH   6   8
ENDBRANCH   3   6
ENDBRANCH   2   3
TORSDOF 5
ENDMDL
MODEL      128
REMARK 921   NORMALIZED FREE ENERGY PREDICTED BY IDOCK:   -4.09 KCAL/MOL
REMARK 922        TOTAL FREE ENERGY PREDICTED BY IDOCK:   -6.10 KCAL/MOL
REMARK 923 INTER-LIGAND FREE ENERGY PREDICTED BY IDOCK:   -5.00 KCAL/MOL
REMARK 924 INTRA-LIGAND FREE ENERGY PREDICTED BY IDOCK:   -1.10 KCAL/MOL
REMARK 927      BINDING AFFINITY PREDICTED BY RF-SCORE:    0.00 PKD
ROOT
HETATM    1  C   UNL     1      -5.798  10.121  70.882  1.00  0.00    -0.083 C  
HETATM    2  C   UNL     1      -7.131   9.597  70.341  1.00  0.00    -0.136 C  
ENDROOT
BRANCH   2   3
HETATM    3  N   UNL     1      -7.680  10.324  69.171  1.00  0.00    -0.107 NA 
BRANCH   3   4
HETATM    4  C   UNL     1      -6.848  11.491  68.834  1.00  0.00    -0.095 C  
HETATM    5  C   UNL     1      -7.585  12.760  68.422  1.00  0.00    -0.133 C  
ENDBRANCH   3   4
BRANCH   3   6
HETATM    6  C   UNL     1      -7.964   9.405  68.015  1.00  0.00    -0.092 C  
HETATM    7  C   UNL     1      -7.377   8.003  68.350  1.00  0.00    -0.098 C  
BRANCH   6   8
HETATM    8  C   UNL     1      -9.468   9.115  67.618  1.00  0.00    -0.140 C  
BRANCH   8   9
HETATM    9  N   UNL     1     -10.541   9.869  68.337  1.00  0.00    -0.211 NA 
HETATM   10  C   UNL     1     -10.957   9.343  69.598  1.00  0.00    -0.197 A  
HETATM   11  C   UNL     1     -10.772   7.989  69.954  1.00  0.00    -0.242 A  
HETATM   12  C   UNL     1     -10.948   7.527  71.263  1.00  0.00    -0.262 A  
HETATM   13  C   UNL     1     -11.356   8.402  72.255  1.00  0.00    -0.448 A  
HETATM   14  C   UNL     1     -11.672   9.710  71.911  1.00  0.00    -0.225 A  
HETATM   15  C   UNL     1     -11.518  10.173  70.590  1.00  0.00    -0.349 A  
HETATM   16  S   UNL     1     -12.043  11.840  70.300  1.00  0.00    -0.298 SA 
HETATM   17  C   UNL     1     -11.668  12.065  68.578  1.00  0.00    -0.332 A  
HETATM   18  C   UNL     1     -12.068  13.306  68.043  1.00  0.00    -0.260 A  
HETATM   19  C   UNL     1     -11.737  13.666  66.741  1.00  0.00    -0.426 A  
HETATM   20  C   UNL     1     -11.009  12.778  65.968  1.00  0.00    -0.306 A  
HETATM   21  C   UNL     1     -10.633  11.532  66.483  1.00  0.00    -0.301 A  
HETATM   22  C   UNL     1     -10.940  11.132  67.805  1.00  0.00    -0.262 A  
ENDBRANCH   8   9
ENDBRANCH   6   8
ENDBRANCH   3   6
ENDBRANCH   2   3
TORSDOF 5
ENDMDL
MODEL      129
REMARK 921   NORMALIZED FREE ENERGY PREDICTED BY IDOCK:   -4.02 KCAL/MOL
REMARK 922        TOTAL FREE ENERGY PREDICTED BY IDOCK:   -6.02 KCAL/MOL
REMARK 923 INTER-LIGAND FREE ENERGY PREDICTED BY IDOCK:   -5.17 KCAL/MOL
REMARK 924 INTRA-LIGAND FREE ENERGY PREDICTED BY IDOCK:   -0.85 KCAL/MOL
REMARK 927      BINDING AFFINITY PREDICTED BY RF-SCORE:    0.00 PKD
ROOT
HETATM    1  C   UNL     1      -5.855   6.808  68.934  1.00  0.00    -0.018 C  
HETATM    2  C   UNL     1      -7.281   6.956  68.396  1.00  0.00    -0.088 C  
ENDROOT
BRANCH   2   3
HETATM    3  N   UNL     1      -7.871   8.311  68.506  1.00  0.00    -0.118 NA 
BRANCH   3   4
HETATM    4  C   UNL     1      -6.832   9.325  68.749  1.00  0.00    -0.060 C  
HETATM    5  C   UNL     1      -7.155  10.401  69.778  1.00  0.00    -0.148 C  
ENDBRANCH   3   4
BRANCH   3   6
HETATM    6  C   UNL     1      -8.790   8.624  67.356  1.00  0.00    -0.134 C  
HETATM    7  C   UNL     1      -8.743   7.433  66.355  1.00  0.00    -0.154 C  
BRANCH   6   8
HETATM    8  C   UNL     1     -10.333   8.834  67.643  1.00  0.00    -0.254 C  
BRANCH   8   9
HETATM    9  N   UNL     1     -10.733   9.325  68.997  1.00  0.00    -0.201 NA 
HETATM   10  C   UNL     1     -10.892  10.736  69.146  1.00  0.00    -0.237 A  
HETATM   11  C   UNL     1     -10.270  11.664  68.282  1.00  0.00    -0.206 A  
HETATM   12  C   UNL     1     -10.614  13.021  68.267  1.00  0.00    -0.260 A  
HETATM   13  C   UNL     1     -11.567  13.501  69.147  1.00  0.00    -0.359 A  
HETATM   14  C   UNL     1     -12.102  12.640  70.097  1.00  0.00    -0.368 A  
HETATM   15  C   UNL     1     -11.742  11.279  70.130  1.00  0.00    -0.343 A  
HETATM   16  S   UNL     1     -12.449  10.336  71.453  1.00  0.00    -0.442 SA 
HETATM   17  C   UNL     1     -11.808   8.707  71.146  1.00  0.00    -0.287 A  
HETATM   18  C   UNL     1     -12.149   7.745  72.117  1.00  0.00    -0.346 A  
HETATM   19  C   UNL     1     -11.815   6.405  71.948  1.00  0.00    -0.380 A  
HETATM   20  C   UNL     1     -11.129   6.028  70.807  1.00  0.00    -0.355 A  
HETATM   21  C   UNL     1     -10.761   6.983  69.852  1.00  0.00    -0.265 A  
HETATM   22  C   UNL     1     -11.091   8.352  69.980  1.00  0.00    -0.148 A  
ENDBRANCH   8   9
ENDBRANCH   6   8
ENDBRANCH   3   6
ENDBRANCH   2   3
TORSDOF 5
ENDMDL
MODEL      130
REMARK 921   NORMALIZED FREE ENERGY PREDICTED BY IDOCK:   -4.02 KCAL/MOL
REMARK 922        TOTAL FREE ENERGY PREDICTED BY IDOCK:   -6.01 KCAL/MOL
REMARK 923 INTER-LIGAND FREE ENERGY PREDICTED BY IDOCK:   -5.44 KCAL/MOL
REMARK 924 INTRA-LIGAND FREE ENERGY PREDICTED BY IDOCK:   -0.57 KCAL/MOL
REMARK 927      BINDING AFFINITY PREDICTED BY RF-SCORE:    0.00 PKD
ROOT
HETATM    1  C   UNL     1     -10.350   6.905  67.514  1.00  0.00    -0.277 C  
HETATM    2  C   UNL     1     -10.350   8.318  66.925  1.00  0.00    -0.320 C  
ENDROOT
BRANCH   2   3
HETATM    3  N   UNL     1      -9.062   9.048  67.009  1.00  0.00    -0.128 NA 
BRANCH   3   4
HETATM    4  C   UNL     1      -8.342   9.005  65.726  1.00  0.00    -0.128 C  
HETATM    5  C   UNL     1      -7.360   7.856  65.532  1.00  0.00    -0.076 C  
ENDBRANCH   3   4
BRANCH   3   6
HETATM    6  C   UNL     1      -9.230  10.428  67.585  1.00  0.00    -0.148 C  
HETATM    7  C   UNL     1      -8.701  10.415  69.048  1.00  0.00    -0.170 C  
BRANCH   6   8
HETATM    8  C   UNL     1      -8.472  11.640  66.905  1.00  0.00    -0.168 C  
BRANCH   8   9
HETATM    9  N   UNL     1      -9.279  12.828  66.491  1.00  0.00    -0.220 NA 
HETATM   10  C   UNL     1     -10.184  12.640  65.403  1.00  0.00    -0.284 A  
HETATM   11  C   UNL     1     -10.022  11.609  64.451  1.00  0.00    -0.298 A  
HETATM   12  C   UNL     1     -11.025  11.268  63.537  1.00  0.00    -0.329 A  
HETATM   13  C   UNL     1     -12.213  11.977  63.519  1.00  0.00    -0.653 A  
HETATM   14  C   UNL     1     -12.352  13.079  64.353  1.00  0.00    -0.442 A  
HETATM   15  C   UNL     1     -11.335  13.440  65.258  1.00  0.00    -0.296 A  
HETATM   16  S   UNL     1     -11.633  14.919  66.189  1.00  0.00    -0.156 SA 
HETATM   17  C   UNL     1     -10.186  15.020  67.216  1.00  0.00    -0.242 A  
HETATM   18  C   UNL     1     -10.113  16.175  68.022  1.00  0.00    -0.242 A  
HETATM   19  C   UNL     1      -9.097  16.332  68.958  1.00  0.00    -0.255 A  
HETATM   20  C   UNL     1      -8.146  15.335  69.085  1.00  0.00    -0.228 A  
HETATM   21  C   UNL     1      -8.195  14.199  68.268  1.00  0.00    -0.148 A  
HETATM   22  C   UNL     1      -9.217  13.995  67.312  1.00  0.00    -0.230 A  
ENDBRANCH   8   9
ENDBRANCH   6   8
ENDBRANCH   3   6
ENDBRANCH   2   3
TORSDOF 5
ENDMDL
MODEL      131
REMARK 921   NORMALIZED FREE ENERGY PREDICTED BY IDOCK:   -4.01 KCAL/MOL
REMARK 922        TOTAL FREE ENERGY PREDICTED BY IDOCK:   -6.00 KCAL/MOL
REMARK 923 INTER-LIGAND FREE ENERGY PREDICTED BY IDOCK:   -5.30 KCAL/MOL
REMARK 924 INTRA-LIGAND FREE ENERGY PREDICTED BY IDOCK:   -0.70 KCAL/MOL
REMARK 927      BINDING AFFINITY PREDICTED BY RF-SCORE:    0.00 PKD
ROOT
HETATM    1  C   UNL     1     -10.850   7.728  67.337  1.00  0.00    -0.207 C  
HETATM    2  C   UNL     1      -9.939   8.226  68.462  1.00  0.00    -0.190 C  
ENDROOT
BRANCH   2   3
HETATM    3  N   UNL     1      -9.961   9.688  68.707  1.00  0.00    -0.167 NA 
BRANCH   3   4
HETATM    4  C   UNL     1     -10.693  10.009  69.942  1.00  0.00    -0.286 C  
HETATM    5  C   UNL     1     -10.765   8.913  70.999  1.00  0.00    -0.315 C  
ENDBRANCH   3   4
BRANCH   3   6
HETATM    6  C   UNL     1      -8.588  10.297  68.619  1.00  0.00    -0.128 C  
HETATM    7  C   UNL     1      -7.630   9.253  67.977  1.00  0.00    -0.084 C  
BRANCH   6   8
HETATM    8  C   UNL     1      -8.384  11.604  67.749  1.00  0.00    -0.143 C  
BRANCH   8   9
HETATM    9  N   UNL     1      -9.528  12.072  66.908  1.00  0.00    -0.198 NA 
HETATM   10  C   UNL     1     -10.310  13.146  67.431  1.00  0.00    -0.239 A  
HETATM   11  C   UNL     1     -10.358  13.448  68.810  1.00  0.00    -0.164 A  
HETATM   12  C   UNL     1     -10.917  14.634  69.298  1.00  0.00    -0.278 A  
HETATM   13  C   UNL     1     -11.483  15.543  68.422  1.00  0.00    -0.370 A  
HETATM   14  C   UNL     1     -11.567  15.217  67.074  1.00  0.00    -0.179 A  
HETATM   15  C   UNL     1     -11.028  14.013  66.582  1.00  0.00    -0.300 A  
HETATM   16  S   UNL     1     -11.292  13.708  64.856  1.00  0.00    -0.361 SA 
HETATM   17  C   UNL     1     -10.458  12.158  64.610  1.00  0.00    -0.299 A  
HETATM   18  C   UNL     1     -10.581  11.621  63.313  1.00  0.00    -0.420 A  
HETATM   19  C   UNL     1      -9.886  10.474  62.943  1.00  0.00    -0.224 A  
HETATM   20  C   UNL     1      -9.072   9.857  63.877  1.00  0.00    -0.298 A  
HETATM   21  C   UNL     1      -8.968  10.369  65.176  1.00  0.00    -0.217 A  
HETATM   22  C   UNL     1      -9.648  11.538  65.589  1.00  0.00    -0.231 A  
ENDBRANCH   8   9
ENDBRANCH   6   8
ENDBRANCH   3   6
ENDBRANCH   2   3
TORSDOF 5
ENDMDL
MODEL      132
REMARK 921   NORMALIZED FREE ENERGY PREDICTED BY IDOCK:   -3.99 KCAL/MOL
REMARK 922        TOTAL FREE ENERGY PREDICTED BY IDOCK:   -5.97 KCAL/MOL
REMARK 923 INTER-LIGAND FREE ENERGY PREDICTED BY IDOCK:   -5.50 KCAL/MOL
REMARK 924 INTRA-LIGAND FREE ENERGY PREDICTED BY IDOCK:   -0.48 KCAL/MOL
REMARK 927      BINDING AFFINITY PREDICTED BY RF-SCORE:    0.00 PKD
ROOT
HETATM    1  C   UNL     1     -10.652   5.480  72.089  1.00  0.00    -0.280 C  
HETATM    2  C   UNL     1     -10.464   5.404  70.572  1.00  0.00    -0.265 C  
ENDROOT
BRANCH   2   3
HETATM    3  N   UNL     1      -9.102   5.720  70.077  1.00  0.00    -0.141 NA 
BRANCH   3   4
HETATM    4  C   UNL     1      -8.607   4.668  69.176  1.00  0.00    -0.079 C  
HETATM    5  C   UNL     1      -9.631   3.656  68.678  1.00  0.00    -0.159 C  
ENDBRANCH   3   4
BRANCH   3   6
HETATM    6  C   UNL     1      -9.012   7.115  69.519  1.00  0.00    -0.140 C  
HETATM    7  C   UNL     1      -7.663   7.249  68.756  1.00  0.00    -0.119 C  
BRANCH   6   8
HETATM    8  C   UNL     1     -10.101   7.595  68.476  1.00  0.00    -0.190 C  
BRANCH   8   9
HETATM    9  N   UNL     1     -10.344   9.064  68.343  1.00  0.00    -0.202 NA 
HETATM   10  C   UNL     1      -9.968   9.666  67.105  1.00  0.00    -0.194 A  
HETATM   11  C   UNL     1      -9.007   9.092  66.244  1.00  0.00    -0.194 A  
HETATM   12  C   UNL     1      -8.814   9.539  64.931  1.00  0.00    -0.240 A  
HETATM   13  C   UNL     1      -9.553  10.605  64.449  1.00  0.00    -0.349 A  
HETATM   14  C   UNL     1     -10.412  11.273  65.312  1.00  0.00    -0.341 A  
HETATM   15  C   UNL     1     -10.592  10.842  66.640  1.00  0.00    -0.232 A  
HETATM   16  S   UNL     1     -11.657  11.852  67.633  1.00  0.00    -0.284 SA 
HETATM   17  C   UNL     1     -11.662  10.989  69.187  1.00  0.00    -0.333 A  
HETATM   18  C   UNL     1     -12.381  11.630  70.216  1.00  0.00    -0.339 A  
HETATM   19  C   UNL     1     -12.567  11.015  71.449  1.00  0.00    -0.498 A  
HETATM   20  C   UNL     1     -12.026   9.759  71.658  1.00  0.00    -0.454 A  
HETATM   21  C   UNL     1     -11.286   9.129  70.650  1.00  0.00    -0.323 A  
HETATM   22  C   UNL     1     -11.083   9.714  69.379  1.00  0.00    -0.139 A  
ENDBRANCH   8   9
ENDBRANCH   6   8
ENDBRANCH   3   6
ENDBRANCH   2   3
TORSDOF 5
ENDMDL
MODEL      133
REMARK 921   NORMALIZED FREE ENERGY PREDICTED BY IDOCK:   -3.98 KCAL/MOL
REMARK 922        TOTAL FREE ENERGY PREDICTED BY IDOCK:   -5.96 KCAL/MOL
REMARK 923 INTER-LIGAND FREE ENERGY PREDICTED BY IDOCK:   -5.44 KCAL/MOL
REMARK 924 INTRA-LIGAND FREE ENERGY PREDICTED BY IDOCK:   -0.52 KCAL/MOL
REMARK 927      BINDING AFFINITY PREDICTED BY RF-SCORE:    0.00 PKD
ROOT
HETATM    1  C   UNL     1     -12.411  12.100  63.460  1.00  0.00    -0.666 C  
HETATM    2  C   UNL     1     -12.316  12.574  64.913  1.00  0.00    -0.470 C  
ENDROOT
BRANCH   2   3
HETATM    3  N   UNL     1     -10.984  13.064  65.342  1.00  0.00    -0.272 NA 
BRANCH   3   4
HETATM    4  C   UNL     1     -11.015  14.509  65.623  1.00  0.00    -0.323 C  
HETATM    5  C   UNL     1      -9.669  15.196  65.821  1.00  0.00    -0.379 C  
ENDBRANCH   3   4
BRANCH   3   6
HETATM    6  C   UNL     1     -10.401  12.225  66.447  1.00  0.00    -0.225 C  
HETATM    7  C   UNL     1     -11.534  11.893  67.459  1.00  0.00    -0.396 C  
BRANCH   6   8
HETATM    8  C   UNL     1      -9.769  10.819  66.089  1.00  0.00    -0.207 C  
BRANCH   8   9
HETATM    9  N   UNL     1      -9.019  10.094  67.161  1.00  0.00    -0.135 NA 
HETATM   10  C   UNL     1      -7.954  10.806  67.790  1.00  0.00    -0.110 A  
HETATM   11  C   UNL     1      -7.302  11.897  67.174  1.00  0.00    -0.142 A  
HETATM   12  C   UNL     1      -6.437  12.747  67.873  1.00  0.00    -0.120 A  
HETATM   13  C   UNL     1      -6.164  12.507  69.208  1.00  0.00    -0.105 A  
HETATM   14  C   UNL     1      -6.685  11.368  69.808  1.00  0.00    -0.076 A  
HETATM   15  C   UNL     1      -7.538  10.498  69.102  1.00  0.00    -0.123 A  
HETATM   16  S   UNL     1      -8.050   9.049  69.984  1.00  0.00    -0.140 SA 
HETATM   17  C   UNL     1      -9.114   8.243  68.810  1.00  0.00    -0.144 A  
HETATM   18  C   UNL     1      -9.610   6.991  69.224  1.00  0.00    -0.154 A  
HETATM   19  C   UNL     1     -10.544   6.301  68.459  1.00  0.00    -0.315 A  
HETATM   20  C   UNL     1     -10.978   6.862  67.270  1.00  0.00    -0.406 A  
HETATM   21  C   UNL     1     -10.468   8.092  66.838  1.00  0.00    -0.387 A  
HETATM   22  C   UNL     1      -9.526   8.831  67.592  1.00  0.00    -0.141 A  
ENDBRANCH   8   9
ENDBRANCH   6   8
ENDBRANCH   3   6
ENDBRANCH   2   3
TORSDOF 5
ENDMDL
MODEL      134
REMARK 921   NORMALIZED FREE ENERGY PREDICTED BY IDOCK:   -3.95 KCAL/MOL
REMARK 922        TOTAL FREE ENERGY PREDICTED BY IDOCK:   -5.93 KCAL/MOL
REMARK 923 INTER-LIGAND FREE ENERGY PREDICTED BY IDOCK:   -5.50 KCAL/MOL
REMARK 924 INTRA-LIGAND FREE ENERGY PREDICTED BY IDOCK:   -0.43 KCAL/MOL
REMARK 927      BINDING AFFINITY PREDICTED BY RF-SCORE:    0.00 PKD
ROOT
HETATM    1  C   UNL     1      -7.063   7.556  66.920  1.00  0.00    -0.084 C  
HETATM    2  C   UNL     1      -8.347   7.890  66.156  1.00  0.00    -0.127 C  
ENDROOT
BRANCH   2   3
HETATM    3  N   UNL     1      -8.541   9.322  65.821  1.00  0.00    -0.144 NA 
BRANCH   3   4
HETATM    4  C   UNL     1      -8.527   9.533  64.365  1.00  0.00    -0.181 C  
HETATM    5  C   UNL     1      -9.743  10.226  63.763  1.00  0.00    -0.298 C  
ENDBRANCH   3   4
BRANCH   3   6
HETATM    6  C   UNL     1      -9.731   9.913  66.527  1.00  0.00    -0.204 C  
HETATM    7  C   UNL     1     -10.584   8.747  67.106  1.00  0.00    -0.303 C  
BRANCH   6   8
HETATM    8  C   UNL     1      -9.492  10.875  67.761  1.00  0.00    -0.157 C  
BRANCH   8   9
HETATM    9  N   UNL     1     -10.520  11.923  68.041  1.00  0.00    -0.202 NA 
HETATM   10  C   UNL     1     -11.348  11.718  69.186  1.00  0.00    -0.279 A  
HETATM   11  C   UNL     1     -11.561  10.440  69.748  1.00  0.00    -0.339 A  
HETATM   12  C   UNL     1     -12.163  10.262  71.000  1.00  0.00    -0.487 A  
HETATM   13  C   UNL     1     -12.607  11.361  71.714  1.00  0.00    -0.241 A  
HETATM   14  C   UNL     1     -12.530  12.619  71.131  1.00  0.00    -0.326 A  
HETATM   15  C   UNL     1     -11.947  12.800  69.863  1.00  0.00    -0.298 A  
HETATM   16  S   UNL     1     -12.003  14.452  69.226  1.00  0.00    -0.308 SA 
HETATM   17  C   UNL     1     -11.161  14.290  67.669  1.00  0.00    -0.304 A  
HETATM   18  C   UNL     1     -11.130  15.464  66.889  1.00  0.00    -0.256 A  
HETATM   19  C   UNL     1     -10.407  15.516  65.702  1.00  0.00    -0.407 A  
HETATM   20  C   UNL     1      -9.720  14.389  65.288  1.00  0.00    -0.077 A  
HETATM   21  C   UNL     1      -9.770  13.211  66.043  1.00  0.00    -0.234 A  
HETATM   22  C   UNL     1     -10.483  13.119  67.261  1.00  0.00    -0.243 A  
ENDBRANCH   8   9
ENDBRANCH   6   8
ENDBRANCH   3   6
ENDBRANCH   2   3
TORSDOF 5
ENDMDL
MODEL      135
REMARK 921   NORMALIZED FREE ENERGY PREDICTED BY IDOCK:   -3.91 KCAL/MOL
REMARK 922        TOTAL FREE ENERGY PREDICTED BY IDOCK:   -5.87 KCAL/MOL
REMARK 923 INTER-LIGAND FREE ENERGY PREDICTED BY IDOCK:   -4.55 KCAL/MOL
REMARK 924 INTRA-LIGAND FREE ENERGY PREDICTED BY IDOCK:   -1.32 KCAL/MOL
REMARK 927      BINDING AFFINITY PREDICTED BY RF-SCORE:    0.00 PKD
ROOT
HETATM    1  C   UNL     1      -7.434   9.642  70.230  1.00  0.00    -0.165 C  
HETATM    2  C   UNL     1      -7.455   8.811  71.516  1.00  0.00    -0.087 C  
ENDROOT
BRANCH   2   3
HETATM    3  N   UNL     1      -7.675   7.356  71.336  1.00  0.00    -0.085 NA 
BRANCH   3   4
HETATM    4  C   UNL     1      -6.397   6.628  71.289  1.00  0.00    -0.041 C  
HETATM    5  C   UNL     1      -6.113   5.826  70.025  1.00  0.00    -0.026 C  
ENDBRANCH   3   4
BRANCH   3   6
HETATM    6  C   UNL     1      -8.670   6.808  72.323  1.00  0.00    -0.128 C  
HETATM    7  C   UNL     1      -8.847   7.847  73.467  1.00  0.00    -0.333 C  
BRANCH   6   8
HETATM    8  C   UNL     1     -10.145   6.505  71.836  1.00  0.00    -0.182 C  
BRANCH   8   9
HETATM    9  N   UNL     1     -10.493   6.819  70.416  1.00  0.00    -0.202 NA 
HETATM   10  C   UNL     1     -10.937   8.148  70.145  1.00  0.00    -0.223 A  
HETATM   11  C   UNL     1     -11.489   8.982  71.143  1.00  0.00    -0.376 A  
HETATM   12  C   UNL     1     -11.695  10.353  70.945  1.00  0.00    -0.455 A  
HETATM   13  C   UNL     1     -11.392  10.927  69.723  1.00  0.00    -0.374 A  
HETATM   14  C   UNL     1     -10.971  10.111  68.681  1.00  0.00    -0.273 A  
HETATM   15  C   UNL     1     -10.784   8.728  68.869  1.00  0.00    -0.087 A  
HETATM   16  S   UNL     1     -10.326   7.816  67.420  1.00  0.00    -0.302 SA 
HETATM   17  C   UNL     1     -10.152   6.163  68.048  1.00  0.00    -0.153 A  
HETATM   18  C   UNL     1      -9.866   5.187  67.073  1.00  0.00    -0.197 A  
HETATM   19  C   UNL     1      -9.589   3.873  67.433  1.00  0.00    -0.218 A  
HETATM   20  C   UNL     1      -9.607   3.531  68.774  1.00  0.00    -0.137 A  
HETATM   21  C   UNL     1      -9.918   4.488  69.746  1.00  0.00    -0.268 A  
HETATM   22  C   UNL     1     -10.193   5.837  69.423  1.00  0.00    -0.234 A  
ENDBRANCH   8   9
ENDBRANCH   6   8
ENDBRANCH   3   6
ENDBRANCH   2   3
TORSDOF 5
ENDMDL
MODEL      136
REMARK 921   NORMALIZED FREE ENERGY PREDICTED BY IDOCK:   -3.90 KCAL/MOL
REMARK 922        TOTAL FREE ENERGY PREDICTED BY IDOCK:   -5.86 KCAL/MOL
REMARK 923 INTER-LIGAND FREE ENERGY PREDICTED BY IDOCK:   -5.02 KCAL/MOL
REMARK 924 INTRA-LIGAND FREE ENERGY PREDICTED BY IDOCK:   -0.85 KCAL/MOL
REMARK 927      BINDING AFFINITY PREDICTED BY RF-SCORE:    0.00 PKD
ROOT
HETATM    1  C   UNL     1      -7.299   8.336  66.435  1.00  0.00    -0.080 C  
HETATM    2  C   UNL     1      -8.696   8.544  67.026  1.00  0.00    -0.125 C  
ENDROOT
BRANCH   2   3
HETATM    3  N   UNL     1      -9.389   9.787  66.612  1.00  0.00    -0.153 NA 
BRANCH   3   4
HETATM    4  C   UNL     1      -9.766   9.736  65.190  1.00  0.00    -0.268 C  
HETATM    5  C   UNL     1      -9.166  10.805  64.285  1.00  0.00    -0.246 C  
ENDBRANCH   3   4
BRANCH   3   6
HETATM    6  C   UNL     1     -10.515  10.145  67.544  1.00  0.00    -0.253 C  
HETATM    7  C   UNL     1     -10.352   9.314  68.849  1.00  0.00    -0.231 C  
BRANCH   6   8
HETATM    8  C   UNL     1     -10.649  11.640  68.046  1.00  0.00    -0.202 C  
BRANCH   8   9
HETATM    9  N   UNL     1      -9.882  12.696  67.315  1.00  0.00    -0.203 NA 
HETATM   10  C   UNL     1     -10.570  13.375  66.265  1.00  0.00    -0.291 A  
HETATM   11  C   UNL     1     -11.687  12.818  65.605  1.00  0.00    -0.443 A  
HETATM   12  C   UNL     1     -12.509  13.569  64.756  1.00  0.00    -0.402 A  
HETATM   13  C   UNL     1     -12.214  14.898  64.509  1.00  0.00    -0.396 A  
HETATM   14  C   UNL     1     -11.050  15.440  65.038  1.00  0.00    -0.428 A  
HETATM   15  C   UNL     1     -10.208  14.681  65.874  1.00  0.00    -0.326 A  
HETATM   16  S   UNL     1      -8.722  15.491  66.398  1.00  0.00    -0.243 SA 
HETATM   17  C   UNL     1      -7.964  14.264  67.436  1.00  0.00    -0.192 A  
HETATM   18  C   UNL     1      -6.694  14.615  67.936  1.00  0.00    -0.175 A  
HETATM   19  C   UNL     1      -6.034  13.803  68.852  1.00  0.00    -0.085 A  
HETATM   20  C   UNL     1      -6.643  12.631  69.264  1.00  0.00    -0.092 A  
HETATM   21  C   UNL     1      -7.891  12.261  68.750  1.00  0.00     0.006 A  
HETATM   22  C   UNL     1      -8.600  13.063  67.826  1.00  0.00    -0.189 A  
ENDBRANCH   8   9
ENDBRANCH   6   8
ENDBRANCH   3   6
ENDBRANCH   2   3
TORSDOF 5
ENDMDL
MODEL      137
REMARK 921   NORMALIZED FREE ENERGY PREDICTED BY IDOCK:   -3.89 KCAL/MOL
REMARK 922        TOTAL FREE ENERGY PREDICTED BY IDOCK:   -5.84 KCAL/MOL
REMARK 923 INTER-LIGAND FREE ENERGY PREDICTED BY IDOCK:   -5.37 KCAL/MOL
REMARK 924 INTRA-LIGAND FREE ENERGY PREDICTED BY IDOCK:   -0.47 KCAL/MOL
REMARK 927      BINDING AFFINITY PREDICTED BY RF-SCORE:    0.00 PKD
ROOT
HETATM    1  C   UNL     1      -9.412  10.588  63.721  1.00  0.00    -0.342 C  
HETATM    2  C   UNL     1     -10.623  10.780  64.638  1.00  0.00    -0.199 C  
ENDROOT
BRANCH   2   3
HETATM    3  N   UNL     1     -10.427  11.716  65.772  1.00  0.00    -0.254 NA 
BRANCH   3   4
HETATM    4  C   UNL     1     -11.608  12.573  65.963  1.00  0.00    -0.406 C  
HETATM    5  C   UNL     1     -12.578  12.672  64.792  1.00  0.00    -0.530 C  
ENDBRANCH   3   4
BRANCH   3   6
HETATM    6  C   UNL     1      -9.960  11.008  67.015  1.00  0.00    -0.190 C  
HETATM    7  C   UNL     1      -9.947  12.034  68.185  1.00  0.00    -0.203 C  
BRANCH   6   8
HETATM    8  C   UNL     1     -10.809   9.792  67.569  1.00  0.00    -0.220 C  
BRANCH   8   9
HETATM    9  N   UNL     1     -10.112   8.786  68.428  1.00  0.00    -0.184 NA 
HETATM   10  C   UNL     1     -10.539   8.699  69.787  1.00  0.00    -0.224 A  
HETATM   11  C   UNL     1     -11.197   9.761  70.445  1.00  0.00    -0.362 A  
HETATM   12  C   UNL     1     -11.832   9.599  71.682  1.00  0.00    -0.457 A  
HETATM   13  C   UNL     1     -11.794   8.372  72.322  1.00  0.00    -0.456 A  
HETATM   14  C   UNL     1     -11.045   7.344  71.764  1.00  0.00    -0.269 A  
HETATM   15  C   UNL     1     -10.386   7.511  70.531  1.00  0.00    -0.215 A  
HETATM   16  S   UNL     1      -9.406   6.133  69.998  1.00  0.00    -0.154 SA 
HETATM   17  C   UNL     1      -8.781   6.693  68.432  1.00  0.00    -0.122 A  
HETATM   18  C   UNL     1      -7.880   5.808  67.805  1.00  0.00    -0.098 A  
HETATM   19  C   UNL     1      -7.401   6.061  66.524  1.00  0.00    -0.081 A  
HETATM   20  C   UNL     1      -7.818   7.208  65.870  1.00  0.00    -0.106 A  
HETATM   21  C   UNL     1      -8.689   8.105  66.498  1.00  0.00    -0.160 A  
HETATM   22  C   UNL     1      -9.208   7.880  67.794  1.00  0.00    -0.137 A  
ENDBRANCH   8   9
ENDBRANCH   6   8
ENDBRANCH   3   6
ENDBRANCH   2   3
TORSDOF 5
ENDMDL
MODEL      138
REMARK 921   NORMALIZED FREE ENERGY PREDICTED BY IDOCK:   -3.89 KCAL/MOL
REMARK 922        TOTAL FREE ENERGY PREDICTED BY IDOCK:   -5.84 KCAL/MOL
REMARK 923 INTER-LIGAND FREE ENERGY PREDICTED BY IDOCK:   -5.56 KCAL/MOL
REMARK 924 INTRA-LIGAND FREE ENERGY PREDICTED BY IDOCK:   -0.28 KCAL/MOL
REMARK 927      BINDING AFFINITY PREDICTED BY RF-SCORE:    0.00 PKD
ROOT
HETATM    1  C   UNL     1      -9.923  13.318  66.485  1.00  0.00    -0.280 C  
HETATM    2  C   UNL     1      -9.114  12.365  67.368  1.00  0.00    -0.183 C  
ENDROOT
BRANCH   2   3
HETATM    3  N   UNL     1      -9.086  10.949  66.927  1.00  0.00    -0.153 NA 
BRANCH   3   4
HETATM    4  C   UNL     1      -7.709  10.429  66.902  1.00  0.00    -0.111 C  
HETATM    5  C   UNL     1      -6.956  10.549  65.584  1.00  0.00    -0.113 C  
ENDBRANCH   3   4
BRANCH   3   6
HETATM    6  C   UNL     1     -10.062  10.098  67.692  1.00  0.00    -0.190 C  
HETATM    7  C   UNL     1     -10.658   9.042  66.717  1.00  0.00    -0.201 C  
BRANCH   6   8
HETATM    8  C   UNL     1      -9.539   9.246  68.920  1.00  0.00    -0.155 C  
BRANCH   8   9
HETATM    9  N   UNL     1     -10.533   8.424  69.676  1.00  0.00    -0.220 NA 
HETATM   10  C   UNL     1     -10.343   7.009  69.654  1.00  0.00    -0.209 A  
HETATM   11  C   UNL     1      -9.610   6.359  68.637  1.00  0.00    -0.121 A  
HETATM   12  C   UNL     1      -9.213   5.020  68.738  1.00  0.00    -0.160 A  
HETATM   13  C   UNL     1      -9.574   4.275  69.847  1.00  0.00    -0.279 A  
HETATM   14  C   UNL     1     -10.405   4.848  70.802  1.00  0.00    -0.228 A  
HETATM   15  C   UNL     1     -10.825   6.187  70.692  1.00  0.00    -0.292 A  
HETATM   16  S   UNL     1     -11.948   6.739  71.947  1.00  0.00    -0.331 SA 
HETATM   17  C   UNL     1     -12.211   8.439  71.503  1.00  0.00    -0.302 A  
HETATM   18  C   UNL     1     -13.152   9.120  72.301  1.00  0.00    -0.509 A  
HETATM   19  C   UNL     1     -13.373  10.484  72.143  1.00  0.00    -0.347 A  
HETATM   20  C   UNL     1     -12.657  11.169  71.177  1.00  0.00    -0.513 A  
HETATM   21  C   UNL     1     -11.742  10.493  70.360  1.00  0.00    -0.434 A  
HETATM   22  C   UNL     1     -11.479   9.110  70.496  1.00  0.00    -0.229 A  
ENDBRANCH   8   9
ENDBRANCH   6   8
ENDBRANCH   3   6
ENDBRANCH   2   3
TORSDOF 5
ENDMDL
MODEL      139
REMARK 921   NORMALIZED FREE ENERGY PREDICTED BY IDOCK:   -3.89 KCAL/MOL
REMARK 922        TOTAL FREE ENERGY PREDICTED BY IDOCK:   -5.84 KCAL/MOL
REMARK 923 INTER-LIGAND FREE ENERGY PREDICTED BY IDOCK:   -5.56 KCAL/MOL
REMARK 924 INTRA-LIGAND FREE ENERGY PREDICTED BY IDOCK:   -0.28 KCAL/MOL
REMARK 927      BINDING AFFINITY PREDICTED BY RF-SCORE:    0.00 PKD
ROOT
HETATM    1  C   UNL     1      -6.481   4.778  66.192  1.00  0.00    -0.044 C  
HETATM    2  C   UNL     1      -7.539   5.356  67.136  1.00  0.00    -0.092 C  
ENDROOT
BRANCH   2   3
HETATM    3  N   UNL     1      -8.919   5.411  66.598  1.00  0.00    -0.114 NA 
BRANCH   3   4
HETATM    4  C   UNL     1      -9.700   4.236  67.018  1.00  0.00    -0.206 C  
HETATM    5  C   UNL     1      -9.225   3.512  68.271  1.00  0.00    -0.225 C  
ENDBRANCH   3   4
BRANCH   3   6
HETATM    6  C   UNL     1      -9.583   6.733  66.875  1.00  0.00    -0.160 C  
HETATM    7  C   UNL     1     -11.118   6.498  66.975  1.00  0.00    -0.411 C  
BRANCH   6   8
HETATM    8  C   UNL     1      -9.218   7.511  68.204  1.00  0.00    -0.137 C  
BRANCH   8   9
HETATM    9  N   UNL     1     -10.325   8.193  68.943  1.00  0.00    -0.214 NA 
HETATM   10  C   UNL     1     -10.808   7.540  70.117  1.00  0.00    -0.249 A  
HETATM   11  C   UNL     1     -10.646   6.154  70.335  1.00  0.00    -0.317 A  
HETATM   12  C   UNL     1     -10.893   5.556  71.577  1.00  0.00    -0.263 A  
HETATM   13  C   UNL     1     -11.350   6.324  72.634  1.00  0.00    -0.283 A  
HETATM   14  C   UNL     1     -11.643   7.664  72.415  1.00  0.00    -0.386 A  
HETATM   15  C   UNL     1     -11.418   8.264  71.161  1.00  0.00    -0.273 A  
HETATM   16  S   UNL     1     -11.923   9.957  71.024  1.00  0.00    -0.393 SA 
HETATM   17  C   UNL     1     -11.456  10.361  69.358  1.00  0.00    -0.227 A  
HETATM   18  C   UNL     1     -11.824  11.655  68.938  1.00  0.00    -0.392 A  
HETATM   19  C   UNL     1     -11.424  12.148  67.701  1.00  0.00    -0.399 A  
HETATM   20  C   UNL     1     -10.659  11.341  66.876  1.00  0.00    -0.300 A  
HETATM   21  C   UNL     1     -10.315  10.044  67.275  1.00  0.00    -0.293 A  
HETATM   22  C   UNL     1     -10.692   9.509  68.528  1.00  0.00    -0.182 A  
ENDBRANCH   8   9
ENDBRANCH   6   8
ENDBRANCH   3   6
ENDBRANCH   2   3
TORSDOF 5
ENDMDL
MODEL      140
REMARK 921   NORMALIZED FREE ENERGY PREDICTED BY IDOCK:   -3.88 KCAL/MOL
REMARK 922        TOTAL FREE ENERGY PREDICTED BY IDOCK:   -5.83 KCAL/MOL
REMARK 923 INTER-LIGAND FREE ENERGY PREDICTED BY IDOCK:   -4.82 KCAL/MOL
REMARK 924 INTRA-LIGAND FREE ENERGY PREDICTED BY IDOCK:   -1.01 KCAL/MOL
REMARK 927      BINDING AFFINITY PREDICTED BY RF-SCORE:    0.00 PKD
ROOT
HETATM    1  C   UNL     1      -6.847  12.199  67.963  1.00  0.00    -0.081 C  
HETATM    2  C   UNL     1      -7.940  13.098  67.378  1.00  0.00    -0.171 C  
ENDROOT
BRANCH   2   3
HETATM    3  N   UNL     1      -9.123  13.317  68.245  1.00  0.00    -0.198 NA 
BRANCH   3   4
HETATM    4  C   UNL     1      -8.801  14.210  69.369  1.00  0.00     0.518 C  
HETATM    5  C   UNL     1      -9.368  15.623  69.304  1.00  0.00    -0.267 C  
ENDBRANCH   3   4
BRANCH   3   6
HETATM    6  C   UNL     1     -10.337  13.722  67.454  1.00  0.00    -0.252 C  
HETATM    7  C   UNL     1      -9.865  14.248  66.068  1.00  0.00    -0.336 C  
BRANCH   6   8
HETATM    8  C   UNL     1     -11.427  12.627  67.107  1.00  0.00    -0.346 C  
BRANCH   8   9
HETATM    9  N   UNL     1     -11.194  11.230  67.586  1.00  0.00    -0.278 NA 
HETATM   10  C   UNL     1     -10.420  10.382  66.737  1.00  0.00    -0.225 A  
HETATM   11  C   UNL     1     -10.282  10.619  65.352  1.00  0.00    -0.341 A  
HETATM   12  C   UNL     1      -9.338   9.946  64.567  1.00  0.00    -0.336 A  
HETATM   13  C   UNL     1      -8.526   8.982  65.138  1.00  0.00    -0.183 A  
HETATM   14  C   UNL     1      -8.727   8.634  66.467  1.00  0.00    -0.143 A  
HETATM   15  C   UNL     1      -9.691   9.292  67.255  1.00  0.00    -0.167 A  
HETATM   16  S   UNL     1      -9.880   8.673  68.905  1.00  0.00    -0.184 SA 
HETATM   17  C   UNL     1     -11.124   9.750  69.576  1.00  0.00    -0.192 A  
HETATM   18  C   UNL     1     -11.542   9.428  70.883  1.00  0.00    -0.380 A  
HETATM   19  C   UNL     1     -12.423  10.250  71.577  1.00  0.00    -0.524 A  
HETATM   20  C   UNL     1     -12.895  11.395  70.959  1.00  0.00    -0.381 A  
HETATM   21  C   UNL     1     -12.507  11.706  69.651  1.00  0.00    -0.047 A  
HETATM   22  C   UNL     1     -11.605  10.904  68.914  1.00  0.00    -0.309 A  
ENDBRANCH   8   9
ENDBRANCH   6   8
ENDBRANCH   3   6
ENDBRANCH   2   3
TORSDOF 5
ENDMDL
MODEL      141
REMARK 921   NORMALIZED FREE ENERGY PREDICTED BY IDOCK:   -3.87 KCAL/MOL
REMARK 922        TOTAL FREE ENERGY PREDICTED BY IDOCK:   -5.82 KCAL/MOL
REMARK 923 INTER-LIGAND FREE ENERGY PREDICTED BY IDOCK:   -5.07 KCAL/MOL
REMARK 924 INTRA-LIGAND FREE ENERGY PREDICTED BY IDOCK:   -0.75 KCAL/MOL
REMARK 927      BINDING AFFINITY PREDICTED BY RF-SCORE:    0.00 PKD
ROOT
HETATM    1  C   UNL     1      -8.184   8.047  65.367  1.00  0.00    -0.152 C  
HETATM    2  C   UNL     1      -8.955   9.369  65.351  1.00  0.00    -0.206 C  
ENDROOT
BRANCH   2   3
HETATM    3  N   UNL     1      -9.329   9.911  66.680  1.00  0.00    -0.153 NA 
BRANCH   3   4
HETATM    4  C   UNL     1     -10.600  10.650  66.614  1.00  0.00    -0.214 C  
HETATM    5  C   UNL     1     -10.568  12.107  67.056  1.00  0.00    -0.256 C  
ENDBRANCH   3   4
BRANCH   3   6
HETATM    6  C   UNL     1      -9.273   8.860  67.756  1.00  0.00    -0.141 C  
HETATM    7  C   UNL     1      -8.489   9.443  68.967  1.00  0.00    -0.129 C  
BRANCH   6   8
HETATM    8  C   UNL     1     -10.627   8.331  68.383  1.00  0.00    -0.099 C  
BRANCH   8   9
HETATM    9  N   UNL     1     -10.604   7.013  69.089  1.00  0.00    -0.214 NA 
HETATM   10  C   UNL     1     -10.350   5.861  68.286  1.00  0.00    -0.214 A  
HETATM   11  C   UNL     1     -10.581   5.841  66.892  1.00  0.00    -0.377 A  
HETATM   12  C   UNL     1     -10.108   4.814  66.068  1.00  0.00    -0.282 A  
HETATM   13  C   UNL     1      -9.419   3.748  66.620  1.00  0.00    -0.212 A  
HETATM   14  C   UNL     1      -9.289   3.672  68.001  1.00  0.00    -0.237 A  
HETATM   15  C   UNL     1      -9.784   4.693  68.836  1.00  0.00    -0.166 A  
HETATM   16  S   UNL     1      -9.613   4.405  70.576  1.00  0.00    -0.214 SA 
HETATM   17  C   UNL     1     -10.299   5.886  71.277  1.00  0.00    -0.221 A  
HETATM   18  C   UNL     1     -10.370   5.896  72.685  1.00  0.00    -0.225 A  
HETATM   19  C   UNL     1     -10.777   7.033  73.374  1.00  0.00    -0.379 A  
HETATM   20  C   UNL     1     -11.122   8.163  72.653  1.00  0.00    -0.450 A  
HETATM   21  C   UNL     1     -11.082   8.151  71.254  1.00  0.00    -0.287 A  
HETATM   22  C   UNL     1     -10.664   7.020  70.515  1.00  0.00    -0.238 A  
ENDBRANCH   8   9
ENDBRANCH   6   8
ENDBRANCH   3   6
ENDBRANCH   2   3
TORSDOF 5
ENDMDL
MODEL      142
REMARK 921   NORMALIZED FREE ENERGY PREDICTED BY IDOCK:   -3.87 KCAL/MOL
REMARK 922        TOTAL FREE ENERGY PREDICTED BY IDOCK:   -5.82 KCAL/MOL
REMARK 923 INTER-LIGAND FREE ENERGY PREDICTED BY IDOCK:   -4.87 KCAL/MOL
REMARK 924 INTRA-LIGAND FREE ENERGY PREDICTED BY IDOCK:   -0.95 KCAL/MOL
REMARK 927      BINDING AFFINITY PREDICTED BY RF-SCORE:    0.00 PKD
ROOT
HETATM    1  C   UNL     1      -7.400   8.104  73.567  1.00  0.00    -0.190 C  
HETATM    2  C   UNL     1      -8.607   7.544  72.809  1.00  0.00    -0.120 C  
ENDROOT
BRANCH   2   3
HETATM    3  N   UNL     1      -8.632   7.815  71.351  1.00  0.00    -0.118 NA 
BRANCH   3   4
HETATM    4  C   UNL     1      -7.444   8.576  70.932  1.00  0.00    -0.074 C  
HETATM    5  C   UNL     1      -7.689   9.792  70.047  1.00  0.00    -0.179 C  
ENDBRANCH   3   4
BRANCH   3   6
HETATM    6  C   UNL     1      -8.890   6.569  70.548  1.00  0.00    -0.151 C  
HETATM    7  C   UNL     1      -9.227   5.413  71.533  1.00  0.00    -0.169 C  
BRANCH   6   8
HETATM    8  C   UNL     1     -10.085   6.560  69.510  1.00  0.00    -0.176 C  
BRANCH   8   9
HETATM    9  N   UNL     1     -10.692   7.872  69.129  1.00  0.00    -0.169 NA 
HETATM   10  C   UNL     1     -11.532   8.495  70.101  1.00  0.00     0.003 A  
HETATM   11  C   UNL     1     -12.163   7.769  71.135  1.00  0.00    -0.289 A  
HETATM   12  C   UNL     1     -12.779   8.397  72.224  1.00  0.00    -0.376 A  
HETATM   13  C   UNL     1     -12.817   9.779  72.293  1.00  0.00    -0.379 A  
HETATM   14  C   UNL     1     -12.321  10.520  71.229  1.00  0.00    -0.502 A  
HETATM   15  C   UNL     1     -11.721   9.892  70.121  1.00  0.00    -0.174 A  
HETATM   16  S   UNL     1     -11.216  10.974  68.812  1.00  0.00    -0.294 SA 
HETATM   17  C   UNL     1     -10.492   9.848  67.643  1.00  0.00    -0.244 A  
HETATM   18  C   UNL     1     -10.069  10.440  66.436  1.00  0.00    -0.287 A  
HETATM   19  C   UNL     1      -9.381   9.702  65.478  1.00  0.00    -0.309 A  
HETATM   20  C   UNL     1      -9.123   8.365  65.725  1.00  0.00    -0.195 A  
HETATM   21  C   UNL     1      -9.565   7.764  66.909  1.00  0.00    -0.256 A  
HETATM   22  C   UNL     1     -10.257   8.480  67.913  1.00  0.00    -0.218 A  
ENDBRANCH   8   9
ENDBRANCH   6   8
ENDBRANCH   3   6
ENDBRANCH   2   3
TORSDOF 5
ENDMDL
MODEL      143
REMARK 921   NORMALIZED FREE ENERGY PREDICTED BY IDOCK:   -3.87 KCAL/MOL
REMARK 922        TOTAL FREE ENERGY PREDICTED BY IDOCK:   -5.82 KCAL/MOL
REMARK 923 INTER-LIGAND FREE ENERGY PREDICTED BY IDOCK:   -4.70 KCAL/MOL
REMARK 924 INTRA-LIGAND FREE ENERGY PREDICTED BY IDOCK:   -1.11 KCAL/MOL
REMARK 927      BINDING AFFINITY PREDICTED BY RF-SCORE:    0.00 PKD
ROOT
HETATM    1  C   UNL     1      -5.925  12.300  70.247  1.00  0.00    -0.138 C  
HETATM    2  C   UNL     1      -6.178  11.478  68.980  1.00  0.00    -0.060 C  
ENDROOT
BRANCH   2   3
HETATM    3  N   UNL     1      -7.000  12.140  67.938  1.00  0.00    -0.089 NA 
BRANCH   3   4
HETATM    4  C   UNL     1      -6.622  13.554  67.782  1.00  0.00    -0.170 C  
HETATM    5  C   UNL     1      -7.706  14.501  67.284  1.00  0.00    -0.177 C  
ENDBRANCH   3   4
BRANCH   3   6
HETATM    6  C   UNL     1      -7.028  11.356  66.655  1.00  0.00    -0.102 C  
HETATM    7  C   UNL     1      -5.950  10.237  66.742  1.00  0.00    -0.060 C  
BRANCH   6   8
HETATM    8  C   UNL     1      -8.354  10.592  66.252  1.00  0.00    -0.152 C  
BRANCH   8   9
HETATM    9  N   UNL     1      -9.607  10.919  67.001  1.00  0.00    -0.172 NA 
HETATM   10  C   UNL     1      -9.823  10.216  68.224  1.00  0.00    -0.145 A  
HETATM   11  C   UNL     1      -9.211   8.974  68.505  1.00  0.00    -0.136 A  
HETATM   12  C   UNL     1      -9.221   8.405  69.783  1.00  0.00    -0.157 A  
HETATM   13  C   UNL     1      -9.881   9.045  70.819  1.00  0.00    -0.304 A  
HETATM   14  C   UNL     1     -10.602  10.200  70.546  1.00  0.00    -0.243 A  
HETATM   15  C   UNL     1     -10.614  10.763  69.255  1.00  0.00    -0.229 A  
HETATM   16  S   UNL     1     -11.648  12.188  69.055  1.00  0.00    -0.338 SA 
HETATM   17  C   UNL     1     -11.377  12.620  67.353  1.00  0.00    -0.313 A  
HETATM   18  C   UNL     1     -12.158  13.696  66.884  1.00  0.00    -0.431 A  
HETATM   19  C   UNL     1     -11.969  14.217  65.609  1.00  0.00    -0.390 A  
HETATM   20  C   UNL     1     -11.001  13.656  64.795  1.00  0.00    -0.384 A  
HETATM   21  C   UNL     1     -10.241  12.568  65.243  1.00  0.00    -0.302 A  
HETATM   22  C   UNL     1     -10.394  12.016  66.536  1.00  0.00    -0.210 A  
ENDBRANCH   8   9
ENDBRANCH   6   8
ENDBRANCH   3   6
ENDBRANCH   2   3
TORSDOF 5
ENDMDL
MODEL      144
REMARK 921   NORMALIZED FREE ENERGY PREDICTED BY IDOCK:   -3.86 KCAL/MOL
REMARK 922        TOTAL FREE ENERGY PREDICTED BY IDOCK:   -5.81 KCAL/MOL
REMARK 923 INTER-LIGAND FREE ENERGY PREDICTED BY IDOCK:   -4.92 KCAL/MOL
REMARK 924 INTRA-LIGAND FREE ENERGY PREDICTED BY IDOCK:   -0.89 KCAL/MOL
REMARK 927      BINDING AFFINITY PREDICTED BY RF-SCORE:    0.00 PKD
ROOT
HETATM    1  C   UNL     1     -10.328  12.757  65.734  1.00  0.00    -0.297 C  
HETATM    2  C   UNL     1     -10.875  13.713  66.797  1.00  0.00    -0.290 C  
ENDROOT
BRANCH   2   3
HETATM    3  N   UNL     1     -10.340  15.095  66.755  1.00  0.00    -0.267 NA 
BRANCH   3   4
HETATM    4  C   UNL     1     -10.542  15.703  65.430  1.00  0.00    -0.415 C  
HETATM    5  C   UNL     1     -10.833  17.198  65.401  1.00  0.00    -0.051 C  
ENDBRANCH   3   4
BRANCH   3   6
HETATM    6  C   UNL     1     -10.834  15.929  67.906  1.00  0.00    -0.327 C  
HETATM    7  C   UNL     1     -11.900  15.105  68.685  1.00  0.00    -0.329 C  
BRANCH   6   8
HETATM    8  C   UNL     1      -9.805  16.387  69.018  1.00  0.00    -0.266 C  
BRANCH   8   9
HETATM    9  N   UNL     1      -8.438  16.804  68.578  1.00  0.00    -0.234 NA 
HETATM   10  C   UNL     1      -7.404  15.825  68.687  1.00  0.00    -0.137 A  
HETATM   11  C   UNL     1      -7.490  14.727  69.571  1.00  0.00    -0.120 A  
HETATM   12  C   UNL     1      -6.607  13.643  69.507  1.00  0.00    -0.069 A  
HETATM   13  C   UNL     1      -5.581  13.641  68.578  1.00  0.00    -0.091 A  
HETATM   14  C   UNL     1      -5.391  14.764  67.783  1.00  0.00    -0.032 A  
HETATM   15  C   UNL     1      -6.263  15.867  67.860  1.00  0.00    -0.136 A  
HETATM   16  S   UNL     1      -5.834  17.251  66.840  1.00  0.00    -0.195 SA 
HETATM   17  C   UNL     1      -7.152  18.395  67.175  1.00  0.00    -0.200 A  
HETATM   18  C   UNL     1      -7.020  19.649  66.546  1.00  0.00    -0.223 A  
HETATM   19  C   UNL     1      -8.032  20.600  66.624  1.00  0.00    -0.118 A  
HETATM   20  C   UNL     1      -9.176  20.300  67.342  1.00  0.00    -0.507 A  
HETATM   21  C   UNL     1      -9.302  19.067  67.993  1.00  0.00    -0.365 A  
HETATM   22  C   UNL     1      -8.303  18.069  67.929  1.00  0.00    -0.248 A  
ENDBRANCH   8   9
ENDBRANCH   6   8
ENDBRANCH   3   6
ENDBRANCH   2   3
TORSDOF 5
ENDMDL
MODEL      145
REMARK 921   NORMALIZED FREE ENERGY PREDICTED BY IDOCK:   -3.86 KCAL/MOL
REMARK 922        TOTAL FREE ENERGY PREDICTED BY IDOCK:   -5.80 KCAL/MOL
REMARK 923 INTER-LIGAND FREE ENERGY PREDICTED BY IDOCK:   -5.53 KCAL/MOL
REMARK 924 INTRA-LIGAND FREE ENERGY PREDICTED BY IDOCK:   -0.27 KCAL/MOL
REMARK 927      BINDING AFFINITY PREDICTED BY RF-SCORE:    0.00 PKD
ROOT
HETATM    1  C   UNL     1      -6.484   4.789  66.225  1.00  0.00    -0.041 C  
HETATM    2  C   UNL     1      -7.318   5.582  67.235  1.00  0.00    -0.080 C  
ENDROOT
BRANCH   2   3
HETATM    3  N   UNL     1      -8.787   5.409  67.132  1.00  0.00    -0.110 NA 
BRANCH   3   4
HETATM    4  C   UNL     1      -9.323   4.709  68.310  1.00  0.00    -0.136 C  
HETATM    5  C   UNL     1      -8.596   4.937  69.630  1.00  0.00    -0.098 C  
ENDBRANCH   3   4
BRANCH   3   6
HETATM    6  C   UNL     1      -9.487   6.698  66.798  1.00  0.00    -0.160 C  
HETATM    7  C   UNL     1     -11.003   6.524  67.104  1.00  0.00    -0.480 C  
BRANCH   6   8
HETATM    8  C   UNL     1      -9.079   8.015  67.574  1.00  0.00    -0.137 C  
BRANCH   8   9
HETATM    9  N   UNL     1     -10.128   9.060  67.781  1.00  0.00    -0.195 NA 
HETATM   10  C   UNL     1     -10.696   9.147  69.088  1.00  0.00    -0.172 A  
HETATM   11  C   UNL     1     -10.674   8.067  69.998  1.00  0.00    -0.244 A  
HETATM   12  C   UNL     1     -11.002   8.220  71.351  1.00  0.00    -0.301 A  
HETATM   13  C   UNL     1     -11.403   9.455  71.829  1.00  0.00    -0.387 A  
HETATM   14  C   UNL     1     -11.560  10.505  70.934  1.00  0.00    -0.385 A  
HETATM   15  C   UNL     1     -11.253  10.350  69.568  1.00  0.00    -0.269 A  
HETATM   16  S   UNL     1     -11.588  11.759  68.547  1.00  0.00    -0.337 SA 
HETATM   17  C   UNL     1     -11.052  11.205  66.945  1.00  0.00    -0.247 A  
HETATM   18  C   UNL     1     -11.284  12.117  65.896  1.00  0.00    -0.384 A  
HETATM   19  C   UNL     1     -10.813  11.868  64.612  1.00  0.00    -0.363 A  
HETATM   20  C   UNL     1     -10.115  10.697  64.373  1.00  0.00    -0.418 A  
HETATM   21  C   UNL     1      -9.905   9.773  65.403  1.00  0.00    -0.365 A  
HETATM   22  C   UNL     1     -10.357   9.994  66.725  1.00  0.00    -0.217 A  
ENDBRANCH   8   9
ENDBRANCH   6   8
ENDBRANCH   3   6
ENDBRANCH   2   3
TORSDOF 5
ENDMDL
MODEL      146
REMARK 921   NORMALIZED FREE ENERGY PREDICTED BY IDOCK:   -3.84 KCAL/MOL
REMARK 922        TOTAL FREE ENERGY PREDICTED BY IDOCK:   -5.79 KCAL/MOL
REMARK 923 INTER-LIGAND FREE ENERGY PREDICTED BY IDOCK:   -4.85 KCAL/MOL
REMARK 924 INTRA-LIGAND FREE ENERGY PREDICTED BY IDOCK:   -0.94 KCAL/MOL
REMARK 927      BINDING AFFINITY PREDICTED BY RF-SCORE:    0.00 PKD
ROOT
HETATM    1  C   UNL     1      -9.220   2.223  68.608  1.00  0.00    -0.227 C  
HETATM    2  C   UNL     1      -9.362   3.228  67.461  1.00  0.00    -0.206 C  
ENDROOT
BRANCH   2   3
HETATM    3  N   UNL     1      -9.132   4.648  67.820  1.00  0.00    -0.114 NA 
BRANCH   3   4
HETATM    4  C   UNL     1      -7.707   4.906  68.082  1.00  0.00    -0.082 C  
HETATM    5  C   UNL     1      -7.213   6.326  67.839  1.00  0.00    -0.087 C  
ENDBRANCH   3   4
BRANCH   3   6
HETATM    6  C   UNL     1      -9.765   5.591  66.833  1.00  0.00    -0.150 C  
HETATM    7  C   UNL     1     -10.444   4.747  65.717  1.00  0.00    -0.275 C  
BRANCH   6   8
HETATM    8  C   UNL     1     -10.905   6.571  67.331  1.00  0.00    -0.373 C  
BRANCH   8   9
HETATM    9  N   UNL     1     -10.508   7.723  68.197  1.00  0.00    -0.199 NA 
HETATM   10  C   UNL     1     -10.595   7.524  69.608  1.00  0.00    -0.239 A  
HETATM   11  C   UNL     1     -11.430   6.542  70.186  1.00  0.00    -0.477 A  
HETATM   12  C   UNL     1     -11.336   6.177  71.534  1.00  0.00    -0.340 A  
HETATM   13  C   UNL     1     -10.427   6.814  72.360  1.00  0.00    -0.230 A  
HETATM   14  C   UNL     1      -9.684   7.873  71.854  1.00  0.00    -0.231 A  
HETATM   15  C   UNL     1      -9.792   8.259  70.504  1.00  0.00    -0.183 A  
HETATM   16  S   UNL     1      -8.840   9.679  70.038  1.00  0.00    -0.226 SA 
HETATM   17  C   UNL     1      -9.198   9.827  68.304  1.00  0.00    -0.129 A  
HETATM   18  C   UNL     1      -8.626  10.951  67.676  1.00  0.00    -0.124 A  
HETATM   19  C   UNL     1      -8.726  11.133  66.301  1.00  0.00    -0.183 A  
HETATM   20  C   UNL     1      -9.408  10.191  65.552  1.00  0.00    -0.260 A  
HETATM   21  C   UNL     1     -10.004   9.087  66.172  1.00  0.00    -0.311 A  
HETATM   22  C   UNL     1      -9.917   8.859  67.565  1.00  0.00    -0.203 A  
ENDBRANCH   8   9
ENDBRANCH   6   8
ENDBRANCH   3   6
ENDBRANCH   2   3
TORSDOF 5
ENDMDL
MODEL      147
REMARK 921   NORMALIZED FREE ENERGY PREDICTED BY IDOCK:   -3.79 KCAL/MOL
REMARK 922        TOTAL FREE ENERGY PREDICTED BY IDOCK:   -5.71 KCAL/MOL
REMARK 923 INTER-LIGAND FREE ENERGY PREDICTED BY IDOCK:   -5.20 KCAL/MOL
REMARK 924 INTRA-LIGAND FREE ENERGY PREDICTED BY IDOCK:   -0.51 KCAL/MOL
REMARK 927      BINDING AFFINITY PREDICTED BY RF-SCORE:    0.00 PKD
ROOT
HETATM    1  C   UNL     1      -8.820   9.220  70.764  1.00  0.00    -0.282 C  
HETATM    2  C   UNL     1      -9.703   8.538  71.813  1.00  0.00    -0.267 C  
ENDROOT
BRANCH   2   3
HETATM    3  N   UNL     1     -11.163   8.595  71.558  1.00  0.00    -0.268 NA 
BRANCH   3   4
HETATM    4  C   UNL     1     -11.487   9.620  70.553  1.00  0.00    -0.285 C  
HETATM    5  C   UNL     1     -12.300  10.816  71.033  1.00  0.00    -0.509 C  
ENDBRANCH   3   4
BRANCH   3   6
HETATM    6  C   UNL     1     -11.742   7.236  71.274  1.00  0.00    -0.296 C  
HETATM    7  C   UNL     1     -13.246   7.252  71.673  1.00  0.00    -0.421 C  
BRANCH   6   8
HETATM    8  C   UNL     1     -11.737   6.697  69.786  1.00  0.00    -0.216 C  
BRANCH   8   9
HETATM    9  N   UNL     1     -10.426   6.292  69.191  1.00  0.00    -0.213 NA 
HETATM   10  C   UNL     1      -9.823   5.110  69.717  1.00  0.00    -0.212 A  
HETATM   11  C   UNL     1     -10.130   4.608  71.001  1.00  0.00    -0.246 A  
HETATM   12  C   UNL     1      -9.736   3.332  71.421  1.00  0.00    -0.226 A  
HETATM   13  C   UNL     1      -8.984   2.530  70.581  1.00  0.00    -0.161 A  
HETATM   14  C   UNL     1      -8.556   3.045  69.364  1.00  0.00    -0.114 A  
HETATM   15  C   UNL     1      -8.930   4.336  68.947  1.00  0.00    -0.109 A  
HETATM   16  S   UNL     1      -8.232   4.874  67.410  1.00  0.00    -0.105 SA 
HETATM   17  C   UNL     1      -8.947   6.489  67.210  1.00  0.00    -0.114 A  
HETATM   18  C   UNL     1      -8.491   7.202  66.083  1.00  0.00    -0.143 A  
HETATM   19  C   UNL     1      -9.048   8.428  65.737  1.00  0.00    -0.195 A  
HETATM   20  C   UNL     1     -10.060   8.948  66.525  1.00  0.00    -0.356 A  
HETATM   21  C   UNL     1     -10.498   8.259  67.662  1.00  0.00    -0.303 A  
HETATM   22  C   UNL     1      -9.967   7.005  68.042  1.00  0.00    -0.154 A  
ENDBRANCH   8   9
ENDBRANCH   6   8
ENDBRANCH   3   6
ENDBRANCH   2   3
TORSDOF 5
ENDMDL
MODEL      148
REMARK 921   NORMALIZED FREE ENERGY PREDICTED BY IDOCK:   -3.78 KCAL/MOL
REMARK 922        TOTAL FREE ENERGY PREDICTED BY IDOCK:   -5.70 KCAL/MOL
REMARK 923 INTER-LIGAND FREE ENERGY PREDICTED BY IDOCK:   -4.90 KCAL/MOL
REMARK 924 INTRA-LIGAND FREE ENERGY PREDICTED BY IDOCK:   -0.79 KCAL/MOL
REMARK 927      BINDING AFFINITY PREDICTED BY RF-SCORE:    0.00 PKD
ROOT
HETATM    1  C   UNL     1      -5.960   4.049  70.153  1.00  0.00    -0.018 C  
HETATM    2  C   UNL     1      -7.452   4.292  69.911  1.00  0.00    -0.050 C  
ENDROOT
BRANCH   2   3
HETATM    3  N   UNL     1      -7.868   5.714  69.848  1.00  0.00    -0.086 NA 
BRANCH   3   4
HETATM    4  C   UNL     1      -6.863   6.590  70.471  1.00  0.00    -0.062 C  
HETATM    5  C   UNL     1      -7.322   7.991  70.855  1.00  0.00    -0.058 C  
ENDBRANCH   3   4
BRANCH   3   6
HETATM    6  C   UNL     1      -8.278   6.123  68.459  1.00  0.00    -0.111 C  
HETATM    7  C   UNL     1      -7.793   5.030  67.464  1.00  0.00    -0.095 C  
BRANCH   6   8
HETATM    8  C   UNL     1      -9.818   6.294  68.133  1.00  0.00    -0.129 C  
BRANCH   8   9
HETATM    9  N   UNL     1     -10.489   7.559  68.565  1.00  0.00    -0.197 NA 
HETATM   10  C   UNL     1     -11.024   7.580  69.888  1.00  0.00    -0.211 A  
HETATM   11  C   UNL     1     -11.360   6.400  70.589  1.00  0.00    -0.419 A  
HETATM   12  C   UNL     1     -11.648   6.399  71.959  1.00  0.00    -0.368 A  
HETATM   13  C   UNL     1     -11.649   7.589  72.666  1.00  0.00    -0.331 A  
HETATM   14  C   UNL     1     -11.451   8.780  71.979  1.00  0.00    -0.441 A  
HETATM   15  C   UNL     1     -11.184   8.788  70.597  1.00  0.00    -0.257 A  
HETATM   16  S   UNL     1     -11.040  10.392  69.857  1.00  0.00    -0.321 SA 
HETATM   17  C   UNL     1     -10.676   9.999  68.163  1.00  0.00    -0.239 A  
HETATM   18  C   UNL     1     -10.590  11.113  67.303  1.00  0.00    -0.279 A  
HETATM   19  C   UNL     1     -10.198  10.967  65.977  1.00  0.00    -0.311 A  
HETATM   20  C   UNL     1      -9.899   9.701  65.505  1.00  0.00    -0.352 A  
HETATM   21  C   UNL     1     -10.010   8.586  66.345  1.00  0.00    -0.314 A  
HETATM   22  C   UNL     1     -10.393   8.693  67.702  1.00  0.00    -0.254 A  
ENDBRANCH   8   9
ENDBRANCH   6   8
ENDBRANCH   3   6
ENDBRANCH   2   3
TORSDOF 5
ENDMDL
MODEL      149
REMARK 921   NORMALIZED FREE ENERGY PREDICTED BY IDOCK:   -3.77 KCAL/MOL
REMARK 922        TOTAL FREE ENERGY PREDICTED BY IDOCK:   -5.70 KCAL/MOL
REMARK 923 INTER-LIGAND FREE ENERGY PREDICTED BY IDOCK:   -5.21 KCAL/MOL
REMARK 924 INTRA-LIGAND FREE ENERGY PREDICTED BY IDOCK:   -0.48 KCAL/MOL
REMARK 927      BINDING AFFINITY PREDICTED BY RF-SCORE:    0.00 PKD
ROOT
HETATM    1  C   UNL     1      -8.468   9.509  70.203  1.00  0.00    -0.227 C  
HETATM    2  C   UNL     1      -8.475   7.987  70.363  1.00  0.00    -0.130 C  
ENDROOT
BRANCH   2   3
HETATM    3  N   UNL     1      -9.612   7.279  69.726  1.00  0.00    -0.163 NA 
BRANCH   3   4
HETATM    4  C   UNL     1     -10.900   7.780  70.232  1.00  0.00    -0.249 C  
HETATM    5  C   UNL     1     -11.882   6.738  70.752  1.00  0.00    -0.446 C  
ENDBRANCH   3   4
BRANCH   3   6
HETATM    6  C   UNL     1      -9.496   7.258  68.226  1.00  0.00    -0.141 C  
HETATM    7  C   UNL     1      -9.618   5.782  67.748  1.00  0.00    -0.121 C  
BRANCH   6   8
HETATM    8  C   UNL     1     -10.568   8.039  67.363  1.00  0.00    -0.267 C  
BRANCH   8   9
HETATM    9  N   UNL     1     -10.165   9.348  66.763  1.00  0.00    -0.250 NA 
HETATM   10  C   UNL     1      -9.351   9.292  65.591  1.00  0.00    -0.244 A  
HETATM   11  C   UNL     1      -8.562   8.165  65.269  1.00  0.00    -0.132 A  
HETATM   12  C   UNL     1      -7.962   8.004  64.015  1.00  0.00    -0.134 A  
HETATM   13  C   UNL     1      -8.100   8.988  63.052  1.00  0.00    -0.167 A  
HETATM   14  C   UNL     1      -8.760  10.165  63.381  1.00  0.00    -0.216 A  
HETATM   15  C   UNL     1      -9.345  10.341  64.650  1.00  0.00    -0.266 A  
HETATM   16  S   UNL     1     -10.074  11.930  64.939  1.00  0.00    -0.254 SA 
HETATM   17  C   UNL     1     -10.721  11.759  66.586  1.00  0.00    -0.263 A  
HETATM   18  C   UNL     1     -11.297  12.930  67.119  1.00  0.00    -0.352 A  
HETATM   19  C   UNL     1     -11.945  12.913  68.349  1.00  0.00    -0.289 A  
HETATM   20  C   UNL     1     -12.010  11.724  69.054  1.00  0.00    -0.341 A  
HETATM   21  C   UNL     1     -11.414  10.564  68.544  1.00  0.00    -0.284 A  
HETATM   22  C   UNL     1     -10.756  10.535  67.293  1.00  0.00    -0.277 A  
ENDBRANCH   8   9
ENDBRANCH   6   8
ENDBRANCH   3   6
ENDBRANCH   2   3
TORSDOF 5
ENDMDL
MODEL      150
REMARK 921   NORMALIZED FREE ENERGY PREDICTED BY IDOCK:   -3.75 KCAL/MOL
REMARK 922        TOTAL FREE ENERGY PREDICTED BY IDOCK:   -5.67 KCAL/MOL
REMARK 923 INTER-LIGAND FREE ENERGY PREDICTED BY IDOCK:   -5.66 KCAL/MOL
REMARK 924 INTRA-LIGAND FREE ENERGY PREDICTED BY IDOCK:   -0.01 KCAL/MOL
REMARK 927      BINDING AFFINITY PREDICTED BY RF-SCORE:    0.00 PKD
ROOT
HETATM    1  C   UNL     1     -12.663  14.060  65.282  1.00  0.00    -0.468 C  
HETATM    2  C   UNL     1     -11.279  14.164  64.637  1.00  0.00    -0.368 C  
ENDROOT
BRANCH   2   3
HETATM    3  N   UNL     1     -10.156  13.611  65.432  1.00  0.00    -0.295 NA 
BRANCH   3   4
HETATM    4  C   UNL     1      -9.574  14.636  66.313  1.00  0.00    -0.308 C  
HETATM    5  C   UNL     1     -10.433  15.101  67.482  1.00  0.00    -0.258 C  
ENDBRANCH   3   4
BRANCH   3   6
HETATM    6  C   UNL     1     -10.532  12.330  66.127  1.00  0.00    -0.240 C  
HETATM    7  C   UNL     1     -10.759  11.235  65.046  1.00  0.00    -0.322 C  
BRANCH   6   8
HETATM    8  C   UNL     1      -9.503  11.676  67.137  1.00  0.00    -0.176 C  
BRANCH   8   9
HETATM    9  N   UNL     1      -9.975  10.529  67.973  1.00  0.00    -0.153 NA 
HETATM   10  C   UNL     1      -9.389   9.256  67.703  1.00  0.00    -0.128 A  
HETATM   11  C   UNL     1      -8.790   8.945  66.462  1.00  0.00    -0.160 A  
HETATM   12  C   UNL     1      -8.005   7.801  66.274  1.00  0.00    -0.100 A  
HETATM   13  C   UNL     1      -7.825   6.908  67.316  1.00  0.00    -0.110 A  
HETATM   14  C   UNL     1      -8.507   7.119  68.508  1.00  0.00    -0.125 A  
HETATM   15  C   UNL     1      -9.317   8.255  68.693  1.00  0.00    -0.143 A  
HETATM   16  S   UNL     1     -10.182   8.332  70.238  1.00  0.00    -0.200 SA 
HETATM   17  C   UNL     1     -11.042   9.882  70.117  1.00  0.00    -0.296 A  
HETATM   18  C   UNL     1     -11.898  10.169  71.199  1.00  0.00    -0.472 A  
HETATM   19  C   UNL     1     -12.545  11.397  71.296  1.00  0.00    -0.480 A  
HETATM   20  C   UNL     1     -12.343  12.338  70.301  1.00  0.00    -0.267 A  
HETATM   21  C   UNL     1     -11.517  12.048  69.208  1.00  0.00    -0.361 A  
HETATM   22  C   UNL     1     -10.832  10.818  69.078  1.00  0.00    -0.235 A  
ENDBRANCH   8   9
ENDBRANCH   6   8
ENDBRANCH   3   6
ENDBRANCH   2   3
TORSDOF 5
ENDMDL
MODEL      151
REMARK 921   NORMALIZED FREE ENERGY PREDICTED BY IDOCK:   -3.75 KCAL/MOL
REMARK 922        TOTAL FREE ENERGY PREDICTED BY IDOCK:   -5.67 KCAL/MOL
REMARK 923 INTER-LIGAND FREE ENERGY PREDICTED BY IDOCK:   -5.20 KCAL/MOL
REMARK 924 INTRA-LIGAND FREE ENERGY PREDICTED BY IDOCK:   -0.47 KCAL/MOL
REMARK 927      BINDING AFFINITY PREDICTED BY RF-SCORE:    0.00 PKD
ROOT
HETATM    1  C   UNL     1     -12.824  11.700  71.138  1.00  0.00    -0.392 C  
HETATM    2  C   UNL     1     -12.080  10.692  70.258  1.00  0.00    -0.338 C  
ENDROOT
BRANCH   2   3
HETATM    3  N   UNL     1     -11.718  11.168  68.901  1.00  0.00    -0.316 NA 
BRANCH   3   4
HETATM    4  C   UNL     1     -11.122  12.513  68.952  1.00  0.00    -0.260 C  
HETATM    5  C   UNL     1     -11.825  13.603  68.153  1.00  0.00    -0.407 C  
ENDBRANCH   3   4
BRANCH   3   6
HETATM    6  C   UNL     1     -10.907  10.154  68.142  1.00  0.00    -0.262 C  
HETATM    7  C   UNL     1     -10.552  10.753  66.751  1.00  0.00    -0.307 C  
BRANCH   6   8
HETATM    8  C   UNL     1      -9.515   9.687  68.734  1.00  0.00    -0.148 C  
BRANCH   8   9
HETATM    9  N   UNL     1      -9.343   8.238  69.060  1.00  0.00    -0.147 NA 
HETATM   10  C   UNL     1      -9.619   7.847  70.405  1.00  0.00    -0.171 A  
HETATM   11  C   UNL     1      -9.580   8.758  71.484  1.00  0.00    -0.354 A  
HETATM   12  C   UNL     1     -10.084   8.443  72.751  1.00  0.00    -0.268 A  
HETATM   13  C   UNL     1     -10.610   7.186  72.992  1.00  0.00    -0.346 A  
HETATM   14  C   UNL     1     -10.544   6.225  71.990  1.00  0.00    -0.253 A  
HETATM   15  C   UNL     1     -10.016   6.531  70.721  1.00  0.00    -0.184 A  
HETATM   16  S   UNL     1      -9.926   5.174  69.585  1.00  0.00    -0.262 SA 
HETATM   17  C   UNL     1      -9.262   5.941  68.126  1.00  0.00    -0.116 A  
HETATM   18  C   UNL     1      -9.000   5.057  67.061  1.00  0.00    -0.112 A  
HETATM   19  C   UNL     1      -8.588   5.531  65.820  1.00  0.00    -0.145 A  
HETATM   20  C   UNL     1      -8.429   6.895  65.646  1.00  0.00    -0.141 A  
HETATM   21  C   UNL     1      -8.659   7.777  66.708  1.00  0.00    -0.133 A  
HETATM   22  C   UNL     1      -9.090   7.337  67.982  1.00  0.00    -0.133 A  
ENDBRANCH   8   9
ENDBRANCH   6   8
ENDBRANCH   3   6
ENDBRANCH   2   3
TORSDOF 5
ENDMDL
MODEL      152
REMARK 921   NORMALIZED FREE ENERGY PREDICTED BY IDOCK:   -3.74 KCAL/MOL
REMARK 922        TOTAL FREE ENERGY PREDICTED BY IDOCK:   -5.65 KCAL/MOL
REMARK 923 INTER-LIGAND FREE ENERGY PREDICTED BY IDOCK:   -4.93 KCAL/MOL
REMARK 924 INTRA-LIGAND FREE ENERGY PREDICTED BY IDOCK:   -0.72 KCAL/MOL
REMARK 927      BINDING AFFINITY PREDICTED BY RF-SCORE:    0.00 PKD
ROOT
HETATM    1  C   UNL     1     -10.675  18.565  66.873  1.00  0.00    -0.332 C  
HETATM    2  C   UNL     1      -9.311  18.356  67.537  1.00  0.00    -0.265 C  
ENDROOT
BRANCH   2   3
HETATM    3  N   UNL     1      -8.206  17.969  66.628  1.00  0.00    -0.251 NA 
BRANCH   3   4
HETATM    4  C   UNL     1      -7.048  18.862  66.790  1.00  0.00    -0.209 C  
HETATM    5  C   UNL     1      -6.809  19.880  65.681  1.00  0.00    -0.315 C  
ENDBRANCH   3   4
BRANCH   3   6
HETATM    6  C   UNL     1      -7.881  16.503  66.723  1.00  0.00    -0.261 C  
HETATM    7  C   UNL     1      -6.377  16.358  67.090  1.00  0.00    -0.215 C  
BRANCH   6   8
HETATM    8  C   UNL     1      -8.634  15.619  67.799  1.00  0.00    -0.162 C  
BRANCH   8   9
HETATM    9  N   UNL     1      -8.878  14.179  67.477  1.00  0.00    -0.190 NA 
HETATM   10  C   UNL     1      -9.906  13.902  66.526  1.00  0.00    -0.290 A  
HETATM   11  C   UNL     1     -10.954  14.809  66.254  1.00  0.00    -0.330 A  
HETATM   12  C   UNL     1     -11.814  14.656  65.161  1.00  0.00    -0.351 A  
HETATM   13  C   UNL     1     -11.678  13.563  64.323  1.00  0.00    -0.455 A  
HETATM   14  C   UNL     1     -10.743  12.586  64.638  1.00  0.00    -0.341 A  
HETATM   15  C   UNL     1      -9.891  12.724  65.750  1.00  0.00    -0.214 A  
HETATM   16  S   UNL     1      -8.814  11.352  66.062  1.00  0.00    -0.132 SA 
HETATM   17  C   UNL     1      -7.896  11.902  67.481  1.00  0.00    -0.152 A  
HETATM   18  C   UNL     1      -7.001  10.951  68.010  1.00  0.00    -0.072 A  
HETATM   19  C   UNL     1      -6.135  11.281  69.047  1.00  0.00    -0.052 A  
HETATM   20  C   UNL     1      -6.170  12.564  69.563  1.00  0.00    -0.120 A  
HETATM   21  C   UNL     1      -7.077  13.506  69.062  1.00  0.00    -0.066 A  
HETATM   22  C   UNL     1      -7.966  13.214  68.001  1.00  0.00    -0.156 A  
ENDBRANCH   8   9
ENDBRANCH   6   8
ENDBRANCH   3   6
ENDBRANCH   2   3
TORSDOF 5
ENDMDL
MODEL      153
REMARK 921   NORMALIZED FREE ENERGY PREDICTED BY IDOCK:   -3.73 KCAL/MOL
REMARK 922        TOTAL FREE ENERGY PREDICTED BY IDOCK:   -5.64 KCAL/MOL
REMARK 923 INTER-LIGAND FREE ENERGY PREDICTED BY IDOCK:   -4.57 KCAL/MOL
REMARK 924 INTRA-LIGAND FREE ENERGY PREDICTED BY IDOCK:   -1.07 KCAL/MOL
REMARK 927      BINDING AFFINITY PREDICTED BY RF-SCORE:    0.00 PKD
ROOT
HETATM    1  C   UNL     1      -9.110   4.954  71.147  1.00  0.00    -0.180 C  
HETATM    2  C   UNL     1     -10.509   5.082  70.538  1.00  0.00    -0.160 C  
ENDROOT
BRANCH   2   3
HETATM    3  N   UNL     1     -10.873   6.432  70.044  1.00  0.00    -0.275 NA 
BRANCH   3   4
HETATM    4  C   UNL     1     -11.286   6.388  68.632  1.00  0.00    -0.248 C  
HETATM    5  C   UNL     1     -10.447   5.522  67.701  1.00  0.00    -0.256 C  
ENDBRANCH   3   4
BRANCH   3   6
HETATM    6  C   UNL     1     -11.847   7.125  70.958  1.00  0.00    -0.333 C  
HETATM    7  C   UNL     1     -12.311   6.108  72.040  1.00  0.00    -0.113 C  
BRANCH   6   8
HETATM    8  C   UNL     1     -11.359   8.383  71.786  1.00  0.00    -0.300 C  
BRANCH   8   9
HETATM    9  N   UNL     1     -10.027   8.972  71.446  1.00  0.00    -0.304 NA 
HETATM   10  C   UNL     1      -8.910   8.513  72.207  1.00  0.00    -0.208 A  
HETATM   11  C   UNL     1      -9.051   7.937  73.489  1.00  0.00    -0.346 A  
HETATM   12  C   UNL     1      -8.002   7.267  74.129  1.00  0.00    -0.164 A  
HETATM   13  C   UNL     1      -6.762   7.185  73.520  1.00  0.00    -0.065 A  
HETATM   14  C   UNL     1      -6.555   7.852  72.320  1.00  0.00    -0.063 A  
HETATM   15  C   UNL     1      -7.601   8.547  71.684  1.00  0.00    -0.108 A  
HETATM   16  S   UNL     1      -7.153   9.414  70.204  1.00  0.00    -0.098 SA 
HETATM   17  C   UNL     1      -8.701  10.116  69.689  1.00  0.00    -0.158 A  
HETATM   18  C   UNL     1      -8.624  10.948  68.554  1.00  0.00    -0.152 A  
HETATM   19  C   UNL     1      -9.773  11.472  67.970  1.00  0.00    -0.187 A  
HETATM   20  C   UNL     1     -11.003  11.170  68.527  1.00  0.00    -0.267 A  
HETATM   21  C   UNL     1     -11.085  10.368  69.672  1.00  0.00    -0.328 A  
HETATM   22  C   UNL     1      -9.943   9.806  70.289  1.00  0.00    -0.253 A  
ENDBRANCH   8   9
ENDBRANCH   6   8
ENDBRANCH   3   6
ENDBRANCH   2   3
TORSDOF 5
ENDMDL
MODEL      154
REMARK 921   NORMALIZED FREE ENERGY PREDICTED BY IDOCK:   -3.73 KCAL/MOL
REMARK 922        TOTAL FREE ENERGY PREDICTED BY IDOCK:   -5.64 KCAL/MOL
REMARK 923 INTER-LIGAND FREE ENERGY PREDICTED BY IDOCK:   -5.22 KCAL/MOL
REMARK 924 INTRA-LIGAND FREE ENERGY PREDICTED BY IDOCK:   -0.42 KCAL/MOL
REMARK 927      BINDING AFFINITY PREDICTED BY RF-SCORE:    0.00 PKD
ROOT
HETATM    1  C   UNL     1     -11.881  12.317  63.593  1.00  0.00    -0.610 C  
HETATM    2  C   UNL     1     -12.430  12.612  64.991  1.00  0.00    -0.487 C  
ENDROOT
BRANCH   2   3
HETATM    3  N   UNL     1     -11.413  12.838  66.046  1.00  0.00    -0.331 NA 
BRANCH   3   4
HETATM    4  C   UNL     1     -11.464  14.222  66.545  1.00  0.00    -0.360 C  
HETATM    5  C   UNL     1     -10.837  15.292  65.661  1.00  0.00    -0.371 C  
ENDBRANCH   3   4
BRANCH   3   6
HETATM    6  C   UNL     1     -11.465  11.785  67.118  1.00  0.00    -0.295 C  
HETATM    7  C   UNL     1     -10.584  10.584  66.668  1.00  0.00    -0.263 C  
BRANCH   6   8
HETATM    8  C   UNL     1     -10.934  12.138  68.567  1.00  0.00    -0.238 C  
BRANCH   8   9
HETATM    9  N   UNL     1      -9.713  11.429  69.059  1.00  0.00    -0.084 NA 
HETATM   10  C   UNL     1      -9.925  10.216  69.781  1.00  0.00    -0.220 A  
HETATM   11  C   UNL     1     -11.145   9.921  70.428  1.00  0.00    -0.382 A  
HETATM   12  C   UNL     1     -11.443   8.646  70.921  1.00  0.00    -0.315 A  
HETATM   13  C   UNL     1     -10.509   7.630  70.818  1.00  0.00    -0.211 A  
HETATM   14  C   UNL     1      -9.252   7.921  70.305  1.00  0.00    -0.152 A  
HETATM   15  C   UNL     1      -8.940   9.208  69.829  1.00  0.00    -0.162 A  
HETATM   16  S   UNL     1      -7.269   9.436  69.285  1.00  0.00    -0.068 SA 
HETATM   17  C   UNL     1      -7.272  11.127  68.738  1.00  0.00    -0.098 A  
HETATM   18  C   UNL     1      -6.018  11.616  68.320  1.00  0.00    -0.045 A  
HETATM   19  C   UNL     1      -5.893  12.883  67.760  1.00  0.00    -0.139 A  
HETATM   20  C   UNL     1      -7.025  13.667  67.624  1.00  0.00    -0.183 A  
HETATM   21  C   UNL     1      -8.269  13.199  68.063  1.00  0.00    -0.158 A  
HETATM   22  C   UNL     1      -8.442  11.914  68.627  1.00  0.00    -0.045 A  
ENDBRANCH   8   9
ENDBRANCH   6   8
ENDBRANCH   3   6
ENDBRANCH   2   3
TORSDOF 5
ENDMDL
MODEL      155
REMARK 921   NORMALIZED FREE ENERGY PREDICTED BY IDOCK:   -3.72 KCAL/MOL
REMARK 922        TOTAL FREE ENERGY PREDICTED BY IDOCK:   -5.63 KCAL/MOL
REMARK 923 INTER-LIGAND FREE ENERGY PREDICTED BY IDOCK:   -5.68 KCAL/MOL
REMARK 924 INTRA-LIGAND FREE ENERGY PREDICTED BY IDOCK:    0.05 KCAL/MOL
REMARK 927      BINDING AFFINITY PREDICTED BY RF-SCORE:    0.00 PKD
ROOT
HETATM    1  C   UNL     1     -12.652  12.671  64.597  1.00  0.00    -0.517 C  
HETATM    2  C   UNL     1     -11.149  12.603  64.881  1.00  0.00    -0.296 C  
ENDROOT
BRANCH   2   3
HETATM    3  N   UNL     1     -10.723  11.550  65.834  1.00  0.00    -0.271 NA 
BRANCH   3   4
HETATM    4  C   UNL     1     -10.142  10.397  65.127  1.00  0.00    -0.308 C  
HETATM    5  C   UNL     1      -8.951  10.681  64.220  1.00  0.00    -0.214 C  
ENDBRANCH   3   4
BRANCH   3   6
HETATM    6  C   UNL     1      -9.865  12.101  66.941  1.00  0.00    -0.203 C  
HETATM    7  C   UNL     1      -9.638  13.617  66.675  1.00  0.00    -0.289 C  
BRANCH   6   8
HETATM    8  C   UNL     1     -10.401  12.040  68.429  1.00  0.00    -0.214 C  
BRANCH   8   9
HETATM    9  N   UNL     1     -10.138  10.797  69.218  1.00  0.00    -0.207 NA 
HETATM   10  C   UNL     1     -11.128  10.426  70.177  1.00  0.00    -0.314 A  
HETATM   11  C   UNL     1     -12.039  11.356  70.725  1.00  0.00    -0.433 A  
HETATM   12  C   UNL     1     -13.158  10.960  71.468  1.00  0.00    -0.503 A  
HETATM   13  C   UNL     1     -13.379   9.618  71.722  1.00  0.00    -0.505 A  
HETATM   14  C   UNL     1     -12.432   8.690  71.309  1.00  0.00    -0.284 A  
HETATM   15  C   UNL     1     -11.293   9.086  70.581  1.00  0.00    -0.265 A  
HETATM   16  S   UNL     1     -10.142   7.792  70.203  1.00  0.00    -0.200 SA 
HETATM   17  C   UNL     1      -8.894   8.651  69.274  1.00  0.00    -0.137 A  
HETATM   18  C   UNL     1      -7.785   7.864  68.905  1.00  0.00    -0.105 A  
HETATM   19  C   UNL     1      -6.788   8.372  68.079  1.00  0.00    -0.070 A  
HETATM   20  C   UNL     1      -6.897   9.675  67.625  1.00  0.00    -0.082 A  
HETATM   21  C   UNL     1      -7.982  10.472  68.011  1.00  0.00    -0.106 A  
HETATM   22  C   UNL     1      -9.021   9.991  68.840  1.00  0.00    -0.152 A  
ENDBRANCH   8   9
ENDBRANCH   6   8
ENDBRANCH   3   6
ENDBRANCH   2   3
TORSDOF 5
ENDMDL
MODEL      156
REMARK 921   NORMALIZED FREE ENERGY PREDICTED BY IDOCK:   -3.71 KCAL/MOL
REMARK 922        TOTAL FREE ENERGY PREDICTED BY IDOCK:   -5.62 KCAL/MOL
REMARK 923 INTER-LIGAND FREE ENERGY PREDICTED BY IDOCK:   -5.21 KCAL/MOL
REMARK 924 INTRA-LIGAND FREE ENERGY PREDICTED BY IDOCK:   -0.40 KCAL/MOL
REMARK 927      BINDING AFFINITY PREDICTED BY RF-SCORE:    0.00 PKD
ROOT
HETATM    1  C   UNL     1     -10.394  10.666  64.552  1.00  0.00    -0.352 C  
HETATM    2  C   UNL     1      -9.318  11.491  65.263  1.00  0.00    -0.137 C  
ENDROOT
BRANCH   2   3
HETATM    3  N   UNL     1      -8.795  10.914  66.525  1.00  0.00    -0.158 NA 
BRANCH   3   4
HETATM    4  C   UNL     1      -7.384  11.279  66.731  1.00  0.00    -0.146 C  
HETATM    5  C   UNL     1      -6.682  10.647  67.926  1.00  0.00    -0.064 C  
ENDBRANCH   3   4
BRANCH   3   6
HETATM    6  C   UNL     1      -9.693  11.206  67.696  1.00  0.00    -0.170 C  
HETATM    7  C   UNL     1     -10.350  12.598  67.474  1.00  0.00    -0.220 C  
BRANCH   6   8
HETATM    8  C   UNL     1     -10.912  10.239  67.988  1.00  0.00    -0.289 C  
BRANCH   8   9
HETATM    9  N   UNL     1     -10.774   9.255  69.105  1.00  0.00    -0.213 NA 
HETATM   10  C   UNL     1     -11.525   9.521  70.289  1.00  0.00    -0.206 A  
HETATM   11  C   UNL     1     -11.978  10.816  70.625  1.00  0.00    -0.466 A  
HETATM   12  C   UNL     1     -12.913  11.043  71.642  1.00  0.00    -0.561 A  
HETATM   13  C   UNL     1     -13.396   9.980  72.385  1.00  0.00    -0.261 A  
HETATM   14  C   UNL     1     -12.872   8.712  72.167  1.00  0.00    -0.442 A  
HETATM   15  C   UNL     1     -11.914   8.484  71.161  1.00  0.00    -0.272 A  
HETATM   16  S   UNL     1     -11.286   6.829  71.067  1.00  0.00    -0.328 SA 
HETATM   17  C   UNL     1     -10.163   6.924  69.694  1.00  0.00    -0.193 A  
HETATM   18  C   UNL     1      -9.440   5.741  69.438  1.00  0.00    -0.162 A  
HETATM   19  C   UNL     1      -8.612   5.633  68.326  1.00  0.00    -0.107 A  
HETATM   20  C   UNL     1      -8.499   6.715  67.470  1.00  0.00    -0.121 A  
HETATM   21  C   UNL     1      -9.192   7.902  67.733  1.00  0.00    -0.144 A  
HETATM   22  C   UNL     1     -10.053   8.050  68.846  1.00  0.00    -0.201 A  
ENDBRANCH   8   9
ENDBRANCH   6   8
ENDBRANCH   3   6
ENDBRANCH   2   3
TORSDOF 5
ENDMDL
MODEL      157
REMARK 921   NORMALIZED FREE ENERGY PREDICTED BY IDOCK:   -3.71 KCAL/MOL
REMARK 922        TOTAL FREE ENERGY PREDICTED BY IDOCK:   -5.61 KCAL/MOL
REMARK 923 INTER-LIGAND FREE ENERGY PREDICTED BY IDOCK:   -4.57 KCAL/MOL
REMARK 924 INTRA-LIGAND FREE ENERGY PREDICTED BY IDOCK:   -1.05 KCAL/MOL
REMARK 927      BINDING AFFINITY PREDICTED BY RF-SCORE:    0.00 PKD
ROOT
HETATM    1  C   UNL     1     -14.025   8.947  72.531  1.00  0.00    -0.466 C  
HETATM    2  C   UNL     1     -13.095   9.623  71.521  1.00  0.00    -0.400 C  
ENDROOT
BRANCH   2   3
HETATM    3  N   UNL     1     -11.740   9.032  71.400  1.00  0.00    -0.298 NA 
BRANCH   3   4
HETATM    4  C   UNL     1     -11.756   7.597  71.725  1.00  0.00    -0.283 C  
HETATM    5  C   UNL     1     -11.775   6.629  70.548  1.00  0.00    -0.453 C  
ENDBRANCH   3   4
BRANCH   3   6
HETATM    6  C   UNL     1     -11.091   9.368  70.084  1.00  0.00    -0.242 C  
HETATM    7  C   UNL     1     -11.627  10.750  69.614  1.00  0.00    -0.388 C  
BRANCH   6   8
HETATM    8  C   UNL     1      -9.517   9.515  70.022  1.00  0.00    -0.232 C  
BRANCH   8   9
HETATM    9  N   UNL     1      -8.701   8.270  69.881  1.00  0.00    -0.132 NA 
HETATM   10  C   UNL     1      -8.258   7.655  71.090  1.00  0.00    -0.100 A  
HETATM   11  C   UNL     1      -8.142   8.366  72.305  1.00  0.00    -0.186 A  
HETATM   12  C   UNL     1      -7.949   7.725  73.534  1.00  0.00    -0.205 A  
HETATM   13  C   UNL     1      -7.825   6.347  73.582  1.00  0.00    -0.092 A  
HETATM   14  C   UNL     1      -7.803   5.631  72.392  1.00  0.00    -0.103 A  
HETATM   15  C   UNL     1      -7.974   6.275  71.152  1.00  0.00    -0.116 A  
HETATM   16  S   UNL     1      -7.837   5.232  69.726  1.00  0.00    -0.073 SA 
HETATM   17  C   UNL     1      -8.140   6.367  68.392  1.00  0.00    -0.113 A  
HETATM   18  C   UNL     1      -8.008   5.813  67.103  1.00  0.00    -0.102 A  
HETATM   19  C   UNL     1      -8.327   6.552  65.969  1.00  0.00    -0.133 A  
HETATM   20  C   UNL     1      -8.773   7.853  66.124  1.00  0.00    -0.181 A  
HETATM   21  C   UNL     1      -8.879   8.419  67.399  1.00  0.00    -0.140 A  
HETATM   22  C   UNL     1      -8.575   7.699  68.578  1.00  0.00    -0.129 A  
ENDBRANCH   8   9
ENDBRANCH   6   8
ENDBRANCH   3   6
ENDBRANCH   2   3
TORSDOF 5
ENDMDL
MODEL      158
REMARK 921   NORMALIZED FREE ENERGY PREDICTED BY IDOCK:   -3.71 KCAL/MOL
REMARK 922        TOTAL FREE ENERGY PREDICTED BY IDOCK:   -5.61 KCAL/MOL
REMARK 923 INTER-LIGAND FREE ENERGY PREDICTED BY IDOCK:   -5.10 KCAL/MOL
REMARK 924 INTRA-LIGAND FREE ENERGY PREDICTED BY IDOCK:   -0.50 KCAL/MOL
REMARK 927      BINDING AFFINITY PREDICTED BY RF-SCORE:    0.00 PKD
ROOT
HETATM    1  C   UNL     1     -10.928  15.916  67.355  1.00  0.00    -0.257 C  
HETATM    2  C   UNL     1     -10.089  14.823  66.689  1.00  0.00    -0.264 C  
ENDROOT
BRANCH   2   3
HETATM    3  N   UNL     1     -10.798  13.551  66.408  1.00  0.00    -0.289 NA 
BRANCH   3   4
HETATM    4  C   UNL     1     -10.859  13.285  64.962  1.00  0.00    -0.322 C  
HETATM    5  C   UNL     1     -12.228  12.945  64.386  1.00  0.00    -0.484 C  
ENDBRANCH   3   4
BRANCH   3   6
HETATM    6  C   UNL     1     -10.261  12.410  67.230  1.00  0.00    -0.215 C  
HETATM    7  C   UNL     1     -10.058  12.912  68.688  1.00  0.00    -0.136 C  
BRANCH   6   8
HETATM    8  C   UNL     1     -11.135  11.100  67.385  1.00  0.00    -0.307 C  
BRANCH   8   9
HETATM    9  N   UNL     1     -10.426   9.813  67.662  1.00  0.00    -0.234 NA 
HETATM   10  C   UNL     1      -9.578   9.314  66.628  1.00  0.00    -0.204 A  
HETATM   11  C   UNL     1      -9.734   9.684  65.274  1.00  0.00    -0.330 A  
HETATM   12  C   UNL     1      -8.767   9.399  64.302  1.00  0.00    -0.224 A  
HETATM   13  C   UNL     1      -7.627   8.696  64.649  1.00  0.00    -0.111 A  
HETATM   14  C   UNL     1      -7.505   8.204  65.942  1.00  0.00    -0.080 A  
HETATM   15  C   UNL     1      -8.487   8.469  66.917  1.00  0.00    -0.113 A  
HETATM   16  S   UNL     1      -8.224   7.701  68.492  1.00  0.00    -0.125 SA 
HETATM   17  C   UNL     1      -9.611   8.285  69.437  1.00  0.00    -0.171 A  
HETATM   18  C   UNL     1      -9.705   7.752  70.739  1.00  0.00    -0.175 A  
HETATM   19  C   UNL     1     -10.671   8.205  71.631  1.00  0.00    -0.299 A  
HETATM   20  C   UNL     1     -11.553   9.188  71.217  1.00  0.00    -0.401 A  
HETATM   21  C   UNL     1     -11.483   9.701  69.916  1.00  0.00    -0.144 A  
HETATM   22  C   UNL     1     -10.509   9.277  68.983  1.00  0.00    -0.216 A  
ENDBRANCH   8   9
ENDBRANCH   6   8
ENDBRANCH   3   6
ENDBRANCH   2   3
TORSDOF 5
ENDMDL
MODEL      159
REMARK 921   NORMALIZED FREE ENERGY PREDICTED BY IDOCK:   -3.71 KCAL/MOL
REMARK 922        TOTAL FREE ENERGY PREDICTED BY IDOCK:   -5.61 KCAL/MOL
REMARK 923 INTER-LIGAND FREE ENERGY PREDICTED BY IDOCK:   -5.03 KCAL/MOL
REMARK 924 INTRA-LIGAND FREE ENERGY PREDICTED BY IDOCK:   -0.57 KCAL/MOL
REMARK 927      BINDING AFFINITY PREDICTED BY RF-SCORE:    0.00 PKD
ROOT
HETATM    1  C   UNL     1     -12.852  11.178  71.310  1.00  0.00    -0.515 C  
HETATM    2  C   UNL     1     -11.906  11.482  70.145  1.00  0.00    -0.356 C  
ENDROOT
BRANCH   2   3
HETATM    3  N   UNL     1     -12.208  12.715  69.378  1.00  0.00    -0.143 NA 
BRANCH   3   4
HETATM    4  C   UNL     1     -11.886  13.919  70.161  1.00  0.00    -0.298 C  
HETATM    5  C   UNL     1     -13.063  14.764  70.631  1.00  0.00    -0.343 C  
ENDBRANCH   3   4
BRANCH   3   6
HETATM    6  C   UNL     1     -11.605  12.687  68.000  1.00  0.00    -0.343 C  
HETATM    7  C   UNL     1     -12.081  13.953  67.232  1.00  0.00    -0.403 C  
BRANCH   6   8
HETATM    8  C   UNL     1     -10.029  12.707  67.852  1.00  0.00    -0.228 C  
BRANCH   8   9
HETATM    9  N   UNL     1      -9.372  11.538  67.191  1.00  0.00    -0.170 NA 
HETATM   10  C   UNL     1      -8.828  10.538  68.052  1.00  0.00    -0.131 A  
HETATM   11  C   UNL     1      -8.471  10.805  69.393  1.00  0.00     0.000 A  
HETATM   12  C   UNL     1      -8.173   9.786  70.306  1.00  0.00    -0.178 A  
HETATM   13  C   UNL     1      -8.184   8.465  69.894  1.00  0.00    -0.122 A  
HETATM   14  C   UNL     1      -8.402   8.180  68.552  1.00  0.00    -0.126 A  
HETATM   15  C   UNL     1      -8.679   9.203  67.626  1.00  0.00    -0.120 A  
HETATM   16  S   UNL     1      -8.851   8.681  65.941  1.00  0.00    -0.193 SA 
HETATM   17  C   UNL     1      -9.221  10.204  65.105  1.00  0.00    -0.213 A  
HETATM   18  C   UNL     1      -9.328  10.099  63.703  1.00  0.00    -0.336 A  
HETATM   19  C   UNL     1      -9.728  11.184  62.931  1.00  0.00    -0.349 A  
HETATM   20  C   UNL     1     -10.013  12.383  63.561  1.00  0.00    -0.137 A  
HETATM   21  C   UNL     1      -9.881  12.503  64.950  1.00  0.00    -0.095 A  
HETATM   22  C   UNL     1      -9.489  11.422  65.772  1.00  0.00    -0.233 A  
ENDBRANCH   8   9
ENDBRANCH   6   8
ENDBRANCH   3   6
ENDBRANCH   2   3
TORSDOF 5
ENDMDL
MODEL      160
REMARK 921   NORMALIZED FREE ENERGY PREDICTED BY IDOCK:   -3.69 KCAL/MOL
REMARK 922        TOTAL FREE ENERGY PREDICTED BY IDOCK:   -5.58 KCAL/MOL
REMARK 923 INTER-LIGAND FREE ENERGY PREDICTED BY IDOCK:   -4.86 KCAL/MOL
REMARK 924 INTRA-LIGAND FREE ENERGY PREDICTED BY IDOCK:   -0.73 KCAL/MOL
REMARK 927      BINDING AFFINITY PREDICTED BY RF-SCORE:    0.00 PKD
ROOT
HETATM    1  C   UNL     1     -11.715  13.924  68.313  1.00  0.00    -0.396 C  
HETATM    2  C   UNL     1     -10.340  13.253  68.370  1.00  0.00    -0.251 C  
ENDROOT
BRANCH   2   3
HETATM    3  N   UNL     1     -10.344  11.772  68.291  1.00  0.00    -0.199 NA 
BRANCH   3   4
HETATM    4  C   UNL     1     -11.260  11.299  67.240  1.00  0.00    -0.296 C  
HETATM    5  C   UNL     1     -10.626  10.881  65.919  1.00  0.00    -0.244 C  
ENDBRANCH   3   4
BRANCH   3   6
HETATM    6  C   UNL     1      -8.953  11.206  68.208  1.00  0.00    -0.166 C  
HETATM    7  C   UNL     1      -7.939  12.361  68.447  1.00  0.00    -0.149 C  
BRANCH   6   8
HETATM    8  C   UNL     1      -8.519  10.085  69.239  1.00  0.00    -0.163 C  
BRANCH   8   9
HETATM    9  N   UNL     1      -9.062   8.706  69.044  1.00  0.00    -0.145 NA 
HETATM   10  C   UNL     1      -9.968   8.228  70.038  1.00  0.00    -0.188 A  
HETATM   11  C   UNL     1     -10.004   8.755  71.348  1.00  0.00    -0.354 A  
HETATM   12  C   UNL     1     -11.041   8.468  72.243  1.00  0.00    -0.430 A  
HETATM   13  C   UNL     1     -12.060   7.610  71.868  1.00  0.00    -0.333 A  
HETATM   14  C   UNL     1     -11.985   6.975  70.636  1.00  0.00    -0.361 A  
HETATM   15  C   UNL     1     -10.931   7.242  69.741  1.00  0.00    -0.216 A  
HETATM   16  S   UNL     1     -10.937   6.287  68.248  1.00  0.00    -0.263 SA 
HETATM   17  C   UNL     1      -9.517   6.917  67.386  1.00  0.00    -0.132 A  
HETATM   18  C   UNL     1      -9.224   6.264  66.172  1.00  0.00    -0.143 A  
HETATM   19  C   UNL     1      -8.213   6.724  65.336  1.00  0.00    -0.134 A  
HETATM   20  C   UNL     1      -7.485   7.838  65.719  1.00  0.00    -0.078 A  
HETATM   21  C   UNL     1      -7.751   8.474  66.937  1.00  0.00    -0.091 A  
HETATM   22  C   UNL     1      -8.777   8.046  67.810  1.00  0.00    -0.127 A  
ENDBRANCH   8   9
ENDBRANCH   6   8
ENDBRANCH   3   6
ENDBRANCH   2   3
TORSDOF 5
ENDMDL
MODEL      161
REMARK 921   NORMALIZED FREE ENERGY PREDICTED BY IDOCK:   -3.69 KCAL/MOL
REMARK 922        TOTAL FREE ENERGY PREDICTED BY IDOCK:   -5.58 KCAL/MOL
REMARK 923 INTER-LIGAND FREE ENERGY PREDICTED BY IDOCK:   -5.23 KCAL/MOL
REMARK 924 INTRA-LIGAND FREE ENERGY PREDICTED BY IDOCK:   -0.35 KCAL/MOL
REMARK 927      BINDING AFFINITY PREDICTED BY RF-SCORE:    0.00 PKD
ROOT
HETATM    1  C   UNL     1     -14.192   9.016  72.287  1.00  0.00    -0.432 C  
HETATM    2  C   UNL     1     -12.902   9.764  71.939  1.00  0.00    -0.427 C  
ENDROOT
BRANCH   2   3
HETATM    3  N   UNL     1     -11.731   8.911  71.622  1.00  0.00    -0.316 NA 
BRANCH   3   4
HETATM    4  C   UNL     1     -12.151   7.635  71.020  1.00  0.00    -0.258 C  
HETATM    5  C   UNL     1     -11.738   6.365  71.753  1.00  0.00    -0.376 C  
ENDBRANCH   3   4
BRANCH   3   6
HETATM    6  C   UNL     1     -10.684   9.655  70.839  1.00  0.00    -0.332 C  
HETATM    7  C   UNL     1      -9.299   9.015  71.143  1.00  0.00    -0.336 C  
BRANCH   6   8
HETATM    8  C   UNL     1     -10.772   9.667  69.258  1.00  0.00    -0.226 C  
BRANCH   8   9
HETATM    9  N   UNL     1      -9.922  10.649  68.517  1.00  0.00    -0.160 NA 
HETATM   10  C   UNL     1     -10.378  12.001  68.494  1.00  0.00    -0.217 A  
HETATM   11  C   UNL     1     -11.731  12.349  68.703  1.00  0.00    -0.372 A  
HETATM   12  C   UNL     1     -12.140  13.669  68.926  1.00  0.00    -0.335 A  
HETATM   13  C   UNL     1     -11.209  14.693  68.907  1.00  0.00    -0.285 A  
HETATM   14  C   UNL     1      -9.893  14.400  68.575  1.00  0.00    -0.233 A  
HETATM   15  C   UNL     1      -9.482  13.076  68.327  1.00  0.00    -0.208 A  
HETATM   16  S   UNL     1      -7.790  12.882  67.834  1.00  0.00    -0.167 SA 
HETATM   17  C   UNL     1      -7.645  11.120  67.654  1.00  0.00    -0.105 A  
HETATM   18  C   UNL     1      -6.395  10.676  67.177  1.00  0.00    -0.070 A  
HETATM   19  C   UNL     1      -6.099   9.320  67.097  1.00  0.00    -0.057 A  
HETATM   20  C   UNL     1      -7.060   8.403  67.487  1.00  0.00    -0.083 A  
HETATM   21  C   UNL     1      -8.313   8.836  67.935  1.00  0.00    -0.118 A  
HETATM   22  C   UNL     1      -8.650  10.205  68.043  1.00  0.00    -0.118 A  
ENDBRANCH   8   9
ENDBRANCH   6   8
ENDBRANCH   3   6
ENDBRANCH   2   3
TORSDOF 5
ENDMDL
MODEL      162
REMARK 921   NORMALIZED FREE ENERGY PREDICTED BY IDOCK:   -3.68 KCAL/MOL
REMARK 922        TOTAL FREE ENERGY PREDICTED BY IDOCK:   -5.58 KCAL/MOL
REMARK 923 INTER-LIGAND FREE ENERGY PREDICTED BY IDOCK:   -5.19 KCAL/MOL
REMARK 924 INTRA-LIGAND FREE ENERGY PREDICTED BY IDOCK:   -0.39 KCAL/MOL
REMARK 927      BINDING AFFINITY PREDICTED BY RF-SCORE:    0.00 PKD
ROOT
HETATM    1  C   UNL     1      -8.360   5.033  68.465  1.00  0.00    -0.088 C  
HETATM    2  C   UNL     1      -8.605   6.202  67.507  1.00  0.00    -0.106 C  
ENDROOT
BRANCH   2   3
HETATM    3  N   UNL     1      -7.940   7.478  67.867  1.00  0.00    -0.117 NA 
BRANCH   3   4
HETATM    4  C   UNL     1      -6.721   7.685  67.068  1.00  0.00    -0.067 C  
HETATM    5  C   UNL     1      -6.518   9.075  66.478  1.00  0.00    -0.067 C  
ENDBRANCH   3   4
BRANCH   3   6
HETATM    6  C   UNL     1      -8.898   8.638  67.857  1.00  0.00    -0.137 C  
HETATM    7  C   UNL     1     -10.301   8.111  67.442  1.00  0.00    -0.351 C  
BRANCH   6   8
HETATM    8  C   UNL     1      -9.158   9.428  69.203  1.00  0.00    -0.148 C  
BRANCH   8   9
HETATM    9  N   UNL     1     -10.260  10.439  69.221  1.00  0.00    -0.218 NA 
HETATM   10  C   UNL     1     -11.329  10.205  70.138  1.00  0.00    -0.303 A  
HETATM   11  C   UNL     1     -11.625   8.921  70.646  1.00  0.00    -0.251 A  
HETATM   12  C   UNL     1     -12.500   8.723  71.721  1.00  0.00    -0.407 A  
HETATM   13  C   UNL     1     -13.141   9.805  72.297  1.00  0.00    -0.445 A  
HETATM   14  C   UNL     1     -12.972  11.065  71.737  1.00  0.00    -0.544 A  
HETATM   15  C   UNL     1     -12.111  11.265  70.641  1.00  0.00    -0.383 A  
HETATM   16  S   UNL     1     -12.071  12.913  69.992  1.00  0.00    -0.221 SA 
HETATM   17  C   UNL     1     -10.878  12.780  68.682  1.00  0.00    -0.253 A  
HETATM   18  C   UNL     1     -10.704  13.952  67.920  1.00  0.00    -0.248 A  
HETATM   19  C   UNL     1      -9.722  14.030  66.938  1.00  0.00    -0.272 A  
HETATM   20  C   UNL     1      -8.916  12.927  66.712  1.00  0.00    -0.182 A  
HETATM   21  C   UNL     1      -9.103  11.750  67.445  1.00  0.00    -0.175 A  
HETATM   22  C   UNL     1     -10.081  11.633  68.459  1.00  0.00    -0.206 A  
ENDBRANCH   8   9
ENDBRANCH   6   8
ENDBRANCH   3   6
ENDBRANCH   2   3
TORSDOF 5
ENDMDL
MODEL      163
REMARK 921   NORMALIZED FREE ENERGY PREDICTED BY IDOCK:   -3.68 KCAL/MOL
REMARK 922        TOTAL FREE ENERGY PREDICTED BY IDOCK:   -5.57 KCAL/MOL
REMARK 923 INTER-LIGAND FREE ENERGY PREDICTED BY IDOCK:   -5.24 KCAL/MOL
REMARK 924 INTRA-LIGAND FREE ENERGY PREDICTED BY IDOCK:   -0.33 KCAL/MOL
REMARK 927      BINDING AFFINITY PREDICTED BY RF-SCORE:    0.00 PKD
ROOT
HETATM    1  C   UNL     1     -11.679  14.928  68.056  1.00  0.00    -0.344 C  
HETATM    2  C   UNL     1     -11.071  14.089  66.929  1.00  0.00    -0.304 C  
ENDROOT
BRANCH   2   3
HETATM    3  N   UNL     1     -12.024  13.238  66.177  1.00  0.00    -0.399 NA 
BRANCH   3   4
HETATM    4  C   UNL     1     -12.568  13.952  65.010  1.00  0.00    -0.390 C  
HETATM    5  C   UNL     1     -11.831  15.213  64.576  1.00  0.00    -0.335 C  
ENDBRANCH   3   4
BRANCH   3   6
HETATM    6  C   UNL     1     -11.449  11.882  65.867  1.00  0.00    -0.278 C  
HETATM    7  C   UNL     1     -11.366  11.728  64.321  1.00  0.00    -0.400 C  
BRANCH   6   8
HETATM    8  C   UNL     1      -9.991  11.533  66.374  1.00  0.00    -0.209 C  
BRANCH   8   9
HETATM    9  N   UNL     1      -9.824  10.341  67.261  1.00  0.00    -0.176 NA 
HETATM   10  C   UNL     1     -10.512  10.372  68.511  1.00  0.00    -0.186 A  
HETATM   11  C   UNL     1     -10.920  11.578  69.123  1.00  0.00    -0.276 A  
HETATM   12  C   UNL     1     -11.800  11.606  70.211  1.00  0.00    -0.414 A  
HETATM   13  C   UNL     1     -12.273  10.421  70.748  1.00  0.00    -0.457 A  
HETATM   14  C   UNL     1     -11.789   9.218  70.253  1.00  0.00    -0.015 A  
HETATM   15  C   UNL     1     -10.885   9.185  69.174  1.00  0.00    -0.110 A  
HETATM   16  S   UNL     1     -10.300   7.575  68.717  1.00  0.00    -0.191 SA 
HETATM   17  C   UNL     1      -9.240   7.932  67.336  1.00  0.00    -0.140 A  
HETATM   18  C   UNL     1      -8.557   6.816  66.812  1.00  0.00    -0.119 A  
HETATM   19  C   UNL     1      -7.785   6.924  65.661  1.00  0.00    -0.102 A  
HETATM   20  C   UNL     1      -7.687   8.155  65.036  1.00  0.00    -0.113 A  
HETATM   21  C   UNL     1      -8.339   9.274  65.567  1.00  0.00    -0.139 A  
HETATM   22  C   UNL     1      -9.143   9.204  66.728  1.00  0.00    -0.144 A  
ENDBRANCH   8   9
ENDBRANCH   6   8
ENDBRANCH   3   6
ENDBRANCH   2   3
TORSDOF 5
ENDMDL
MODEL      164
REMARK 921   NORMALIZED FREE ENERGY PREDICTED BY IDOCK:   -3.67 KCAL/MOL
REMARK 922        TOTAL FREE ENERGY PREDICTED BY IDOCK:   -5.56 KCAL/MOL
REMARK 923 INTER-LIGAND FREE ENERGY PREDICTED BY IDOCK:   -4.60 KCAL/MOL
REMARK 924 INTRA-LIGAND FREE ENERGY PREDICTED BY IDOCK:   -0.96 KCAL/MOL
REMARK 927      BINDING AFFINITY PREDICTED BY RF-SCORE:    0.00 PKD
ROOT
HETATM    1  C   UNL     1     -11.684  14.417  67.622  1.00  0.00    -0.421 C  
HETATM    2  C   UNL     1     -11.000  13.417  66.685  1.00  0.00    -0.287 C  
ENDROOT
BRANCH   2   3
HETATM    3  N   UNL     1     -10.857  12.039  67.212  1.00  0.00    -0.235 NA 
BRANCH   3   4
HETATM    4  C   UNL     1     -11.867  11.757  68.245  1.00  0.00    -0.271 C  
HETATM    5  C   UNL     1     -11.494  10.726  69.303  1.00  0.00    -0.369 C  
ENDBRANCH   3   4
BRANCH   3   6
HETATM    6  C   UNL     1     -10.787  11.016  66.111  1.00  0.00    -0.146 C  
HETATM    7  C   UNL     1     -10.912  11.756  64.748  1.00  0.00    -0.360 C  
BRANCH   6   8
HETATM    8  C   UNL     1      -9.479  10.138  65.962  1.00  0.00    -0.197 C  
BRANCH   8   9
HETATM    9  N   UNL     1      -8.937   9.473  67.187  1.00  0.00    -0.134 NA 
HETATM   10  C   UNL     1      -7.949  10.194  67.923  1.00  0.00    -0.101 A  
HETATM   11  C   UNL     1      -7.160  11.210  67.339  1.00  0.00    -0.102 A  
HETATM   12  C   UNL     1      -6.373  12.081  68.103  1.00  0.00    -0.053 A  
HETATM   13  C   UNL     1      -6.320  11.936  69.478  1.00  0.00    -0.122 A  
HETATM   14  C   UNL     1      -6.980  10.867  70.069  1.00  0.00    -0.036 A  
HETATM   15  C   UNL     1      -7.754   9.975  69.302  1.00  0.00    -0.117 A  
HETATM   16  S   UNL     1      -8.463   8.618  70.194  1.00  0.00    -0.145 SA 
HETATM   17  C   UNL     1      -9.370   7.761  68.929  1.00  0.00    -0.146 A  
HETATM   18  C   UNL     1      -9.982   6.563  69.349  1.00  0.00    -0.178 A  
HETATM   19  C   UNL     1     -10.819   5.849  68.499  1.00  0.00    -0.323 A  
HETATM   20  C   UNL     1     -11.038   6.330  67.220  1.00  0.00    -0.387 A  
HETATM   21  C   UNL     1     -10.411   7.504  66.786  1.00  0.00    -0.319 A  
HETATM   22  C   UNL     1      -9.563   8.266  67.623  1.00  0.00    -0.152 A  
ENDBRANCH   8   9
ENDBRANCH   6   8
ENDBRANCH   3   6
ENDBRANCH   2   3
TORSDOF 5
ENDMDL
MODEL      165
REMARK 921   NORMALIZED FREE ENERGY PREDICTED BY IDOCK:   -3.65 KCAL/MOL
REMARK 922        TOTAL FREE ENERGY PREDICTED BY IDOCK:   -5.53 KCAL/MOL
REMARK 923 INTER-LIGAND FREE ENERGY PREDICTED BY IDOCK:   -4.80 KCAL/MOL
REMARK 924 INTRA-LIGAND FREE ENERGY PREDICTED BY IDOCK:   -0.73 KCAL/MOL
REMARK 927      BINDING AFFINITY PREDICTED BY RF-SCORE:    0.00 PKD
ROOT
HETATM    1  C   UNL     1     -11.800  13.381  67.981  1.00  0.00    -0.392 C  
HETATM    2  C   UNL     1     -10.478  12.637  68.189  1.00  0.00    -0.231 C  
ENDROOT
BRANCH   2   3
HETATM    3  N   UNL     1     -10.387  11.300  67.554  1.00  0.00    -0.188 NA 
BRANCH   3   4
HETATM    4  C   UNL     1     -11.156  11.254  66.300  1.00  0.00    -0.166 C  
HETATM    5  C   UNL     1     -10.354  11.122  65.011  1.00  0.00    -0.362 C  
ENDBRANCH   3   4
BRANCH   3   6
HETATM    6  C   UNL     1      -8.963  10.827  67.432  1.00  0.00    -0.139 C  
HETATM    7  C   UNL     1      -8.022  12.030  67.728  1.00  0.00    -0.147 C  
BRANCH   6   8
HETATM    8  C   UNL     1      -8.450   9.682  68.396  1.00  0.00    -0.118 C  
BRANCH   8   9
HETATM    9  N   UNL     1      -9.299   8.460  68.546  1.00  0.00    -0.139 NA 
HETATM   10  C   UNL     1      -9.156   7.454  67.543  1.00  0.00    -0.125 A  
HETATM   11  C   UNL     1      -8.653   7.735  66.253  1.00  0.00    -0.161 A  
HETATM   12  C   UNL     1      -8.282   6.725  65.357  1.00  0.00    -0.134 A  
HETATM   13  C   UNL     1      -8.439   5.396  65.710  1.00  0.00    -0.131 A  
HETATM   14  C   UNL     1      -9.051   5.089  66.918  1.00  0.00    -0.117 A  
HETATM   15  C   UNL     1      -9.448   6.101  67.812  1.00  0.00    -0.115 A  
HETATM   16  S   UNL     1     -10.289   5.545  69.270  1.00  0.00    -0.262 SA 
HETATM   17  C   UNL     1     -10.588   7.065  70.141  1.00  0.00    -0.228 A  
HETATM   18  C   UNL     1     -11.336   6.928  71.328  1.00  0.00    -0.319 A  
HETATM   19  C   UNL     1     -11.547   8.014  72.171  1.00  0.00    -0.399 A  
HETATM   20  C   UNL     1     -11.015   9.243  71.823  1.00  0.00    -0.383 A  
HETATM   21  C   UNL     1     -10.295   9.392  70.631  1.00  0.00    -0.349 A  
HETATM   22  C   UNL     1     -10.049   8.313  69.752  1.00  0.00    -0.197 A  
ENDBRANCH   8   9
ENDBRANCH   6   8
ENDBRANCH   3   6
ENDBRANCH   2   3
TORSDOF 5
ENDMDL
MODEL      166
REMARK 921   NORMALIZED FREE ENERGY PREDICTED BY IDOCK:   -3.64 KCAL/MOL
REMARK 922        TOTAL FREE ENERGY PREDICTED BY IDOCK:   -5.52 KCAL/MOL
REMARK 923 INTER-LIGAND FREE ENERGY PREDICTED BY IDOCK:   -5.25 KCAL/MOL
REMARK 924 INTRA-LIGAND FREE ENERGY PREDICTED BY IDOCK:   -0.26 KCAL/MOL
REMARK 927      BINDING AFFINITY PREDICTED BY RF-SCORE:    0.00 PKD
ROOT
HETATM    1  C   UNL     1      -6.750   6.332  66.075  1.00  0.00    -0.052 C  
HETATM    2  C   UNL     1      -7.576   7.103  67.108  1.00  0.00    -0.103 C  
ENDROOT
BRANCH   2   3
HETATM    3  N   UNL     1      -8.856   7.666  66.616  1.00  0.00    -0.135 NA 
BRANCH   3   4
HETATM    4  C   UNL     1      -9.933   7.476  67.602  1.00  0.00    -0.171 C  
HETATM    5  C   UNL     1     -10.875   6.302  67.368  1.00  0.00    -0.448 C  
ENDBRANCH   3   4
BRANCH   3   6
HETATM    6  C   UNL     1      -8.702   9.080  66.124  1.00  0.00    -0.147 C  
HETATM    7  C   UNL     1      -8.556   9.045  64.576  1.00  0.00    -0.181 C  
BRANCH   6   8
HETATM    8  C   UNL     1      -9.871  10.114  66.385  1.00  0.00    -0.222 C  
BRANCH   8   9
HETATM    9  N   UNL     1      -9.579  11.567  66.185  1.00  0.00    -0.218 NA 
HETATM   10  C   UNL     1     -10.383  12.256  65.227  1.00  0.00    -0.281 A  
HETATM   11  C   UNL     1     -11.063  11.586  64.186  1.00  0.00    -0.417 A  
HETATM   12  C   UNL     1     -12.039  12.214  63.403  1.00  0.00    -0.608 A  
HETATM   13  C   UNL     1     -12.338  13.549  63.611  1.00  0.00    -0.377 A  
HETATM   14  C   UNL     1     -11.596  14.269  64.539  1.00  0.00    -0.397 A  
HETATM   15  C   UNL     1     -10.597  13.647  65.313  1.00  0.00    -0.346 A  
HETATM   16  S   UNL     1      -9.686  14.721  66.388  1.00  0.00    -0.306 SA 
HETATM   17  C   UNL     1      -8.576  13.596  67.201  1.00  0.00    -0.192 A  
HETATM   18  C   UNL     1      -7.652  14.204  68.074  1.00  0.00    -0.142 A  
HETATM   19  C   UNL     1      -6.801  13.439  68.863  1.00  0.00    -0.111 A  
HETATM   20  C   UNL     1      -6.867  12.059  68.774  1.00  0.00    -0.094 A  
HETATM   21  C   UNL     1      -7.763  11.449  67.888  1.00  0.00    -0.114 A  
HETATM   22  C   UNL     1      -8.653  12.189  67.076  1.00  0.00    -0.191 A  
ENDBRANCH   8   9
ENDBRANCH   6   8
ENDBRANCH   3   6
ENDBRANCH   2   3
TORSDOF 5
ENDMDL
MODEL      167
REMARK 921   NORMALIZED FREE ENERGY PREDICTED BY IDOCK:   -3.62 KCAL/MOL
REMARK 922        TOTAL FREE ENERGY PREDICTED BY IDOCK:   -5.49 KCAL/MOL
REMARK 923 INTER-LIGAND FREE ENERGY PREDICTED BY IDOCK:   -4.66 KCAL/MOL
REMARK 924 INTRA-LIGAND FREE ENERGY PREDICTED BY IDOCK:   -0.83 KCAL/MOL
REMARK 927      BINDING AFFINITY PREDICTED BY RF-SCORE:    0.00 PKD
ROOT
HETATM    1  C   UNL     1      -7.671   6.676  64.685  1.00  0.00    -0.112 C  
HETATM    2  C   UNL     1      -8.149   5.884  65.905  1.00  0.00    -0.118 C  
ENDROOT
BRANCH   2   3
HETATM    3  N   UNL     1      -8.972   6.639  66.879  1.00  0.00    -0.123 NA 
BRANCH   3   4
HETATM    4  C   UNL     1     -10.340   6.102  66.949  1.00  0.00    -0.248 C  
HETATM    5  C   UNL     1     -11.007   6.106  68.319  1.00  0.00    -0.397 C  
ENDBRANCH   3   4
BRANCH   3   6
HETATM    6  C   UNL     1      -8.287   6.778  68.212  1.00  0.00    -0.118 C  
HETATM    7  C   UNL     1      -6.922   6.034  68.140  1.00  0.00    -0.076 C  
BRANCH   6   8
HETATM    8  C   UNL     1      -7.917   8.225  68.737  1.00  0.00    -0.114 C  
BRANCH   8   9
HETATM    9  N   UNL     1      -9.034   9.119  69.172  1.00  0.00    -0.141 NA 
HETATM   10  C   UNL     1      -9.452  10.120  68.244  1.00  0.00    -0.140 A  
HETATM   11  C   UNL     1      -8.613  10.593  67.211  1.00  0.00    -0.126 A  
HETATM   12  C   UNL     1      -9.092  11.383  66.159  1.00  0.00    -0.217 A  
HETATM   13  C   UNL     1     -10.423  11.759  66.128  1.00  0.00    -0.284 A  
HETATM   14  C   UNL     1     -11.243  11.419  67.196  1.00  0.00    -0.363 A  
HETATM   15  C   UNL     1     -10.760  10.645  68.268  1.00  0.00    -0.219 A  
HETATM   16  S   UNL     1     -11.908  10.370  69.590  1.00  0.00    -0.130 SA 
HETATM   17  C   UNL     1     -10.971   9.351  70.704  1.00  0.00    -0.290 A  
HETATM   18  C   UNL     1     -11.626   9.041  71.913  1.00  0.00    -0.441 A  
HETATM   19  C   UNL     1     -11.060   8.159  72.828  1.00  0.00    -0.407 A  
HETATM   20  C   UNL     1      -9.832   7.592  72.538  1.00  0.00    -0.250 A  
HETATM   21  C   UNL     1      -9.163   7.918  71.352  1.00  0.00    -0.165 A  
HETATM   22  C   UNL     1      -9.707   8.800  70.390  1.00  0.00    -0.180 A  
ENDBRANCH   8   9
ENDBRANCH   6   8
ENDBRANCH   3   6
ENDBRANCH   2   3
TORSDOF 5
ENDMDL
MODEL      168
REMARK 921   NORMALIZED FREE ENERGY PREDICTED BY IDOCK:   -3.61 KCAL/MOL
REMARK 922        TOTAL FREE ENERGY PREDICTED BY IDOCK:   -5.49 KCAL/MOL
REMARK 923 INTER-LIGAND FREE ENERGY PREDICTED BY IDOCK:   -5.49 KCAL/MOL
REMARK 924 INTRA-LIGAND FREE ENERGY PREDICTED BY IDOCK:    0.01 KCAL/MOL
REMARK 927      BINDING AFFINITY PREDICTED BY RF-SCORE:    0.00 PKD
ROOT
HETATM    1  C   UNL     1     -12.350  12.323  64.619  1.00  0.00    -0.449 C  
HETATM    2  C   UNL     1     -10.960  12.076  65.210  1.00  0.00    -0.308 C  
ENDROOT
BRANCH   2   3
HETATM    3  N   UNL     1     -10.585  10.654  65.397  1.00  0.00    -0.175 NA 
BRANCH   3   4
HETATM    4  C   UNL     1      -9.405  10.306  64.589  1.00  0.00    -0.266 C  
HETATM    5  C   UNL     1      -9.428  10.730  63.126  1.00  0.00    -0.359 C  
ENDBRANCH   3   4
BRANCH   3   6
HETATM    6  C   UNL     1     -10.478  10.283  66.851  1.00  0.00    -0.229 C  
HETATM    7  C   UNL     1      -9.374   9.197  66.998  1.00  0.00    -0.188 C  
BRANCH   6   8
HETATM    8  C   UNL     1     -10.074  11.398  67.899  1.00  0.00    -0.183 C  
BRANCH   8   9
HETATM    9  N   UNL     1     -11.153  11.974  68.760  1.00  0.00    -0.234 NA 
HETATM   10  C   UNL     1     -11.780  11.084  69.683  1.00  0.00    -0.329 A  
HETATM   11  C   UNL     1     -11.777   9.682  69.506  1.00  0.00     0.186 A  
HETATM   12  C   UNL     1     -12.168   8.798  70.519  1.00  0.00     0.171 A  
HETATM   13  C   UNL     1     -12.615   9.292  71.732  1.00  0.00    -0.461 A  
HETATM   14  C   UNL     1     -12.753  10.665  71.890  1.00  0.00    -0.410 A  
HETATM   15  C   UNL     1     -12.383  11.557  70.866  1.00  0.00    -0.359 A  
HETATM   16  S   UNL     1     -12.700  13.269  71.194  1.00  0.00    -0.253 SA 
HETATM   17  C   UNL     1     -12.082  14.060  69.728  1.00  0.00    -0.348 A  
HETATM   18  C   UNL     1     -12.286  15.454  69.677  1.00  0.00    -0.312 A  
HETATM   19  C   UNL     1     -11.753  16.219  68.646  1.00  0.00    -0.113 A  
HETATM   20  C   UNL     1     -11.021  15.588  67.656  1.00  0.00    -0.315 A  
HETATM   21  C   UNL     1     -10.839  14.200  67.684  1.00  0.00    -0.266 A  
HETATM   22  C   UNL     1     -11.354  13.387  68.720  1.00  0.00    -0.292 A  
ENDBRANCH   8   9
ENDBRANCH   6   8
ENDBRANCH   3   6
ENDBRANCH   2   3
TORSDOF 5
ENDMDL
MODEL      169
REMARK 921   NORMALIZED FREE ENERGY PREDICTED BY IDOCK:   -3.59 KCAL/MOL
REMARK 922        TOTAL FREE ENERGY PREDICTED BY IDOCK:   -5.45 KCAL/MOL
REMARK 923 INTER-LIGAND FREE ENERGY PREDICTED BY IDOCK:   -5.05 KCAL/MOL
REMARK 924 INTRA-LIGAND FREE ENERGY PREDICTED BY IDOCK:   -0.40 KCAL/MOL
REMARK 927      BINDING AFFINITY PREDICTED BY RF-SCORE:    0.00 PKD
ROOT
HETATM    1  C   UNL     1      -5.898  11.830  68.768  1.00  0.00    -0.047 C  
HETATM    2  C   UNL     1      -7.221  11.069  68.889  1.00  0.00    -0.103 C  
ENDROOT
BRANCH   2   3
HETATM    3  N   UNL     1      -7.857  10.679  67.607  1.00  0.00    -0.104 NA 
BRANCH   3   4
HETATM    4  C   UNL     1      -7.043  11.109  66.458  1.00  0.00    -0.124 C  
HETATM    5  C   UNL     1      -6.743  10.056  65.400  1.00  0.00    -0.115 C  
ENDBRANCH   3   4
BRANCH   3   6
HETATM    6  C   UNL     1      -8.246   9.226  67.587  1.00  0.00    -0.115 C  
HETATM    7  C   UNL     1      -7.833   8.590  68.946  1.00  0.00    -0.109 C  
BRANCH   6   8
HETATM    8  C   UNL     1      -9.773   8.843  67.423  1.00  0.00    -0.176 C  
BRANCH   8   9
HETATM    9  N   UNL     1     -10.657   8.957  68.624  1.00  0.00    -0.186 NA 
HETATM   10  C   UNL     1     -10.799   7.786  69.427  1.00  0.00    -0.113 A  
HETATM   11  C   UNL     1     -10.559   6.487  68.925  1.00  0.00    -0.280 A  
HETATM   12  C   UNL     1     -10.457   5.368  69.759  1.00  0.00    -0.378 A  
HETATM   13  C   UNL     1     -10.631   5.506  71.125  1.00  0.00    -0.303 A  
HETATM   14  C   UNL     1     -10.997   6.745  71.635  1.00  0.00    -0.267 A  
HETATM   15  C   UNL     1     -11.124   7.869  70.796  1.00  0.00    -0.256 A  
HETATM   16  S   UNL     1     -11.679   9.354  71.590  1.00  0.00    -0.386 SA 
HETATM   17  C   UNL     1     -11.679  10.524  70.252  1.00  0.00    -0.332 A  
HETATM   18  C   UNL     1     -12.169  11.803  70.586  1.00  0.00    -0.443 A  
HETATM   19  C   UNL     1     -12.120  12.850  69.672  1.00  0.00    -0.290 A  
HETATM   20  C   UNL     1     -11.586  12.616  68.417  1.00  0.00    -0.370 A  
HETATM   21  C   UNL     1     -11.124  11.341  68.069  1.00  0.00    -0.325 A  
HETATM   22  C   UNL     1     -11.145  10.253  68.971  1.00  0.00    -0.230 A  
ENDBRANCH   8   9
ENDBRANCH   6   8
ENDBRANCH   3   6
ENDBRANCH   2   3
TORSDOF 5
ENDMDL
MODEL      170
REMARK 921   NORMALIZED FREE ENERGY PREDICTED BY IDOCK:   -3.58 KCAL/MOL
REMARK 922        TOTAL FREE ENERGY PREDICTED BY IDOCK:   -5.45 KCAL/MOL
REMARK 923 INTER-LIGAND FREE ENERGY PREDICTED BY IDOCK:   -5.09 KCAL/MOL
REMARK 924 INTRA-LIGAND FREE ENERGY PREDICTED BY IDOCK:   -0.36 KCAL/MOL
REMARK 927      BINDING AFFINITY PREDICTED BY RF-SCORE:    0.00 PKD
ROOT
HETATM    1  C   UNL     1     -10.875   6.563  67.971  1.00  0.00    -0.372 C  
HETATM    2  C   UNL     1      -9.702   7.531  67.795  1.00  0.00    -0.146 C  
ENDROOT
BRANCH   2   3
HETATM    3  N   UNL     1      -9.805   8.807  68.544  1.00  0.00    -0.164 NA 
BRANCH   3   4
HETATM    4  C   UNL     1      -8.678   8.967  69.477  1.00  0.00    -0.144 C  
HETATM    5  C   UNL     1      -7.791   7.748  69.694  1.00  0.00    -0.107 C  
ENDBRANCH   3   4
BRANCH   3   6
HETATM    6  C   UNL     1     -10.032   9.982  67.632  1.00  0.00    -0.176 C  
HETATM    7  C   UNL     1     -10.554  11.172  68.488  1.00  0.00    -0.219 C  
BRANCH   6   8
HETATM    8  C   UNL     1      -8.804  10.583  66.834  1.00  0.00    -0.137 C  
BRANCH   8   9
HETATM    9  N   UNL     1      -8.873  12.017  66.417  1.00  0.00    -0.168 NA 
HETATM   10  C   UNL     1      -9.773  12.332  65.355  1.00  0.00    -0.134 A  
HETATM   11  C   UNL     1     -10.211  11.368  64.420  1.00  0.00    -0.361 A  
HETATM   12  C   UNL     1     -11.271  11.606  63.538  1.00  0.00    -0.462 A  
HETATM   13  C   UNL     1     -11.903  12.837  63.535  1.00  0.00    -0.618 A  
HETATM   14  C   UNL     1     -11.412  13.849  64.350  1.00  0.00    -0.376 A  
HETATM   15  C   UNL     1     -10.330  13.620  65.223  1.00  0.00    -0.348 A  
HETATM   16  S   UNL     1      -9.771  15.035  66.132  1.00  0.00    -0.324 SA 
HETATM   17  C   UNL     1      -8.459  14.359  67.121  1.00  0.00    -0.208 A  
HETATM   18  C   UNL     1      -7.761  15.303  67.902  1.00  0.00    -0.147 A  
HETATM   19  C   UNL     1      -6.788  14.902  68.810  1.00  0.00    -0.102 A  
HETATM   20  C   UNL     1      -6.504  13.553  68.933  1.00  0.00    -0.102 A  
HETATM   21  C   UNL     1      -7.173  12.613  68.140  1.00  0.00    -0.109 A  
HETATM   22  C   UNL     1      -8.177  12.977  67.213  1.00  0.00    -0.172 A  
ENDBRANCH   8   9
ENDBRANCH   6   8
ENDBRANCH   3   6
ENDBRANCH   2   3
TORSDOF 5
ENDMDL
MODEL      171
REMARK 921   NORMALIZED FREE ENERGY PREDICTED BY IDOCK:   -3.58 KCAL/MOL
REMARK 922        TOTAL FREE ENERGY PREDICTED BY IDOCK:   -5.44 KCAL/MOL
REMARK 923 INTER-LIGAND FREE ENERGY PREDICTED BY IDOCK:   -4.78 KCAL/MOL
REMARK 924 INTRA-LIGAND FREE ENERGY PREDICTED BY IDOCK:   -0.66 KCAL/MOL
REMARK 927      BINDING AFFINITY PREDICTED BY RF-SCORE:    0.00 PKD
ROOT
HETATM    1  C   UNL     1     -10.125  12.126  68.154  1.00  0.00    -0.206 C  
HETATM    2  C   UNL     1      -9.074  11.047  67.879  1.00  0.00    -0.147 C  
ENDROOT
BRANCH   2   3
HETATM    3  N   UNL     1      -9.487   9.656  68.185  1.00  0.00    -0.132 NA 
BRANCH   3   4
HETATM    4  C   UNL     1      -9.518   8.831  66.967  1.00  0.00    -0.169 C  
HETATM    5  C   UNL     1     -10.632   7.796  66.870  1.00  0.00    -0.347 C  
ENDBRANCH   3   4
BRANCH   3   6
HETATM    6  C   UNL     1      -8.692   9.066  69.319  1.00  0.00    -0.138 C  
HETATM    7  C   UNL     1      -7.216   9.537  69.178  1.00  0.00    -0.067 C  
BRANCH   6   8
HETATM    8  C   UNL     1      -9.083   9.441  70.806  1.00  0.00    -0.204 C  
BRANCH   8   9
HETATM    9  N   UNL     1      -9.824   8.424  71.613  1.00  0.00    -0.199 NA 
HETATM   10  C   UNL     1     -11.234   8.609  71.737  1.00  0.00    -0.326 A  
HETATM   11  C   UNL     1     -11.853   9.866  71.560  1.00  0.00    -0.445 A  
HETATM   12  C   UNL     1     -13.240  10.008  71.437  1.00  0.00    -0.486 A  
HETATM   13  C   UNL     1     -14.059   8.895  71.526  1.00  0.00    -0.344 A  
HETATM   14  C   UNL     1     -13.492   7.664  71.830  1.00  0.00    -0.379 A  
HETATM   15  C   UNL     1     -12.099   7.521  71.978  1.00  0.00    -0.291 A  
HETATM   16  S   UNL     1     -11.544   5.905  72.447  1.00  0.00    -0.229 SA 
HETATM   17  C   UNL     1      -9.779   6.107  72.497  1.00  0.00    -0.156 A  
HETATM   18  C   UNL     1      -9.066   4.972  72.935  1.00  0.00    -0.127 A  
HETATM   19  C   UNL     1      -7.676   4.947  72.913  1.00  0.00    -0.093 A  
HETATM   20  C   UNL     1      -6.995   6.064  72.462  1.00  0.00    -0.079 A  
HETATM   21  C   UNL     1      -7.695   7.205  72.053  1.00  0.00    -0.091 A  
HETATM   22  C   UNL     1      -9.108   7.268  72.048  1.00  0.00    -0.129 A  
ENDBRANCH   8   9
ENDBRANCH   6   8
ENDBRANCH   3   6
ENDBRANCH   2   3
TORSDOF 5
ENDMDL
MODEL      172
REMARK 921   NORMALIZED FREE ENERGY PREDICTED BY IDOCK:   -3.56 KCAL/MOL
REMARK 922        TOTAL FREE ENERGY PREDICTED BY IDOCK:   -5.41 KCAL/MOL
REMARK 923 INTER-LIGAND FREE ENERGY PREDICTED BY IDOCK:   -4.74 KCAL/MOL
REMARK 924 INTRA-LIGAND FREE ENERGY PREDICTED BY IDOCK:   -0.67 KCAL/MOL
REMARK 927      BINDING AFFINITY PREDICTED BY RF-SCORE:    0.00 PKD
ROOT
HETATM    1  C   UNL     1      -7.592   8.202  68.679  1.00  0.00    -0.103 C  
HETATM    2  C   UNL     1      -8.558   8.636  67.573  1.00  0.00    -0.135 C  
ENDROOT
BRANCH   2   3
HETATM    3  N   UNL     1      -7.927   9.138  66.329  1.00  0.00    -0.102 NA 
BRANCH   3   4
HETATM    4  C   UNL     1      -7.963   8.120  65.267  1.00  0.00    -0.126 C  
HETATM    5  C   UNL     1      -6.686   7.319  65.044  1.00  0.00    -0.047 C  
ENDBRANCH   3   4
BRANCH   3   6
HETATM    6  C   UNL     1      -8.465  10.483  65.923  1.00  0.00    -0.162 C  
HETATM    7  C   UNL     1      -9.220  10.321  64.572  1.00  0.00    -0.295 C  
BRANCH   6   8
HETATM    8  C   UNL     1      -9.506  11.209  66.869  1.00  0.00    -0.185 C  
BRANCH   8   9
HETATM    9  N   UNL     1      -9.492  12.704  66.910  1.00  0.00    -0.222 NA 
HETATM   10  C   UNL     1      -8.416  13.314  67.621  1.00  0.00    -0.191 A  
HETATM   11  C   UNL     1      -7.687  12.636  68.623  1.00  0.00    -0.066 A  
HETATM   12  C   UNL     1      -6.488  13.134  69.145  1.00  0.00    -0.107 A  
HETATM   13  C   UNL     1      -5.998  14.353  68.708  1.00  0.00    -0.084 A  
HETATM   14  C   UNL     1      -6.758  15.105  67.821  1.00  0.00    -0.185 A  
HETATM   15  C   UNL     1      -7.976  14.617  67.311  1.00  0.00    -0.197 A  
HETATM   16  S   UNL     1      -8.863  15.733  66.258  1.00  0.00    -0.311 SA 
HETATM   17  C   UNL     1     -10.286  14.774  65.797  1.00  0.00    -0.340 A  
HETATM   18  C   UNL     1     -11.231  15.460  65.008  1.00  0.00    -0.393 A  
HETATM   19  C   UNL     1     -12.336  14.801  64.479  1.00  0.00    -0.384 A  
HETATM   20  C   UNL     1     -12.501  13.454  64.747  1.00  0.00    -0.416 A  
HETATM   21  C   UNL     1     -11.582  12.773  65.554  1.00  0.00    -0.400 A  
HETATM   22  C   UNL     1     -10.440  13.402  66.102  1.00  0.00    -0.295 A  
ENDBRANCH   8   9
ENDBRANCH   6   8
ENDBRANCH   3   6
ENDBRANCH   2   3
TORSDOF 5
ENDMDL
MODEL      173
REMARK 921   NORMALIZED FREE ENERGY PREDICTED BY IDOCK:   -3.55 KCAL/MOL
REMARK 922        TOTAL FREE ENERGY PREDICTED BY IDOCK:   -5.40 KCAL/MOL
REMARK 923 INTER-LIGAND FREE ENERGY PREDICTED BY IDOCK:   -4.25 KCAL/MOL
REMARK 924 INTRA-LIGAND FREE ENERGY PREDICTED BY IDOCK:   -1.15 KCAL/MOL
REMARK 927      BINDING AFFINITY PREDICTED BY RF-SCORE:    0.00 PKD
ROOT
HETATM    1  C   UNL     1     -10.979  10.088  69.334  1.00  0.00    -0.280 C  
HETATM    2  C   UNL     1      -9.677  10.776  68.915  1.00  0.00    -0.198 C  
ENDROOT
BRANCH   2   3
HETATM    3  N   UNL     1      -8.826  10.018  67.968  1.00  0.00    -0.125 NA 
BRANCH   3   4
HETATM    4  C   UNL     1      -8.874  10.608  66.620  1.00  0.00    -0.141 C  
HETATM    5  C   UNL     1      -9.900  10.028  65.655  1.00  0.00    -0.363 C  
ENDBRANCH   3   4
BRANCH   3   6
HETATM    6  C   UNL     1      -7.437   9.799  68.504  1.00  0.00    -0.079 C  
HETATM    7  C   UNL     1      -7.191  10.818  69.653  1.00  0.00    -0.127 C  
BRANCH   6   8
HETATM    8  C   UNL     1      -7.073   8.396  69.140  1.00  0.00    -0.064 C  
BRANCH   8   9
HETATM    9  N   UNL     1      -8.175   7.400  69.316  1.00  0.00    -0.129 NA 
HETATM   10  C   UNL     1      -8.851   7.409  70.573  1.00  0.00    -0.148 A  
HETATM   11  C   UNL     1      -8.266   7.936  71.746  1.00  0.00    -0.139 A  
HETATM   12  C   UNL     1      -9.005   8.172  72.911  1.00  0.00    -0.328 A  
HETATM   13  C   UNL     1     -10.350   7.849  72.954  1.00  0.00    -0.413 A  
HETATM   14  C   UNL     1     -10.923   7.209  71.863  1.00  0.00    -0.262 A  
HETATM   15  C   UNL     1     -10.178   6.949  70.697  1.00  0.00    -0.195 A  
HETATM   16  S   UNL     1     -11.033   6.052  69.430  1.00  0.00    -0.363 SA 
HETATM   17  C   UNL     1      -9.812   5.953  68.142  1.00  0.00    -0.133 A  
HETATM   18  C   UNL     1     -10.201   5.200  67.016  1.00  0.00    -0.265 A  
HETATM   19  C   UNL     1      -9.394   5.133  65.885  1.00  0.00    -0.167 A  
HETATM   20  C   UNL     1      -8.189   5.815  65.883  1.00  0.00    -0.121 A  
HETATM   21  C   UNL     1      -7.784   6.541  67.009  1.00  0.00    -0.100 A  
HETATM   22  C   UNL     1      -8.579   6.644  68.174  1.00  0.00    -0.115 A  
ENDBRANCH   8   9
ENDBRANCH   6   8
ENDBRANCH   3   6
ENDBRANCH   2   3
TORSDOF 5
ENDMDL
MODEL      174
REMARK 921   NORMALIZED FREE ENERGY PREDICTED BY IDOCK:   -3.54 KCAL/MOL
REMARK 922        TOTAL FREE ENERGY PREDICTED BY IDOCK:   -5.40 KCAL/MOL
REMARK 923 INTER-LIGAND FREE ENERGY PREDICTED BY IDOCK:   -5.04 KCAL/MOL
REMARK 924 INTRA-LIGAND FREE ENERGY PREDICTED BY IDOCK:   -0.35 KCAL/MOL
REMARK 927      BINDING AFFINITY PREDICTED BY RF-SCORE:    0.00 PKD
ROOT
HETATM    1  C   UNL     1      -7.050   4.157  67.785  1.00  0.00    -0.060 C  
HETATM    2  C   UNL     1      -8.441   4.696  68.129  1.00  0.00    -0.101 C  
ENDROOT
BRANCH   2   3
HETATM    3  N   UNL     1      -9.100   5.494  67.067  1.00  0.00    -0.112 NA 
BRANCH   3   4
HETATM    4  C   UNL     1     -10.048   4.673  66.297  1.00  0.00    -0.265 C  
HETATM    5  C   UNL     1      -9.515   4.022  65.027  1.00  0.00    -0.172 C  
ENDBRANCH   3   4
BRANCH   3   6
HETATM    6  C   UNL     1      -9.675   6.779  67.599  1.00  0.00    -0.126 C  
HETATM    7  C   UNL     1     -10.975   6.444  68.386  1.00  0.00    -0.390 C  
BRANCH   6   8
HETATM    8  C   UNL     1      -8.816   7.643  68.609  1.00  0.00    -0.127 C  
BRANCH   8   9
HETATM    9  N   UNL     1      -9.545   8.446  69.639  1.00  0.00    -0.163 NA 
HETATM   10  C   UNL     1     -10.138   9.667  69.198  1.00  0.00    -0.189 A  
HETATM   11  C   UNL     1      -9.699  10.349  68.042  1.00  0.00    -0.166 A  
HETATM   12  C   UNL     1     -10.425  11.400  67.469  1.00  0.00    -0.233 A  
HETATM   13  C   UNL     1     -11.600  11.829  68.061  1.00  0.00    -0.386 A  
HETATM   14  C   UNL     1     -11.990  11.267  69.270  1.00  0.00    -0.411 A  
HETATM   15  C   UNL     1     -11.250  10.225  69.861  1.00  0.00    -0.299 A  
HETATM   16  S   UNL     1     -11.834   9.675  71.441  1.00  0.00    -0.421 SA 
HETATM   17  C   UNL     1     -10.697   8.367  71.834  1.00  0.00    -0.303 A  
HETATM   18  C   UNL     1     -10.878   7.790  73.107  1.00  0.00    -0.401 A  
HETATM   19  C   UNL     1     -10.138   6.681  73.503  1.00  0.00    -0.272 A  
HETATM   20  C   UNL     1      -9.207   6.153  72.627  1.00  0.00    -0.140 A  
HETATM   21  C   UNL     1      -9.001   6.739  71.372  1.00  0.00    -0.142 A  
HETATM   22  C   UNL     1      -9.740   7.859  70.926  1.00  0.00    -0.164 A  
ENDBRANCH   8   9
ENDBRANCH   6   8
ENDBRANCH   3   6
ENDBRANCH   2   3
TORSDOF 5
ENDMDL
MODEL      175
REMARK 921   NORMALIZED FREE ENERGY PREDICTED BY IDOCK:   -3.54 KCAL/MOL
REMARK 922        TOTAL FREE ENERGY PREDICTED BY IDOCK:   -5.39 KCAL/MOL
REMARK 923 INTER-LIGAND FREE ENERGY PREDICTED BY IDOCK:   -5.05 KCAL/MOL
REMARK 924 INTRA-LIGAND FREE ENERGY PREDICTED BY IDOCK:   -0.34 KCAL/MOL
REMARK 927      BINDING AFFINITY PREDICTED BY RF-SCORE:    0.00 PKD
ROOT
HETATM    1  C   UNL     1     -11.386  11.482  68.871  1.00  0.00    -0.331 C  
HETATM    2  C   UNL     1     -10.831  10.207  69.511  1.00  0.00    -0.255 C  
ENDROOT
BRANCH   2   3
HETATM    3  N   UNL     1     -11.348   9.890  70.864  1.00  0.00    -0.344 NA 
BRANCH   3   4
HETATM    4  C   UNL     1     -12.755  10.301  71.004  1.00  0.00    -0.396 C  
HETATM    5  C   UNL     1     -13.015  11.600  71.757  1.00  0.00    -0.483 C  
ENDBRANCH   3   4
BRANCH   3   6
HETATM    6  C   UNL     1     -11.073   8.463  71.256  1.00  0.00    -0.255 C  
HETATM    7  C   UNL     1     -11.852   8.157  72.567  1.00  0.00    -0.438 C  
BRANCH   6   8
HETATM    8  C   UNL     1     -11.497   7.301  70.268  1.00  0.00    -0.210 C  
BRANCH   8   9
HETATM    9  N   UNL     1     -10.419   6.427  69.712  1.00  0.00    -0.197 NA 
HETATM   10  C   UNL     1      -9.895   6.790  68.434  1.00  0.00    -0.136 A  
HETATM   11  C   UNL     1     -10.617   7.586  67.517  1.00  0.00    -0.331 A  
HETATM   12  C   UNL     1     -10.022   8.147  66.381  1.00  0.00    -0.238 A  
HETATM   13  C   UNL     1      -8.689   7.895  66.104  1.00  0.00    -0.181 A  
HETATM   14  C   UNL     1      -7.988   7.012  66.914  1.00  0.00    -0.115 A  
HETATM   15  C   UNL     1      -8.590   6.427  68.045  1.00  0.00    -0.117 A  
HETATM   16  S   UNL     1      -7.587   5.260  68.925  1.00  0.00    -0.082 SA 
HETATM   17  C   UNL     1      -8.647   4.782  70.268  1.00  0.00    -0.090 A  
HETATM   18  C   UNL     1      -8.125   3.774  71.103  1.00  0.00    -0.064 A  
HETATM   19  C   UNL     1      -8.793   3.383  72.259  1.00  0.00    -0.115 A  
HETATM   20  C   UNL     1      -9.992   3.996  72.576  1.00  0.00    -0.222 A  
HETATM   21  C   UNL     1     -10.531   4.978  71.737  1.00  0.00    -0.246 A  
HETATM   22  C   UNL     1      -9.879   5.412  70.559  1.00  0.00    -0.203 A  
ENDBRANCH   8   9
ENDBRANCH   6   8
ENDBRANCH   3   6
ENDBRANCH   2   3
TORSDOF 5
ENDMDL
MODEL      176
REMARK 921   NORMALIZED FREE ENERGY PREDICTED BY IDOCK:   -3.51 KCAL/MOL
REMARK 922        TOTAL FREE ENERGY PREDICTED BY IDOCK:   -5.36 KCAL/MOL
REMARK 923 INTER-LIGAND FREE ENERGY PREDICTED BY IDOCK:   -4.29 KCAL/MOL
REMARK 924 INTRA-LIGAND FREE ENERGY PREDICTED BY IDOCK:   -1.07 KCAL/MOL
REMARK 927      BINDING AFFINITY PREDICTED BY RF-SCORE:    0.00 PKD
ROOT
HETATM    1  C   UNL     1      -7.240   7.136  67.667  1.00  0.00    -0.091 C  
HETATM    2  C   UNL     1      -8.568   7.066  66.907  1.00  0.00    -0.120 C  
ENDROOT
BRANCH   2   3
HETATM    3  N   UNL     1      -9.786   7.306  67.718  1.00  0.00    -0.137 NA 
BRANCH   3   4
HETATM    4  C   UNL     1     -10.531   8.475  67.225  1.00  0.00    -0.296 C  
HETATM    5  C   UNL     1      -9.896   9.259  66.083  1.00  0.00    -0.363 C  
ENDBRANCH   3   4
BRANCH   3   6
HETATM    6  C   UNL     1     -10.613   6.060  67.879  1.00  0.00    -0.267 C  
HETATM    7  C   UNL     1     -10.130   5.014  66.833  1.00  0.00    -0.261 C  
BRANCH   6   8
HETATM    8  C   UNL     1     -10.572   5.284  69.257  1.00  0.00    -0.118 C  
BRANCH   8   9
HETATM    9  N   UNL     1     -10.261   6.067  70.493  1.00  0.00    -0.196 NA 
HETATM   10  C   UNL     1      -8.901   6.065  70.927  1.00  0.00    -0.135 A  
HETATM   11  C   UNL     1      -7.990   5.049  70.562  1.00  0.00    -0.081 A  
HETATM   12  C   UNL     1      -6.611   5.166  70.775  1.00  0.00    -0.035 A  
HETATM   13  C   UNL     1      -6.103   6.292  71.399  1.00  0.00    -0.040 A  
HETATM   14  C   UNL     1      -6.984   7.248  71.887  1.00  0.00    -0.059 A  
HETATM   15  C   UNL     1      -8.373   7.123  71.695  1.00  0.00    -0.110 A  
HETATM   16  S   UNL     1      -9.365   8.383  72.450  1.00  0.00    -0.279 SA 
HETATM   17  C   UNL     1     -11.010   7.914  71.969  1.00  0.00    -0.274 A  
HETATM   18  C   UNL     1     -12.035   8.714  72.512  1.00  0.00    -0.358 A  
HETATM   19  C   UNL     1     -13.361   8.537  72.132  1.00  0.00    -0.382 A  
HETATM   20  C   UNL     1     -13.664   7.550  71.210  1.00  0.00    -0.344 A  
HETATM   21  C   UNL     1     -12.655   6.733  70.688  1.00  0.00    -0.041 A  
HETATM   22  C   UNL     1     -11.294   6.888  71.039  1.00  0.00    -0.299 A  
ENDBRANCH   8   9
ENDBRANCH   6   8
ENDBRANCH   3   6
ENDBRANCH   2   3
TORSDOF 5
ENDMDL
MODEL      177
REMARK 921   NORMALIZED FREE ENERGY PREDICTED BY IDOCK:   -3.51 KCAL/MOL
REMARK 922        TOTAL FREE ENERGY PREDICTED BY IDOCK:   -5.35 KCAL/MOL
REMARK 923 INTER-LIGAND FREE ENERGY PREDICTED BY IDOCK:   -4.94 KCAL/MOL
REMARK 924 INTRA-LIGAND FREE ENERGY PREDICTED BY IDOCK:   -0.41 KCAL/MOL
REMARK 927      BINDING AFFINITY PREDICTED BY RF-SCORE:    0.00 PKD
ROOT
HETATM    1  C   UNL     1      -5.137  14.602  71.370  1.00  0.00    -0.142 C  
HETATM    2  C   UNL     1      -6.264  14.010  70.520  1.00  0.00    -0.114 C  
ENDROOT
BRANCH   2   3
HETATM    3  N   UNL     1      -7.009  14.978  69.678  1.00  0.00    -0.182 NA 
BRANCH   3   4
HETATM    4  C   UNL     1      -6.337  16.287  69.653  1.00  0.00    -0.198 C  
HETATM    5  C   UNL     1      -6.929  17.341  68.726  1.00  0.00    -0.230 C  
ENDBRANCH   3   4
BRANCH   3   6
HETATM    6  C   UNL     1      -7.332  14.416  68.320  1.00  0.00    -0.122 C  
HETATM    7  C   UNL     1      -6.062  13.706  67.770  1.00  0.00    -0.143 C  
BRANCH   6   8
HETATM    8  C   UNL     1      -8.475  13.328  68.193  1.00  0.00    -0.173 C  
BRANCH   8   9
HETATM    9  N   UNL     1      -9.001  13.021  66.828  1.00  0.00    -0.207 NA 
HETATM   10  C   UNL     1      -8.855  11.677  66.372  1.00  0.00    -0.182 A  
HETATM   11  C   UNL     1      -7.881  10.799  66.898  1.00  0.00    -0.130 A  
HETATM   12  C   UNL     1      -7.892   9.424  66.637  1.00  0.00    -0.104 A  
HETATM   13  C   UNL     1      -8.858   8.886  65.805  1.00  0.00    -0.223 A  
HETATM   14  C   UNL     1      -9.749   9.741  65.168  1.00  0.00    -0.338 A  
HETATM   15  C   UNL     1      -9.727  11.128  65.410  1.00  0.00    -0.231 A  
HETATM   16  S   UNL     1     -10.873  12.086  64.457  1.00  0.00    -0.336 SA 
HETATM   17  C   UNL     1     -10.580  13.734  65.052  1.00  0.00    -0.389 A  
HETATM   18  C   UNL     1     -11.314  14.741  64.392  1.00  0.00    -0.224 A  
HETATM   19  C   UNL     1     -11.273  16.060  64.828  1.00  0.00    -0.348 A  
HETATM   20  C   UNL     1     -10.488  16.378  65.923  1.00  0.00    -0.350 A  
HETATM   21  C   UNL     1      -9.734  15.389  66.565  1.00  0.00    -0.292 A  
HETATM   22  C   UNL     1      -9.756  14.034  66.162  1.00  0.00    -0.280 A  
ENDBRANCH   8   9
ENDBRANCH   6   8
ENDBRANCH   3   6
ENDBRANCH   2   3
TORSDOF 5
ENDMDL
MODEL      178
REMARK 921   NORMALIZED FREE ENERGY PREDICTED BY IDOCK:   -3.50 KCAL/MOL
REMARK 922        TOTAL FREE ENERGY PREDICTED BY IDOCK:   -5.34 KCAL/MOL
REMARK 923 INTER-LIGAND FREE ENERGY PREDICTED BY IDOCK:   -4.26 KCAL/MOL
REMARK 924 INTRA-LIGAND FREE ENERGY PREDICTED BY IDOCK:   -1.08 KCAL/MOL
REMARK 927      BINDING AFFINITY PREDICTED BY RF-SCORE:    0.00 PKD
ROOT
HETATM    1  C   UNL     1     -14.207   8.371  72.010  1.00  0.00    -0.528 C  
HETATM    2  C   UNL     1     -13.183   9.265  71.305  1.00  0.00    -0.261 C  
ENDROOT
BRANCH   2   3
HETATM    3  N   UNL     1     -11.794   8.748  71.270  1.00  0.00    -0.293 NA 
BRANCH   3   4
HETATM    4  C   UNL     1     -11.774   7.276  71.308  1.00  0.00    -0.296 C  
HETATM    5  C   UNL     1     -11.648   6.560  69.970  1.00  0.00    -0.455 C  
ENDBRANCH   3   4
BRANCH   3   6
HETATM    6  C   UNL     1     -10.992   9.354  70.151  1.00  0.00    -0.246 C  
HETATM    7  C   UNL     1     -11.560  10.772  69.855  1.00  0.00    -0.410 C  
BRANCH   6   8
HETATM    8  C   UNL     1      -9.440   9.589  70.361  1.00  0.00    -0.262 C  
BRANCH   8   9
HETATM    9  N   UNL     1      -8.493   8.840  69.479  1.00  0.00    -0.125 NA 
HETATM   10  C   UNL     1      -8.139   7.521  69.895  1.00  0.00    -0.129 A  
HETATM   11  C   UNL     1      -8.243   7.095  71.237  1.00  0.00    -0.108 A  
HETATM   12  C   UNL     1      -8.136   5.749  71.607  1.00  0.00    -0.118 A  
HETATM   13  C   UNL     1      -7.880   4.787  70.646  1.00  0.00    -0.069 A  
HETATM   14  C   UNL     1      -7.644   5.189  69.338  1.00  0.00    -0.061 A  
HETATM   15  C   UNL     1      -7.727   6.544  68.965  1.00  0.00    -0.109 A  
HETATM   16  S   UNL     1      -7.315   6.899  67.279  1.00  0.00    -0.093 SA 
HETATM   17  C   UNL     1      -7.568   8.655  67.185  1.00  0.00    -0.092 A  
HETATM   18  C   UNL     1      -7.226   9.236  65.947  1.00  0.00    -0.091 A  
HETATM   19  C   UNL     1      -7.480  10.580  65.692  1.00  0.00    -0.129 A  
HETATM   20  C   UNL     1      -8.069  11.348  66.681  1.00  0.00    -0.155 A  
HETATM   21  C   UNL     1      -8.385  10.784  67.923  1.00  0.00    -0.117 A  
HETATM   22  C   UNL     1      -8.154   9.421  68.219  1.00  0.00    -0.109 A  
ENDBRANCH   8   9
ENDBRANCH   6   8
ENDBRANCH   3   6
ENDBRANCH   2   3
TORSDOF 5
ENDMDL
MODEL      179
REMARK 921   NORMALIZED FREE ENERGY PREDICTED BY IDOCK:   -3.45 KCAL/MOL
REMARK 922        TOTAL FREE ENERGY PREDICTED BY IDOCK:   -5.28 KCAL/MOL
REMARK 923 INTER-LIGAND FREE ENERGY PREDICTED BY IDOCK:   -4.57 KCAL/MOL
REMARK 924 INTRA-LIGAND FREE ENERGY PREDICTED BY IDOCK:   -0.71 KCAL/MOL
REMARK 927      BINDING AFFINITY PREDICTED BY RF-SCORE:    0.00 PKD
ROOT
HETATM    1  C   UNL     1      -8.358   8.887  64.694  1.00  0.00    -0.179 C  
HETATM    2  C   UNL     1      -8.299   7.644  65.585  1.00  0.00    -0.140 C  
ENDROOT
BRANCH   2   3
HETATM    3  N   UNL     1      -8.959   7.770  66.907  1.00  0.00    -0.128 NA 
BRANCH   3   4
HETATM    4  C   UNL     1     -10.425   7.725  66.775  1.00  0.00    -0.248 C  
HETATM    5  C   UNL     1     -11.124   6.492  67.334  1.00  0.00    -0.411 C  
ENDBRANCH   3   4
BRANCH   3   6
HETATM    6  C   UNL     1      -8.393   6.808  67.916  1.00  0.00    -0.120 C  
HETATM    7  C   UNL     1      -6.972   6.385  67.445  1.00  0.00    -0.075 C  
BRANCH   6   8
HETATM    8  C   UNL     1      -8.182   7.298  69.406  1.00  0.00    -0.131 C  
BRANCH   8   9
HETATM    9  N   UNL     1      -9.304   7.099  70.375  1.00  0.00    -0.159 NA 
HETATM   10  C   UNL     1      -9.320   5.864  71.090  1.00  0.00    -0.153 A  
HETATM   11  C   UNL     1      -8.663   4.706  70.620  1.00  0.00    -0.129 A  
HETATM   12  C   UNL     1      -8.467   3.576  71.423  1.00  0.00    -0.093 A  
HETATM   13  C   UNL     1      -8.961   3.554  72.716  1.00  0.00    -0.113 A  
HETATM   14  C   UNL     1      -9.725   4.624  73.163  1.00  0.00    -0.158 A  
HETATM   15  C   UNL     1      -9.944   5.753  72.350  1.00  0.00    -0.169 A  
HETATM   16  S   UNL     1     -11.007   6.993  73.037  1.00  0.00    -0.272 SA 
HETATM   17  C   UNL     1     -11.010   8.238  71.769  1.00  0.00    -0.278 A  
HETATM   18  C   UNL     1     -11.863   9.333  72.017  1.00  0.00    -0.370 A  
HETATM   19  C   UNL     1     -11.880  10.435  71.170  1.00  0.00    -0.432 A  
HETATM   20  C   UNL     1     -11.047  10.440  70.064  1.00  0.00    -0.379 A  
HETATM   21  C   UNL     1     -10.219   9.344  69.796  1.00  0.00    -0.238 A  
HETATM   22  C   UNL     1     -10.162   8.209  70.638  1.00  0.00    -0.196 A  
ENDBRANCH   8   9
ENDBRANCH   6   8
ENDBRANCH   3   6
ENDBRANCH   2   3
TORSDOF 5
ENDMDL
MODEL      180
REMARK 921   NORMALIZED FREE ENERGY PREDICTED BY IDOCK:   -3.45 KCAL/MOL
REMARK 922        TOTAL FREE ENERGY PREDICTED BY IDOCK:   -5.28 KCAL/MOL
REMARK 923 INTER-LIGAND FREE ENERGY PREDICTED BY IDOCK:   -5.00 KCAL/MOL
REMARK 924 INTRA-LIGAND FREE ENERGY PREDICTED BY IDOCK:   -0.27 KCAL/MOL
REMARK 927      BINDING AFFINITY PREDICTED BY RF-SCORE:    0.00 PKD
ROOT
HETATM    1  C   UNL     1     -11.319  11.576  68.232  1.00  0.00    -0.352 C  
HETATM    2  C   UNL     1     -11.453  10.356  69.146  1.00  0.00    -0.196 C  
ENDROOT
BRANCH   2   3
HETATM    3  N   UNL     1     -11.485  10.643  70.600  1.00  0.00    -0.326 NA 
BRANCH   3   4
HETATM    4  C   UNL     1     -12.734  11.323  70.980  1.00  0.00    -0.359 C  
HETATM    5  C   UNL     1     -12.625  12.797  71.349  1.00  0.00    -0.308 C  
ENDBRANCH   3   4
BRANCH   3   6
HETATM    6  C   UNL     1     -11.160   9.427  71.425  1.00  0.00    -0.380 C  
HETATM    7  C   UNL     1     -11.931   8.213  70.831  1.00  0.00    -0.195 C  
BRANCH   6   8
HETATM    8  C   UNL     1      -9.658   8.935  71.507  1.00  0.00    -0.292 C  
BRANCH   8   9
HETATM    9  N   UNL     1      -9.367   7.511  71.156  1.00  0.00    -0.151 NA 
HETATM   10  C   UNL     1      -9.640   6.535  72.162  1.00  0.00    -0.148 A  
HETATM   11  C   UNL     1      -9.707   6.860  73.535  1.00  0.00    -0.250 A  
HETATM   12  C   UNL     1     -10.211   5.971  74.492  1.00  0.00    -0.307 A  
HETATM   13  C   UNL     1     -10.630   4.709  74.109  1.00  0.00    -0.348 A  
HETATM   14  C   UNL     1     -10.455   4.313  72.789  1.00  0.00    -0.249 A  
HETATM   15  C   UNL     1      -9.926   5.196  71.828  1.00  0.00    -0.187 A  
HETATM   16  S   UNL     1      -9.691   4.511  70.211  1.00  0.00    -0.227 SA 
HETATM   17  C   UNL     1      -9.061   5.898  69.296  1.00  0.00    -0.123 A  
HETATM   18  C   UNL     1      -8.697   5.612  67.965  1.00  0.00    -0.099 A  
HETATM   19  C   UNL     1      -8.299   6.624  67.098  1.00  0.00    -0.113 A  
HETATM   20  C   UNL     1      -8.256   7.926  67.566  1.00  0.00    -0.124 A  
HETATM   21  C   UNL     1      -8.589   8.213  68.895  1.00  0.00    -0.130 A  
HETATM   22  C   UNL     1      -9.010   7.216  69.805  1.00  0.00    -0.142 A  
ENDBRANCH   8   9
ENDBRANCH   6   8
ENDBRANCH   3   6
ENDBRANCH   2   3
TORSDOF 5
ENDMDL
MODEL      181
REMARK 921   NORMALIZED FREE ENERGY PREDICTED BY IDOCK:   -3.45 KCAL/MOL
REMARK 922        TOTAL FREE ENERGY PREDICTED BY IDOCK:   -5.28 KCAL/MOL
REMARK 923 INTER-LIGAND FREE ENERGY PREDICTED BY IDOCK:   -4.50 KCAL/MOL
REMARK 924 INTRA-LIGAND FREE ENERGY PREDICTED BY IDOCK:   -0.77 KCAL/MOL
REMARK 927      BINDING AFFINITY PREDICTED BY RF-SCORE:    0.00 PKD
ROOT
HETATM    1  C   UNL     1      -9.092   4.315  71.080  1.00  0.00    -0.181 C  
HETATM    2  C   UNL     1     -10.222   4.748  70.142  1.00  0.00    -0.189 C  
ENDROOT
BRANCH   2   3
HETATM    3  N   UNL     1      -9.922   5.908  69.269  1.00  0.00    -0.162 NA 
BRANCH   3   4
HETATM    4  C   UNL     1     -10.055   5.551  67.847  1.00  0.00    -0.176 C  
HETATM    5  C   UNL     1     -11.020   6.390  67.019  1.00  0.00    -0.463 C  
ENDBRANCH   3   4
BRANCH   3   6
HETATM    6  C   UNL     1     -10.686   7.138  69.678  1.00  0.00    -0.239 C  
HETATM    7  C   UNL     1     -11.785   6.715  70.694  1.00  0.00    -0.452 C  
BRANCH   6   8
HETATM    8  C   UNL     1      -9.914   8.315  70.403  1.00  0.00    -0.188 C  
BRANCH   8   9
HETATM    9  N   UNL     1      -9.332   9.399  69.553  1.00  0.00    -0.170 NA 
HETATM   10  C   UNL     1      -8.074   9.124  68.937  1.00  0.00    -0.100 A  
HETATM   11  C   UNL     1      -7.183   8.148  69.435  1.00  0.00    -0.067 A  
HETATM   12  C   UNL     1      -6.074   7.704  68.706  1.00  0.00    -0.031 A  
HETATM   13  C   UNL     1      -5.797   8.254  67.466  1.00  0.00    -0.043 A  
HETATM   14  C   UNL     1      -6.578   9.307  67.007  1.00  0.00    -0.068 A  
HETATM   15  C   UNL     1      -7.682   9.772  67.748  1.00  0.00    -0.091 A  
HETATM   16  S   UNL     1      -8.523  11.174  67.065  1.00  0.00    -0.151 SA 
HETATM   17  C   UNL     1      -9.839  11.435  68.230  1.00  0.00    -0.200 A  
HETATM   18  C   UNL     1     -10.638  12.568  67.975  1.00  0.00    -0.237 A  
HETATM   19  C   UNL     1     -11.773  12.830  68.735  1.00  0.00    -0.363 A  
HETATM   20  C   UNL     1     -12.105  11.962  69.761  1.00  0.00    -0.321 A  
HETATM   21  C   UNL     1     -11.299  10.851  70.038  1.00  0.00    -0.386 A  
HETATM   22  C   UNL     1     -10.145  10.542  69.283  1.00  0.00    -0.224 A  
ENDBRANCH   8   9
ENDBRANCH   6   8
ENDBRANCH   3   6
ENDBRANCH   2   3
TORSDOF 5
ENDMDL
MODEL      182
REMARK 921   NORMALIZED FREE ENERGY PREDICTED BY IDOCK:   -3.45 KCAL/MOL
REMARK 922        TOTAL FREE ENERGY PREDICTED BY IDOCK:   -5.27 KCAL/MOL
REMARK 923 INTER-LIGAND FREE ENERGY PREDICTED BY IDOCK:   -3.93 KCAL/MOL
REMARK 924 INTRA-LIGAND FREE ENERGY PREDICTED BY IDOCK:   -1.34 KCAL/MOL
REMARK 927      BINDING AFFINITY PREDICTED BY RF-SCORE:    0.00 PKD
ROOT
HETATM    1  C   UNL     1      -7.621  10.173  70.107  1.00  0.00    -0.119 C  
HETATM    2  C   UNL     1      -8.137   9.222  71.192  1.00  0.00     0.010 C  
ENDROOT
BRANCH   2   3
HETATM    3  N   UNL     1      -8.547   7.877  70.724  1.00  0.00    -0.130 NA 
BRANCH   3   4
HETATM    4  C   UNL     1      -7.567   6.854  71.125  1.00  0.00    -0.087 C  
HETATM    5  C   UNL     1      -7.992   5.400  70.963  1.00  0.00    -0.105 C  
ENDBRANCH   3   4
BRANCH   3   6
HETATM    6  C   UNL     1      -9.970   7.557  71.093  1.00  0.00    -0.180 C  
HETATM    7  C   UNL     1     -10.457   8.617  72.123  1.00  0.00    -0.411 C  
BRANCH   6   8
HETATM    8  C   UNL     1     -11.077   7.572  69.963  1.00  0.00    -0.204 C  
BRANCH   8   9
HETATM    9  N   UNL     1     -10.651   7.905  68.569  1.00  0.00    -0.154 NA 
HETATM   10  C   UNL     1     -10.639   9.288  68.216  1.00  0.00    -0.189 A  
HETATM   11  C   UNL     1     -11.410  10.252  68.902  1.00  0.00    -0.230 A  
HETATM   12  C   UNL     1     -11.218  11.628  68.727  1.00  0.00    -0.304 A  
HETATM   13  C   UNL     1     -10.271  12.084  67.827  1.00  0.00    -0.211 A  
HETATM   14  C   UNL     1      -9.588  11.163  67.043  1.00  0.00    -0.201 A  
HETATM   15  C   UNL     1      -9.795   9.779  67.199  1.00  0.00    -0.188 A  
HETATM   16  S   UNL     1      -8.910   8.743  66.066  1.00  0.00    -0.187 SA 
HETATM   17  C   UNL     1      -9.387   7.112  66.587  1.00  0.00    -0.166 A  
HETATM   18  C   UNL     1      -8.883   6.066  65.788  1.00  0.00    -0.143 A  
HETATM   19  C   UNL     1      -9.079   4.736  66.143  1.00  0.00    -0.129 A  
HETATM   20  C   UNL     1      -9.788   4.450  67.297  1.00  0.00    -0.207 A  
HETATM   21  C   UNL     1     -10.315   5.484  68.080  1.00  0.00    -0.237 A  
HETATM   22  C   UNL     1     -10.130   6.849  67.761  1.00  0.00    -0.161 A  
ENDBRANCH   8   9
ENDBRANCH   6   8
ENDBRANCH   3   6
ENDBRANCH   2   3
TORSDOF 5
ENDMDL
MODEL      183
REMARK 921   NORMALIZED FREE ENERGY PREDICTED BY IDOCK:   -3.44 KCAL/MOL
REMARK 922        TOTAL FREE ENERGY PREDICTED BY IDOCK:   -5.26 KCAL/MOL
REMARK 923 INTER-LIGAND FREE ENERGY PREDICTED BY IDOCK:   -4.98 KCAL/MOL
REMARK 924 INTRA-LIGAND FREE ENERGY PREDICTED BY IDOCK:   -0.28 KCAL/MOL
REMARK 927      BINDING AFFINITY PREDICTED BY RF-SCORE:    0.00 PKD
ROOT
HETATM    1  C   UNL     1      -7.033   8.156  64.407  1.00  0.00    -0.076 C  
HETATM    2  C   UNL     1      -8.106   8.354  65.482  1.00  0.00    -0.129 C  
ENDROOT
BRANCH   2   3
HETATM    3  N   UNL     1      -8.011   7.455  66.657  1.00  0.00    -0.118 NA 
BRANCH   3   4
HETATM    4  C   UNL     1      -6.641   6.943  66.825  1.00  0.00    -0.048 C  
HETATM    5  C   UNL     1      -6.491   5.624  67.573  1.00  0.00    -0.047 C  
ENDBRANCH   3   4
BRANCH   3   6
HETATM    6  C   UNL     1      -8.601   8.076  67.894  1.00  0.00    -0.129 C  
HETATM    7  C   UNL     1      -7.620   9.168  68.409  1.00  0.00    -0.083 C  
BRANCH   6   8
HETATM    8  C   UNL     1      -9.995   8.819  67.788  1.00  0.00    -0.194 C  
BRANCH   8   9
HETATM    9  N   UNL     1     -10.585   9.383  69.041  1.00  0.00    -0.220 NA 
HETATM   10  C   UNL     1     -10.711  10.804  69.106  1.00  0.00    -0.227 A  
HETATM   11  C   UNL     1      -9.925  11.672  68.317  1.00  0.00    -0.201 A  
HETATM   12  C   UNL     1     -10.210  13.037  68.194  1.00  0.00    -0.239 A  
HETATM   13  C   UNL     1     -11.271  13.587  68.891  1.00  0.00    -0.316 A  
HETATM   14  C   UNL     1     -11.982  12.787  69.776  1.00  0.00    -0.362 A  
HETATM   15  C   UNL     1     -11.684  11.418  69.921  1.00  0.00    -0.346 A  
HETATM   16  S   UNL     1     -12.627  10.558  71.150  1.00  0.00    -0.453 SA 
HETATM   17  C   UNL     1     -12.008   8.898  71.014  1.00  0.00    -0.261 A  
HETATM   18  C   UNL     1     -12.535   7.991  71.955  1.00  0.00    -0.357 A  
HETATM   19  C   UNL     1     -12.230   6.636  71.894  1.00  0.00    -0.381 A  
HETATM   20  C   UNL     1     -11.387   6.186  70.893  1.00  0.00    -0.355 A  
HETATM   21  C   UNL     1     -10.837   7.085  69.972  1.00  0.00    -0.290 A  
HETATM   22  C   UNL     1     -11.131   8.468  69.992  1.00  0.00    -0.151 A  
ENDBRANCH   8   9
ENDBRANCH   6   8
ENDBRANCH   3   6
ENDBRANCH   2   3
TORSDOF 5
ENDMDL
MODEL      184
REMARK 921   NORMALIZED FREE ENERGY PREDICTED BY IDOCK:   -3.44 KCAL/MOL
REMARK 922        TOTAL FREE ENERGY PREDICTED BY IDOCK:   -5.26 KCAL/MOL
REMARK 923 INTER-LIGAND FREE ENERGY PREDICTED BY IDOCK:   -4.98 KCAL/MOL
REMARK 924 INTRA-LIGAND FREE ENERGY PREDICTED BY IDOCK:   -0.28 KCAL/MOL
REMARK 927      BINDING AFFINITY PREDICTED BY RF-SCORE:    0.00 PKD
ROOT
HETATM    1  C   UNL     1     -10.603  12.358  67.792  1.00  0.00    -0.236 C  
HETATM    2  C   UNL     1      -9.465  11.691  67.015  1.00  0.00    -0.182 C  
ENDROOT
BRANCH   2   3
HETATM    3  N   UNL     1      -9.882  10.747  65.950  1.00  0.00    -0.227 NA 
BRANCH   3   4
HETATM    4  C   UNL     1      -9.323  11.138  64.646  1.00  0.00    -0.175 C  
HETATM    5  C   UNL     1     -10.180  10.850  63.420  1.00  0.00    -0.356 C  
ENDBRANCH   3   4
BRANCH   3   6
HETATM    6  C   UNL     1      -9.632   9.314  66.333  1.00  0.00    -0.238 C  
HETATM    7  C   UNL     1      -8.410   9.271  67.295  1.00  0.00    -0.125 C  
BRANCH   6   8
HETATM    8  C   UNL     1     -10.763   8.517  67.102  1.00  0.00    -0.139 C  
BRANCH   8   9
HETATM    9  N   UNL     1     -10.343   7.561  68.172  1.00  0.00    -0.196 NA 
HETATM   10  C   UNL     1     -10.571   7.970  69.521  1.00  0.00    -0.214 A  
HETATM   11  C   UNL     1     -10.715   9.326  69.888  1.00  0.00    -0.253 A  
HETATM   12  C   UNL     1     -11.179   9.715  71.150  1.00  0.00    -0.454 A  
HETATM   13  C   UNL     1     -11.478   8.756  72.102  1.00  0.00    -0.421 A  
HETATM   14  C   UNL     1     -11.223   7.422  71.816  1.00  0.00    -0.277 A  
HETATM   15  C   UNL     1     -10.734   7.027  70.556  1.00  0.00    -0.238 A  
HETATM   16  S   UNL     1     -10.383   5.299  70.381  1.00  0.00    -0.254 SA 
HETATM   17  C   UNL     1      -9.837   5.189  68.694  1.00  0.00    -0.160 A  
HETATM   18  C   UNL     1      -9.402   3.909  68.295  1.00  0.00    -0.221 A  
HETATM   19  C   UNL     1      -9.058   3.649  66.973  1.00  0.00    -0.186 A  
HETATM   20  C   UNL     1      -9.139   4.674  66.048  1.00  0.00    -0.131 A  
HETATM   21  C   UNL     1      -9.543   5.955  66.442  1.00  0.00    -0.173 A  
HETATM   22  C   UNL     1      -9.913   6.259  67.772  1.00  0.00    -0.127 A  
ENDBRANCH   8   9
ENDBRANCH   6   8
ENDBRANCH   3   6
ENDBRANCH   2   3
TORSDOF 5
ENDMDL
MODEL      185
REMARK 921   NORMALIZED FREE ENERGY PREDICTED BY IDOCK:   -3.43 KCAL/MOL
REMARK 922        TOTAL FREE ENERGY PREDICTED BY IDOCK:   -5.25 KCAL/MOL
REMARK 923 INTER-LIGAND FREE ENERGY PREDICTED BY IDOCK:   -4.06 KCAL/MOL
REMARK 924 INTRA-LIGAND FREE ENERGY PREDICTED BY IDOCK:   -1.19 KCAL/MOL
REMARK 927      BINDING AFFINITY PREDICTED BY RF-SCORE:    0.00 PKD
ROOT
HETATM    1  C   UNL     1      -6.613   6.553  67.982  1.00  0.00    -0.062 C  
HETATM    2  C   UNL     1      -8.004   7.027  67.551  1.00  0.00    -0.113 C  
ENDROOT
BRANCH   2   3
HETATM    3  N   UNL     1      -8.827   7.653  68.614  1.00  0.00    -0.128 NA 
BRANCH   3   4
HETATM    4  C   UNL     1      -8.419   9.047  68.850  1.00  0.00    -0.130 C  
HETATM    5  C   UNL     1      -9.237   9.836  69.865  1.00  0.00    -0.263 C  
ENDBRANCH   3   4
BRANCH   3   6
HETATM    6  C   UNL     1     -10.301   7.465  68.375  1.00  0.00    -0.194 C  
HETATM    7  C   UNL     1     -10.533   7.330  66.843  1.00  0.00    -0.369 C  
BRANCH   6   8
HETATM    8  C   UNL     1     -11.023   6.199  68.994  1.00  0.00    -0.367 C  
BRANCH   8   9
HETATM    9  N   UNL     1     -10.283   5.403  70.021  1.00  0.00    -0.255 NA 
HETATM   10  C   UNL     1      -9.516   4.297  69.543  1.00  0.00    -0.187 A  
HETATM   11  C   UNL     1      -9.783   3.666  68.308  1.00  0.00    -0.082 A  
HETATM   12  C   UNL     1      -8.896   2.754  67.725  1.00  0.00    -0.166 A  
HETATM   13  C   UNL     1      -7.726   2.414  68.381  1.00  0.00    -0.054 A  
HETATM   14  C   UNL     1      -7.497   2.917  69.655  1.00  0.00    -0.044 A  
HETATM   15  C   UNL     1      -8.399   3.816  70.256  1.00  0.00    -0.056 A  
HETATM   16  S   UNL     1      -8.004   4.298  71.915  1.00  0.00    -0.090 SA 
HETATM   17  C   UNL     1      -9.316   5.433  72.304  1.00  0.00    -0.142 A  
HETATM   18  C   UNL     1      -9.301   5.921  73.627  1.00  0.00    -0.134 A  
HETATM   19  C   UNL     1     -10.196   6.903  74.038  1.00  0.00    -0.384 A  
HETATM   20  C   UNL     1     -11.116   7.392  73.127  1.00  0.00    -0.357 A  
HETATM   21  C   UNL     1     -11.155   6.891  71.820  1.00  0.00    -0.275 A  
HETATM   22  C   UNL     1     -10.256   5.902  71.358  1.00  0.00    -0.211 A  
ENDBRANCH   8   9
ENDBRANCH   6   8
ENDBRANCH   3   6
ENDBRANCH   2   3
TORSDOF 5
ENDMDL
MODEL      186
REMARK 921   NORMALIZED FREE ENERGY PREDICTED BY IDOCK:   -3.42 KCAL/MOL
REMARK 922        TOTAL FREE ENERGY PREDICTED BY IDOCK:   -5.24 KCAL/MOL
REMARK 923 INTER-LIGAND FREE ENERGY PREDICTED BY IDOCK:   -4.84 KCAL/MOL
REMARK 924 INTRA-LIGAND FREE ENERGY PREDICTED BY IDOCK:   -0.40 KCAL/MOL
REMARK 927      BINDING AFFINITY PREDICTED BY RF-SCORE:    0.00 PKD
ROOT
HETATM    1  C   UNL     1      -6.860   4.712  66.403  1.00  0.00    -0.058 C  
HETATM    2  C   UNL     1      -7.659   4.800  67.706  1.00  0.00    -0.082 C  
ENDROOT
BRANCH   2   3
HETATM    3  N   UNL     1      -9.104   5.093  67.555  1.00  0.00    -0.113 NA 
BRANCH   3   4
HETATM    4  C   UNL     1      -9.847   4.742  68.776  1.00  0.00    -0.148 C  
HETATM    5  C   UNL     1      -9.582   3.362  69.365  1.00  0.00    -0.143 C  
ENDBRANCH   3   4
BRANCH   3   6
HETATM    6  C   UNL     1      -9.349   6.491  67.055  1.00  0.00    -0.139 C  
HETATM    7  C   UNL     1     -10.873   6.787  67.160  1.00  0.00    -0.462 C  
BRANCH   6   8
HETATM    8  C   UNL     1      -8.662   7.704  67.804  1.00  0.00    -0.127 C  
BRANCH   8   9
HETATM    9  N   UNL     1      -9.266   9.062  67.640  1.00  0.00    -0.135 NA 
HETATM   10  C   UNL     1      -9.135   9.671  66.355  1.00  0.00    -0.156 A  
HETATM   11  C   UNL     1      -8.124   9.301  65.440  1.00  0.00    -0.122 A  
HETATM   12  C   UNL     1      -8.138   9.710  64.102  1.00  0.00    -0.151 A  
HETATM   13  C   UNL     1      -9.148  10.539  63.644  1.00  0.00    -0.259 A  
HETATM   14  C   UNL     1     -10.082  11.025  64.548  1.00  0.00    -0.380 A  
HETATM   15  C   UNL     1     -10.058  10.634  65.901  1.00  0.00    -0.261 A  
HETATM   16  S   UNL     1     -11.268  11.408  66.940  1.00  0.00    -0.197 SA 
HETATM   17  C   UNL     1     -10.954  10.653  68.518  1.00  0.00    -0.248 A  
HETATM   18  C   UNL     1     -11.735  11.155  69.579  1.00  0.00    -0.405 A  
HETATM   19  C   UNL     1     -11.680  10.580  70.844  1.00  0.00    -0.431 A  
HETATM   20  C   UNL     1     -10.834   9.505  71.052  1.00  0.00    -0.423 A  
HETATM   21  C   UNL     1     -10.034   9.020  70.011  1.00  0.00    -0.207 A  
HETATM   22  C   UNL     1     -10.068   9.568  68.707  1.00  0.00    -0.188 A  
ENDBRANCH   8   9
ENDBRANCH   6   8
ENDBRANCH   3   6
ENDBRANCH   2   3
TORSDOF 5
ENDMDL
MODEL      187
REMARK 921   NORMALIZED FREE ENERGY PREDICTED BY IDOCK:   -3.37 KCAL/MOL
REMARK 922        TOTAL FREE ENERGY PREDICTED BY IDOCK:   -5.17 KCAL/MOL
REMARK 923 INTER-LIGAND FREE ENERGY PREDICTED BY IDOCK:   -4.72 KCAL/MOL
REMARK 924 INTRA-LIGAND FREE ENERGY PREDICTED BY IDOCK:   -0.45 KCAL/MOL
REMARK 927      BINDING AFFINITY PREDICTED BY RF-SCORE:    0.00 PKD
ROOT
HETATM    1  C   UNL     1      -9.714  11.167  64.359  1.00  0.00    -0.312 C  
HETATM    2  C   UNL     1      -9.706  11.022  65.884  1.00  0.00    -0.224 C  
ENDROOT
BRANCH   2   3
HETATM    3  N   UNL     1      -8.485  10.412  66.464  1.00  0.00    -0.129 NA 
BRANCH   3   4
HETATM    4  C   UNL     1      -8.011  11.178  67.628  1.00  0.00    -0.116 C  
HETATM    5  C   UNL     1      -8.861  12.368  68.056  1.00  0.00    -0.187 C  
ENDBRANCH   3   4
BRANCH   3   6
HETATM    6  C   UNL     1      -8.652   8.937  66.712  1.00  0.00    -0.115 C  
HETATM    7  C   UNL     1      -8.046   8.605  68.106  1.00  0.00    -0.115 C  
BRANCH   6   8
HETATM    8  C   UNL     1     -10.112   8.329  66.764  1.00  0.00    -0.303 C  
BRANCH   8   9
HETATM    9  N   UNL     1     -10.535   7.628  68.015  1.00  0.00    -0.204 NA 
HETATM   10  C   UNL     1     -10.314   6.219  68.066  1.00  0.00    -0.192 A  
HETATM   11  C   UNL     1     -10.174   5.431  66.902  1.00  0.00    -0.279 A  
HETATM   12  C   UNL     1      -9.716   4.109  66.942  1.00  0.00    -0.232 A  
HETATM   13  C   UNL     1      -9.419   3.517  68.157  1.00  0.00    -0.215 A  
HETATM   14  C   UNL     1      -9.671   4.221  69.328  1.00  0.00    -0.240 A  
HETATM   15  C   UNL     1     -10.154   5.544  69.293  1.00  0.00    -0.223 A  
HETATM   16  S   UNL     1     -10.501   6.271  70.871  1.00  0.00    -0.233 SA 
HETATM   17  C   UNL     1     -11.039   7.905  70.428  1.00  0.00    -0.245 A  
HETATM   18  C   UNL     1     -11.470   8.699  71.510  1.00  0.00    -0.363 A  
HETATM   19  C   UNL     1     -11.809  10.036  71.328  1.00  0.00    -0.471 A  
HETATM   20  C   UNL     1     -11.725  10.579  70.058  1.00  0.00    -0.394 A  
HETATM   21  C   UNL     1     -11.325   9.789  68.974  1.00  0.00    -0.013 A  
HETATM   22  C   UNL     1     -10.961   8.430  69.117  1.00  0.00     0.085 A  
ENDBRANCH   8   9
ENDBRANCH   6   8
ENDBRANCH   3   6
ENDBRANCH   2   3
TORSDOF 5
ENDMDL
MODEL      188
REMARK 921   NORMALIZED FREE ENERGY PREDICTED BY IDOCK:   -3.35 KCAL/MOL
REMARK 922        TOTAL FREE ENERGY PREDICTED BY IDOCK:   -5.15 KCAL/MOL
REMARK 923 INTER-LIGAND FREE ENERGY PREDICTED BY IDOCK:   -4.56 KCAL/MOL
REMARK 924 INTRA-LIGAND FREE ENERGY PREDICTED BY IDOCK:   -0.59 KCAL/MOL
REMARK 927      BINDING AFFINITY PREDICTED BY RF-SCORE:    0.00 PKD
ROOT
HETATM    1  C   UNL     1      -5.183   7.875  66.745  1.00  0.00    -0.028 C  
HETATM    2  C   UNL     1      -6.291   8.917  66.574  1.00  0.00    -0.062 C  
ENDROOT
BRANCH   2   3
HETATM    3  N   UNL     1      -6.829   9.494  67.830  1.00  0.00    -0.078 NA 
BRANCH   3   4
HETATM    4  C   UNL     1      -5.870   9.345  68.936  1.00  0.00    -0.039 C  
HETATM    5  C   UNL     1      -6.229  10.030  70.249  1.00  0.00    -0.094 C  
ENDBRANCH   3   4
BRANCH   3   6
HETATM    6  C   UNL     1      -7.345  10.894  67.635  1.00  0.00    -0.094 C  
HETATM    7  C   UNL     1      -6.542  11.554  66.477  1.00  0.00    -0.022 C  
BRANCH   6   8
HETATM    8  C   UNL     1      -8.860  11.103  67.229  1.00  0.00    -0.144 C  
BRANCH   8   9
HETATM    9  N   UNL     1      -9.709  11.964  68.110  1.00  0.00    -0.189 NA 
HETATM   10  C   UNL     1      -9.841  13.334  67.730  1.00  0.00    -0.224 A  
HETATM   11  C   UNL     1      -8.898  13.987  66.906  1.00  0.00    -0.212 A  
HETATM   12  C   UNL     1      -9.144  15.241  66.334  1.00  0.00    -0.347 A  
HETATM   13  C   UNL     1     -10.331  15.901  66.601  1.00  0.00    -0.302 A  
HETATM   14  C   UNL     1     -11.221  15.345  67.510  1.00  0.00    -0.302 A  
HETATM   15  C   UNL     1     -10.967  14.095  68.106  1.00  0.00    -0.249 A  
HETATM   16  S   UNL     1     -12.160  13.565  69.305  1.00  0.00    -0.233 SA 
HETATM   17  C   UNL     1     -11.532  11.975  69.792  1.00  0.00    -0.210 A  
HETATM   18  C   UNL     1     -12.256  11.344  70.823  1.00  0.00    -0.475 A  
HETATM   19  C   UNL     1     -11.949  10.049  71.225  1.00  0.00    -0.483 A  
HETATM   20  C   UNL     1     -10.909   9.384  70.600  1.00  0.00    -0.346 A  
HETATM   21  C   UNL     1     -10.167  10.015  69.594  1.00  0.00    -0.267 A  
HETATM   22  C   UNL     1     -10.453  11.326  69.148  1.00  0.00    -0.160 A  
ENDBRANCH   8   9
ENDBRANCH   6   8
ENDBRANCH   3   6
ENDBRANCH   2   3
TORSDOF 5
ENDMDL
MODEL      189
REMARK 921   NORMALIZED FREE ENERGY PREDICTED BY IDOCK:   -3.34 KCAL/MOL
REMARK 922        TOTAL FREE ENERGY PREDICTED BY IDOCK:   -5.13 KCAL/MOL
REMARK 923 INTER-LIGAND FREE ENERGY PREDICTED BY IDOCK:   -4.75 KCAL/MOL
REMARK 924 INTRA-LIGAND FREE ENERGY PREDICTED BY IDOCK:   -0.39 KCAL/MOL
REMARK 927      BINDING AFFINITY PREDICTED BY RF-SCORE:    0.00 PKD
ROOT
HETATM    1  C   UNL     1     -11.449   6.623  70.620  1.00  0.00    -0.420 C  
HETATM    2  C   UNL     1     -11.212   6.008  69.238  1.00  0.00    -0.297 C  
ENDROOT
BRANCH   2   3
HETATM    3  N   UNL     1      -9.799   5.960  68.791  1.00  0.00    -0.133 NA 
BRANCH   3   4
HETATM    4  C   UNL     1      -9.332   4.571  68.655  1.00  0.00    -0.141 C  
HETATM    5  C   UNL     1      -9.470   3.680  69.884  1.00  0.00    -0.262 C  
ENDBRANCH   3   4
BRANCH   3   6
HETATM    6  C   UNL     1      -9.558   6.821  67.580  1.00  0.00    -0.125 C  
HETATM    7  C   UNL     1     -10.871   6.870  66.747  1.00  0.00    -0.270 C  
BRANCH   6   8
HETATM    8  C   UNL     1      -9.167   8.341  67.786  1.00  0.00    -0.134 C  
BRANCH   8   9
HETATM    9  N   UNL     1      -9.072   9.210  66.573  1.00  0.00    -0.148 NA 
HETATM   10  C   UNL     1      -8.154   8.799  65.561  1.00  0.00    -0.115 A  
HETATM   11  C   UNL     1      -7.059   7.948  65.830  1.00  0.00    -0.061 A  
HETATM   12  C   UNL     1      -6.308   7.348  64.813  1.00  0.00    -0.037 A  
HETATM   13  C   UNL     1      -6.604   7.613  63.487  1.00  0.00    -0.058 A  
HETATM   14  C   UNL     1      -7.589   8.547  63.192  1.00  0.00    -0.115 A  
HETATM   15  C   UNL     1      -8.332   9.170  64.213  1.00  0.00    -0.173 A  
HETATM   16  S   UNL     1      -9.492  10.396  63.672  1.00  0.00    -0.313 SA 
HETATM   17  C   UNL     1     -10.240  10.914  65.199  1.00  0.00    -0.297 A  
HETATM   18  C   UNL     1     -11.166  11.969  65.075  1.00  0.00    -0.374 A  
HETATM   19  C   UNL     1     -11.912  12.399  66.167  1.00  0.00    -0.397 A  
HETATM   20  C   UNL     1     -11.726  11.777  67.389  1.00  0.00    -0.304 A  
HETATM   21  C   UNL     1     -10.788  10.747  67.526  1.00  0.00    -0.342 A  
HETATM   22  C   UNL     1     -10.017  10.273  66.439  1.00  0.00    -0.229 A  
ENDBRANCH   8   9
ENDBRANCH   6   8
ENDBRANCH   3   6
ENDBRANCH   2   3
TORSDOF 5
ENDMDL
MODEL      190
REMARK 921   NORMALIZED FREE ENERGY PREDICTED BY IDOCK:   -3.31 KCAL/MOL
REMARK 922        TOTAL FREE ENERGY PREDICTED BY IDOCK:   -5.10 KCAL/MOL
REMARK 923 INTER-LIGAND FREE ENERGY PREDICTED BY IDOCK:   -4.51 KCAL/MOL
REMARK 924 INTRA-LIGAND FREE ENERGY PREDICTED BY IDOCK:   -0.59 KCAL/MOL
REMARK 927      BINDING AFFINITY PREDICTED BY RF-SCORE:    0.00 PKD
ROOT
HETATM    1  C   UNL     1      -5.686  10.373  69.452  1.00  0.00    -0.037 C  
HETATM    2  C   UNL     1      -7.003   9.720  69.880  1.00  0.00    -0.093 C  
ENDROOT
BRANCH   2   3
HETATM    3  N   UNL     1      -7.732   8.987  68.817  1.00  0.00    -0.094 NA 
BRANCH   3   4
HETATM    4  C   UNL     1      -8.006   7.599  69.223  1.00  0.00    -0.126 C  
HETATM    5  C   UNL     1      -8.202   6.585  68.102  1.00  0.00    -0.117 C  
ENDBRANCH   3   4
BRANCH   3   6
HETATM    6  C   UNL     1      -8.937   9.744  68.329  1.00  0.00    -0.119 C  
HETATM    7  C   UNL     1      -9.636  10.394  69.558  1.00  0.00    -0.182 C  
BRANCH   6   8
HETATM    8  C   UNL     1      -8.730  10.943  67.317  1.00  0.00    -0.131 C  
BRANCH   8   9
HETATM    9  N   UNL     1      -9.333  10.821  65.954  1.00  0.00    -0.181 NA 
HETATM   10  C   UNL     1     -10.431  11.685  65.660  1.00  0.00    -0.268 A  
HETATM   11  C   UNL     1     -11.232  12.264  66.669  1.00  0.00    -0.367 A  
HETATM   12  C   UNL     1     -12.143  13.294  66.404  1.00  0.00    -0.454 A  
HETATM   13  C   UNL     1     -12.310  13.752  65.109  1.00  0.00    -0.476 A  
HETATM   14  C   UNL     1     -11.633  13.114  64.077  1.00  0.00    -0.481 A  
HETATM   15  C   UNL     1     -10.734  12.062  64.336  1.00  0.00    -0.323 A  
HETATM   16  S   UNL     1     -10.017  11.302  62.905  1.00  0.00    -0.172 SA 
HETATM   17  C   UNL     1      -8.942  10.081  63.619  1.00  0.00    -0.255 A  
HETATM   18  C   UNL     1      -8.290   9.249  62.687  1.00  0.00    -0.185 A  
HETATM   19  C   UNL     1      -7.333   8.327  63.095  1.00  0.00    -0.105 A  
HETATM   20  C   UNL     1      -7.032   8.229  64.443  1.00  0.00    -0.073 A  
HETATM   21  C   UNL     1      -7.697   9.031  65.377  1.00  0.00    -0.095 A  
HETATM   22  C   UNL     1      -8.668   9.989  65.003  1.00  0.00    -0.173 A  
ENDBRANCH   8   9
ENDBRANCH   6   8
ENDBRANCH   3   6
ENDBRANCH   2   3
TORSDOF 5
ENDMDL
MODEL      191
REMARK 921   NORMALIZED FREE ENERGY PREDICTED BY IDOCK:   -3.30 KCAL/MOL
REMARK 922        TOTAL FREE ENERGY PREDICTED BY IDOCK:   -5.08 KCAL/MOL
REMARK 923 INTER-LIGAND FREE ENERGY PREDICTED BY IDOCK:   -4.89 KCAL/MOL
REMARK 924 INTRA-LIGAND FREE ENERGY PREDICTED BY IDOCK:   -0.20 KCAL/MOL
REMARK 927      BINDING AFFINITY PREDICTED BY RF-SCORE:    0.00 PKD
ROOT
HETATM    1  C   UNL     1      -6.950   9.175  66.867  1.00  0.00    -0.081 C  
HETATM    2  C   UNL     1      -7.054   7.659  67.052  1.00  0.00    -0.084 C  
ENDROOT
BRANCH   2   3
HETATM    3  N   UNL     1      -8.397   7.075  66.823  1.00  0.00    -0.113 NA 
BRANCH   3   4
HETATM    4  C   UNL     1      -8.497   6.483  65.479  1.00  0.00    -0.136 C  
HETATM    5  C   UNL     1      -8.153   5.004  65.356  1.00  0.00    -0.116 C  
ENDBRANCH   3   4
BRANCH   3   6
HETATM    6  C   UNL     1      -8.814   6.158  67.942  1.00  0.00    -0.111 C  
HETATM    7  C   UNL     1      -7.902   6.439  69.170  1.00  0.00    -0.109 C  
BRANCH   6   8
HETATM    8  C   UNL     1     -10.286   6.267  68.513  1.00  0.00    -0.203 C  
BRANCH   8   9
HETATM    9  N   UNL     1     -10.462   6.795  69.901  1.00  0.00    -0.203 NA 
HETATM   10  C   UNL     1     -10.736   8.191  70.025  1.00  0.00    -0.243 A  
HETATM   11  C   UNL     1     -10.397   9.123  69.019  1.00  0.00    -0.229 A  
HETATM   12  C   UNL     1     -10.877  10.437  69.023  1.00  0.00    -0.273 A  
HETATM   13  C   UNL     1     -11.684  10.875  70.059  1.00  0.00    -0.427 A  
HETATM   14  C   UNL     1     -11.929  10.023  71.128  1.00  0.00    -0.484 A  
HETATM   15  C   UNL     1     -11.428   8.707  71.140  1.00  0.00    -0.280 A  
HETATM   16  S   UNL     1     -11.758   7.778  72.613  1.00  0.00    -0.256 SA 
HETATM   17  C   UNL     1     -11.022   6.203  72.244  1.00  0.00    -0.260 A  
HETATM   18  C   UNL     1     -11.062   5.270  73.300  1.00  0.00    -0.376 A  
HETATM   19  C   UNL     1     -10.629   3.962  73.117  1.00  0.00    -0.267 A  
HETATM   20  C   UNL     1     -10.145   3.586  71.876  1.00  0.00    -0.168 A  
HETATM   21  C   UNL     1     -10.075   4.515  70.831  1.00  0.00    -0.228 A  
HETATM   22  C   UNL     1     -10.515   5.852  70.972  1.00  0.00    -0.237 A  
ENDBRANCH   8   9
ENDBRANCH   6   8
ENDBRANCH   3   6
ENDBRANCH   2   3
TORSDOF 5
ENDMDL
MODEL      192
REMARK 921   NORMALIZED FREE ENERGY PREDICTED BY IDOCK:   -3.28 KCAL/MOL
REMARK 922        TOTAL FREE ENERGY PREDICTED BY IDOCK:   -5.06 KCAL/MOL
REMARK 923 INTER-LIGAND FREE ENERGY PREDICTED BY IDOCK:   -4.21 KCAL/MOL
REMARK 924 INTRA-LIGAND FREE ENERGY PREDICTED BY IDOCK:   -0.84 KCAL/MOL
REMARK 927      BINDING AFFINITY PREDICTED BY RF-SCORE:    0.00 PKD
ROOT
HETATM    1  C   UNL     1      -8.575   9.285  70.495  1.00  0.00    -0.271 C  
HETATM    2  C   UNL     1      -8.861   7.828  70.869  1.00  0.00    -0.142 C  
ENDROOT
BRANCH   2   3
HETATM    3  N   UNL     1     -10.008   7.199  70.171  1.00  0.00    -0.186 NA 
BRANCH   3   4
HETATM    4  C   UNL     1     -11.274   7.862  70.528  1.00  0.00    -0.253 C  
HETATM    5  C   UNL     1     -11.521   8.109  72.011  1.00  0.00    -0.380 C  
ENDBRANCH   3   4
BRANCH   3   6
HETATM    6  C   UNL     1      -9.769   7.066  68.692  1.00  0.00    -0.139 C  
HETATM    7  C   UNL     1     -10.038   5.589  68.284  1.00  0.00    -0.226 C  
BRANCH   6   8
HETATM    8  C   UNL     1     -10.653   7.916  67.692  1.00  0.00    -0.206 C  
BRANCH   8   9
HETATM    9  N   UNL     1     -10.038   9.128  67.069  1.00  0.00    -0.227 NA 
HETATM   10  C   UNL     1     -10.415  10.391  67.618  1.00  0.00    -0.233 A  
HETATM   11  C   UNL     1     -11.614  10.577  68.341  1.00  0.00    -0.205 A  
HETATM   12  C   UNL     1     -11.870  11.735  69.085  1.00  0.00    -0.389 A  
HETATM   13  C   UNL     1     -10.946  12.766  69.096  1.00  0.00    -0.185 A  
HETATM   14  C   UNL     1      -9.818  12.668  68.292  1.00  0.00    -0.227 A  
HETATM   15  C   UNL     1      -9.569  11.515  67.524  1.00  0.00    -0.172 A  
HETATM   16  S   UNL     1      -8.131  11.583  66.489  1.00  0.00    -0.061 SA 
HETATM   17  C   UNL     1      -8.132   9.977  65.728  1.00  0.00    -0.128 A  
HETATM   18  C   UNL     1      -7.120   9.778  64.767  1.00  0.00    -0.126 A  
HETATM   19  C   UNL     1      -6.928   8.534  64.176  1.00  0.00    -0.078 A  
HETATM   20  C   UNL     1      -7.757   7.487  64.540  1.00  0.00    -0.123 A  
HETATM   21  C   UNL     1      -8.782   7.685  65.472  1.00  0.00    -0.079 A  
HETATM   22  C   UNL     1      -9.004   8.930  66.105  1.00  0.00    -0.178 A  
ENDBRANCH   8   9
ENDBRANCH   6   8
ENDBRANCH   3   6
ENDBRANCH   2   3
TORSDOF 5
ENDMDL
MODEL      193
REMARK 921   NORMALIZED FREE ENERGY PREDICTED BY IDOCK:   -3.27 KCAL/MOL
REMARK 922        TOTAL FREE ENERGY PREDICTED BY IDOCK:   -5.05 KCAL/MOL
REMARK 923 INTER-LIGAND FREE ENERGY PREDICTED BY IDOCK:   -4.70 KCAL/MOL
REMARK 924 INTRA-LIGAND FREE ENERGY PREDICTED BY IDOCK:   -0.35 KCAL/MOL
REMARK 927      BINDING AFFINITY PREDICTED BY RF-SCORE:    0.00 PKD
ROOT
HETATM    1  C   UNL     1     -11.592   8.098  70.762  1.00  0.00    -0.249 C  
HETATM    2  C   UNL     1     -10.553   8.893  69.967  1.00  0.00    -0.220 C  
ENDROOT
BRANCH   2   3
HETATM    3  N   UNL     1     -10.211   8.348  68.631  1.00  0.00    -0.198 NA 
BRANCH   3   4
HETATM    4  C   UNL     1     -10.609   6.935  68.517  1.00  0.00    -0.212 C  
HETATM    5  C   UNL     1     -10.966   6.436  67.122  1.00  0.00    -0.476 C  
ENDBRANCH   3   4
BRANCH   3   6
HETATM    6  C   UNL     1     -10.706   9.228  67.516  1.00  0.00    -0.203 C  
HETATM    7  C   UNL     1     -11.335  10.505  68.144  1.00  0.00    -0.324 C  
BRANCH   6   8
HETATM    8  C   UNL     1      -9.667   9.783  66.459  1.00  0.00    -0.209 C  
BRANCH   8   9
HETATM    9  N   UNL     1      -8.995  11.086  66.754  1.00  0.00    -0.154 NA 
HETATM   10  C   UNL     1      -9.619  12.260  66.234  1.00  0.00    -0.242 A  
HETATM   11  C   UNL     1     -10.502  12.226  65.132  1.00  0.00    -0.320 A  
HETATM   12  C   UNL     1     -11.300  13.319  64.776  1.00  0.00    -0.350 A  
HETATM   13  C   UNL     1     -11.211  14.501  65.491  1.00  0.00    -0.335 A  
HETATM   14  C   UNL     1     -10.260  14.609  66.497  1.00  0.00    -0.282 A  
HETATM   15  C   UNL     1      -9.438  13.519  66.843  1.00  0.00    -0.258 A  
HETATM   16  S   UNL     1      -8.221  13.846  68.089  1.00  0.00    -0.168 SA 
HETATM   17  C   UNL     1      -7.429  12.266  68.273  1.00  0.00    -0.119 A  
HETATM   18  C   UNL     1      -6.336  12.253  69.163  1.00  0.00    -0.095 A  
HETATM   19  C   UNL     1      -5.695  11.064  69.494  1.00  0.00    -0.047 A  
HETATM   20  C   UNL     1      -6.142   9.884  68.926  1.00  0.00    -0.041 A  
HETATM   21  C   UNL     1      -7.209   9.894  68.019  1.00  0.00    -0.083 A  
HETATM   22  C   UNL     1      -7.895  11.078  67.665  1.00  0.00    -0.114 A  
ENDBRANCH   8   9
ENDBRANCH   6   8
ENDBRANCH   3   6
ENDBRANCH   2   3
TORSDOF 5
ENDMDL
MODEL      194
REMARK 921   NORMALIZED FREE ENERGY PREDICTED BY IDOCK:   -3.24 KCAL/MOL
REMARK 922        TOTAL FREE ENERGY PREDICTED BY IDOCK:   -5.00 KCAL/MOL
REMARK 923 INTER-LIGAND FREE ENERGY PREDICTED BY IDOCK:   -4.80 KCAL/MOL
REMARK 924 INTRA-LIGAND FREE ENERGY PREDICTED BY IDOCK:   -0.20 KCAL/MOL
REMARK 927      BINDING AFFINITY PREDICTED BY RF-SCORE:    0.00 PKD
ROOT
HETATM    1  C   UNL     1     -11.632  11.049  68.743  1.00  0.00    -0.386 C  
HETATM    2  C   UNL     1     -11.041   9.973  69.658  1.00  0.00    -0.259 C  
ENDROOT
BRANCH   2   3
HETATM    3  N   UNL     1     -11.699   9.822  70.979  1.00  0.00    -0.340 NA 
BRANCH   3   4
HETATM    4  C   UNL     1     -13.034  10.442  70.981  1.00  0.00    -0.399 C  
HETATM    5  C   UNL     1     -13.207  11.688  71.841  1.00  0.00    -0.475 C  
ENDBRANCH   3   4
BRANCH   3   6
HETATM    6  C   UNL     1     -11.671   8.399  71.466  1.00  0.00    -0.290 C  
HETATM    7  C   UNL     1     -11.275   7.482  70.273  1.00  0.00    -0.253 C  
BRANCH   6   8
HETATM    8  C   UNL     1     -10.660   8.003  72.618  1.00  0.00    -0.350 C  
BRANCH   8   9
HETATM    9  N   UNL     1      -9.574   7.028  72.292  1.00  0.00    -0.150 NA 
HETATM   10  C   UNL     1      -9.847   5.652  72.561  1.00  0.00    -0.163 A  
HETATM   11  C   UNL     1     -10.823   5.241  73.495  1.00  0.00    -0.358 A  
HETATM   12  C   UNL     1     -11.266   3.916  73.583  1.00  0.00    -0.294 A  
HETATM   13  C   UNL     1     -10.714   2.948  72.762  1.00  0.00    -0.122 A  
HETATM   14  C   UNL     1      -9.661   3.295  71.925  1.00  0.00    -0.233 A  
HETATM   15  C   UNL     1      -9.197   4.623  71.850  1.00  0.00    -0.137 A  
HETATM   16  S   UNL     1      -7.795   4.883  70.799  1.00  0.00    -0.080 SA 
HETATM   17  C   UNL     1      -7.536   6.636  70.933  1.00  0.00    -0.089 A  
HETATM   18  C   UNL     1      -6.404   7.121  70.248  1.00  0.00    -0.034 A  
HETATM   19  C   UNL     1      -6.144   8.484  70.170  1.00  0.00    -0.034 A  
HETATM   20  C   UNL     1      -7.013   9.367  70.786  1.00  0.00    -0.117 A  
HETATM   21  C   UNL     1      -8.124   8.891  71.493  1.00  0.00    -0.128 A  
HETATM   22  C   UNL     1      -8.431   7.514  71.587  1.00  0.00    -0.111 A  
ENDBRANCH   8   9
ENDBRANCH   6   8
ENDBRANCH   3   6
ENDBRANCH   2   3
TORSDOF 5
ENDMDL
MODEL      195
REMARK 921   NORMALIZED FREE ENERGY PREDICTED BY IDOCK:   -3.21 KCAL/MOL
REMARK 922        TOTAL FREE ENERGY PREDICTED BY IDOCK:   -4.96 KCAL/MOL
REMARK 923 INTER-LIGAND FREE ENERGY PREDICTED BY IDOCK:   -4.60 KCAL/MOL
REMARK 924 INTRA-LIGAND FREE ENERGY PREDICTED BY IDOCK:   -0.36 KCAL/MOL
REMARK 927      BINDING AFFINITY PREDICTED BY RF-SCORE:    0.00 PKD
ROOT
HETATM    1  C   UNL     1      -9.526   7.199  74.154  1.00  0.00    -0.281 C  
HETATM    2  C   UNL     1      -9.574   7.370  72.633  1.00  0.00    -0.160 C  
ENDROOT
BRANCH   2   3
HETATM    3  N   UNL     1      -8.556   8.281  72.057  1.00  0.00    -0.161 NA 
BRANCH   3   4
HETATM    4  C   UNL     1      -7.532   7.529  71.313  1.00  0.00    -0.079 C  
HETATM    5  C   UNL     1      -6.328   7.042  72.111  1.00  0.00    -0.045 C  
ENDBRANCH   3   4
BRANCH   3   6
HETATM    6  C   UNL     1      -9.180   9.414  71.288  1.00  0.00     0.060 C  
HETATM    7  C   UNL     1      -8.281   9.722  70.056  1.00  0.00    -0.207 C  
BRANCH   6   8
HETATM    8  C   UNL     1     -10.628   9.222  70.679  1.00  0.00    -0.262 C  
BRANCH   8   9
HETATM    9  N   UNL     1     -10.757   9.143  69.191  1.00  0.00    -0.207 NA 
HETATM   10  C   UNL     1     -11.002  10.370  68.504  1.00  0.00    -0.254 A  
HETATM   11  C   UNL     1     -11.569  11.496  69.140  1.00  0.00    -0.382 A  
HETATM   12  C   UNL     1     -11.583  12.764  68.548  1.00  0.00    -0.358 A  
HETATM   13  C   UNL     1     -11.065  12.938  67.276  1.00  0.00    -0.309 A  
HETATM   14  C   UNL     1     -10.619  11.826  66.573  1.00  0.00    -0.289 A  
HETATM   15  C   UNL     1     -10.624  10.545  67.157  1.00  0.00    -0.264 A  
HETATM   16  S   UNL     1     -10.103   9.222  66.098  1.00  0.00    -0.140 SA 
HETATM   17  C   UNL     1     -10.207   7.810  67.172  1.00  0.00    -0.295 A  
HETATM   18  C   UNL     1      -9.922   6.576  66.555  1.00  0.00    -0.154 A  
HETATM   19  C   UNL     1      -9.851   5.402  67.297  1.00  0.00    -0.175 A  
HETATM   20  C   UNL     1     -10.075   5.461  68.662  1.00  0.00    -0.246 A  
HETATM   21  C   UNL     1     -10.387   6.679  69.277  1.00  0.00    -0.228 A  
HETATM   22  C   UNL     1     -10.457   7.897  68.561  1.00  0.00    -0.167 A  
ENDBRANCH   8   9
ENDBRANCH   6   8
ENDBRANCH   3   6
ENDBRANCH   2   3
TORSDOF 5
ENDMDL
MODEL      196
REMARK 921   NORMALIZED FREE ENERGY PREDICTED BY IDOCK:   -3.20 KCAL/MOL
REMARK 922        TOTAL FREE ENERGY PREDICTED BY IDOCK:   -4.95 KCAL/MOL
REMARK 923 INTER-LIGAND FREE ENERGY PREDICTED BY IDOCK:   -4.56 KCAL/MOL
REMARK 924 INTRA-LIGAND FREE ENERGY PREDICTED BY IDOCK:   -0.40 KCAL/MOL
REMARK 927      BINDING AFFINITY PREDICTED BY RF-SCORE:    0.00 PKD
ROOT
HETATM    1  C   UNL     1      -8.414   8.230  73.074  1.00  0.00    -0.262 C  
HETATM    2  C   UNL     1      -9.707   8.353  72.263  1.00  0.00    -0.316 C  
ENDROOT
BRANCH   2   3
HETATM    3  N   UNL     1      -9.951   7.273  71.277  1.00  0.00    -0.188 NA 
BRANCH   3   4
HETATM    4  C   UNL     1     -11.304   6.712  71.427  1.00  0.00    -0.289 C  
HETATM    5  C   UNL     1     -12.415   7.693  71.779  1.00  0.00    -0.358 C  
ENDBRANCH   3   4
BRANCH   3   6
HETATM    6  C   UNL     1      -9.603   7.696  69.875  1.00  0.00    -0.160 C  
HETATM    7  C   UNL     1      -8.191   7.141  69.534  1.00  0.00    -0.132 C  
BRANCH   6   8
HETATM    8  C   UNL     1     -10.516   7.208  68.678  1.00  0.00    -0.197 C  
BRANCH   8   9
HETATM    9  N   UNL     1      -9.971   7.319  67.290  1.00  0.00    -0.174 NA 
HETATM   10  C   UNL     1      -9.859   8.635  66.749  1.00  0.00    -0.253 A  
HETATM   11  C   UNL     1     -10.627   9.720  67.228  1.00  0.00    -0.320 A  
HETATM   12  C   UNL     1     -10.350  11.046  66.878  1.00  0.00    -0.279 A  
HETATM   13  C   UNL     1      -9.316  11.328  66.002  1.00  0.00    -0.234 A  
HETATM   14  C   UNL     1      -8.626  10.276  65.414  1.00  0.00    -0.169 A  
HETATM   15  C   UNL     1      -8.917   8.939  65.745  1.00  0.00    -0.203 A  
HETATM   16  S   UNL     1      -8.005   7.715  64.845  1.00  0.00    -0.128 SA 
HETATM   17  C   UNL     1      -8.605   6.198  65.549  1.00  0.00    -0.130 A  
HETATM   18  C   UNL     1      -8.100   5.027  64.949  1.00  0.00    -0.112 A  
HETATM   19  C   UNL     1      -8.392   3.771  65.470  1.00  0.00    -0.105 A  
HETATM   20  C   UNL     1      -9.199   3.684  66.591  1.00  0.00    -0.189 A  
HETATM   21  C   UNL     1      -9.728   4.841  67.175  1.00  0.00    -0.207 A  
HETATM   22  C   UNL     1      -9.447   6.137  66.684  1.00  0.00    -0.151 A  
ENDBRANCH   8   9
ENDBRANCH   6   8
ENDBRANCH   3   6
ENDBRANCH   2   3
TORSDOF 5
ENDMDL
MODEL      197
REMARK 921   NORMALIZED FREE ENERGY PREDICTED BY IDOCK:   -3.19 KCAL/MOL
REMARK 922        TOTAL FREE ENERGY PREDICTED BY IDOCK:   -4.95 KCAL/MOL
REMARK 923 INTER-LIGAND FREE ENERGY PREDICTED BY IDOCK:   -4.40 KCAL/MOL
REMARK 924 INTRA-LIGAND FREE ENERGY PREDICTED BY IDOCK:   -0.54 KCAL/MOL
REMARK 927      BINDING AFFINITY PREDICTED BY RF-SCORE:    0.00 PKD
ROOT
HETATM    1  C   UNL     1      -5.498  13.059  68.486  1.00  0.00    -0.066 C  
HETATM    2  C   UNL     1      -6.838  12.367  68.751  1.00  0.00    -0.092 C  
ENDROOT
BRANCH   2   3
HETATM    3  N   UNL     1      -7.224  11.320  67.775  1.00  0.00    -0.085 NA 
BRANCH   3   4
HETATM    4  C   UNL     1      -6.081  10.928  66.936  1.00  0.00    -0.079 C  
HETATM    5  C   UNL     1      -6.404  10.373  65.554  1.00  0.00    -0.126 C  
ENDBRANCH   3   4
BRANCH   3   6
HETATM    6  C   UNL     1      -7.942  10.171  68.430  1.00  0.00    -0.102 C  
HETATM    7  C   UNL     1      -7.591  10.177  69.946  1.00  0.00    -0.174 C  
BRANCH   6   8
HETATM    8  C   UNL     1      -9.524  10.134  68.394  1.00  0.00    -0.143 C  
BRANCH   8   9
HETATM    9  N   UNL     1     -10.201   8.840  68.711  1.00  0.00    -0.203 NA 
HETATM   10  C   UNL     1      -9.793   7.701  67.953  1.00  0.00    -0.157 A  
HETATM   11  C   UNL     1      -9.179   7.813  66.686  1.00  0.00    -0.220 A  
HETATM   12  C   UNL     1      -8.559   6.728  66.055  1.00  0.00    -0.149 A  
HETATM   13  C   UNL     1      -8.568   5.482  66.656  1.00  0.00    -0.116 A  
HETATM   14  C   UNL     1      -9.275   5.310  67.839  1.00  0.00    -0.122 A  
HETATM   15  C   UNL     1      -9.920   6.393  68.466  1.00  0.00    -0.142 A  
HETATM   16  S   UNL     1     -10.848   5.991  69.921  1.00  0.00    -0.385 SA 
HETATM   17  C   UNL     1     -11.466   7.577  70.431  1.00  0.00    -0.198 A  
HETATM   18  C   UNL     1     -12.328   7.544  71.546  1.00  0.00    -0.367 A  
HETATM   19  C   UNL     1     -12.794   8.719  72.125  1.00  0.00    -0.456 A  
HETATM   20  C   UNL     1     -12.404   9.932  71.583  1.00  0.00    -0.496 A  
HETATM   21  C   UNL     1     -11.571   9.971  70.459  1.00  0.00    -0.403 A  
HETATM   22  C   UNL     1     -11.066   8.800  69.847  1.00  0.00    -0.123 A  
ENDBRANCH   8   9
ENDBRANCH   6   8
ENDBRANCH   3   6
ENDBRANCH   2   3
TORSDOF 5
ENDMDL
MODEL      198
REMARK 921   NORMALIZED FREE ENERGY PREDICTED BY IDOCK:   -3.18 KCAL/MOL
REMARK 922        TOTAL FREE ENERGY PREDICTED BY IDOCK:   -4.92 KCAL/MOL
REMARK 923 INTER-LIGAND FREE ENERGY PREDICTED BY IDOCK:   -3.95 KCAL/MOL
REMARK 924 INTRA-LIGAND FREE ENERGY PREDICTED BY IDOCK:   -0.97 KCAL/MOL
REMARK 927      BINDING AFFINITY PREDICTED BY RF-SCORE:    0.00 PKD
ROOT
HETATM    1  C   UNL     1      -7.210   4.077  74.154  1.00  0.00    -0.062 C  
HETATM    2  C   UNL     1      -8.702   3.957  73.831  1.00  0.00    -0.093 C  
ENDROOT
BRANCH   2   3
HETATM    3  N   UNL     1      -9.057   4.053  72.395  1.00  0.00    -0.113 NA 
BRANCH   3   4
HETATM    4  C   UNL     1      -8.488   2.930  71.631  1.00  0.00    -0.064 C  
HETATM    5  C   UNL     1      -9.209   2.543  70.346  1.00  0.00    -0.198 C  
ENDBRANCH   3   4
BRANCH   3   6
HETATM    6  C   UNL     1     -10.533   4.263  72.189  1.00  0.00    -0.063 C  
HETATM    7  C   UNL     1     -11.275   3.817  73.481  1.00  0.00    -0.299 C  
BRANCH   6   8
HETATM    8  C   UNL     1     -11.067   5.728  71.916  1.00  0.00    -0.248 C  
BRANCH   8   9
HETATM    9  N   UNL     1     -10.139   6.703  71.267  1.00  0.00    -0.188 NA 
HETATM   10  C   UNL     1      -9.179   7.335  72.114  1.00  0.00    -0.132 A  
HETATM   11  C   UNL     1      -9.357   7.448  73.510  1.00  0.00    -0.287 A  
HETATM   12  C   UNL     1      -8.323   7.839  74.369  1.00  0.00    -0.273 A  
HETATM   13  C   UNL     1      -7.083   8.168  73.851  1.00  0.00    -0.179 A  
HETATM   14  C   UNL     1      -6.914   8.193  72.473  1.00  0.00    -0.101 A  
HETATM   15  C   UNL     1      -7.958   7.823  71.604  1.00  0.00    -0.097 A  
HETATM   16  S   UNL     1      -7.608   7.990  69.875  1.00  0.00    -0.089 SA 
HETATM   17  C   UNL     1      -9.109   7.409  69.123  1.00  0.00    -0.134 A  
HETATM   18  C   UNL     1      -9.144   7.511  67.718  1.00  0.00    -0.130 A  
HETATM   19  C   UNL     1     -10.207   6.989  66.988  1.00  0.00    -0.330 A  
HETATM   20  C   UNL     1     -11.243   6.371  67.666  1.00  0.00    -0.269 A  
HETATM   21  C   UNL     1     -11.229   6.293  69.063  1.00  0.00    -0.415 A  
HETATM   22  C   UNL     1     -10.163   6.799  69.842  1.00  0.00    -0.190 A  
ENDBRANCH   8   9
ENDBRANCH   6   8
ENDBRANCH   3   6
ENDBRANCH   2   3
TORSDOF 5
ENDMDL
MODEL      199
REMARK 921   NORMALIZED FREE ENERGY PREDICTED BY IDOCK:   -3.17 KCAL/MOL
REMARK 922        TOTAL FREE ENERGY PREDICTED BY IDOCK:   -4.91 KCAL/MOL
REMARK 923 INTER-LIGAND FREE ENERGY PREDICTED BY IDOCK:   -4.59 KCAL/MOL
REMARK 924 INTRA-LIGAND FREE ENERGY PREDICTED BY IDOCK:   -0.32 KCAL/MOL
REMARK 927      BINDING AFFINITY PREDICTED BY RF-SCORE:    0.00 PKD
ROOT
HETATM    1  C   UNL     1     -10.795  16.028  66.045  1.00  0.00    -0.190 C  
HETATM    2  C   UNL     1     -11.279  15.733  67.467  1.00  0.00    -0.218 C  
ENDROOT
BRANCH   2   3
HETATM    3  N   UNL     1     -10.221  15.386  68.446  1.00  0.00    -0.219 NA 
BRANCH   3   4
HETATM    4  C   UNL     1     -10.785  15.200  69.793  1.00  0.00    -0.274 C  
HETATM    5  C   UNL     1     -12.166  15.793  70.044  1.00  0.00    -0.309 C  
ENDBRANCH   3   4
BRANCH   3   6
HETATM    6  C   UNL     1      -9.357  14.250  67.969  1.00  0.00    -0.200 C  
HETATM    7  C   UNL     1      -7.916  14.472  68.509  1.00  0.00    -0.142 C  
BRANCH   6   8
HETATM    8  C   UNL     1      -9.719  12.774  68.410  1.00  0.00    -0.186 C  
BRANCH   8   9
HETATM    9  N   UNL     1      -9.168  11.645  67.599  1.00  0.00    -0.173 NA 
HETATM   10  C   UNL     1      -8.433  10.647  68.307  1.00  0.00    -0.127 A  
HETATM   11  C   UNL     1      -7.829  10.894  69.559  1.00  0.00     0.016 A  
HETATM   12  C   UNL     1      -7.325   9.867  70.365  1.00  0.00    -0.139 A  
HETATM   13  C   UNL     1      -7.375   8.556  69.924  1.00  0.00    -0.055 A  
HETATM   14  C   UNL     1      -7.843   8.294  68.643  1.00  0.00    -0.120 A  
HETATM   15  C   UNL     1      -8.329   9.328  67.820  1.00  0.00    -0.116 A  
HETATM   16  S   UNL     1      -8.812   8.839  66.186  1.00  0.00    -0.180 SA 
HETATM   17  C   UNL     1      -9.388  10.367  65.484  1.00  0.00    -0.197 A  
HETATM   18  C   UNL     1      -9.765  10.289  64.128  1.00  0.00    -0.357 A  
HETATM   19  C   UNL     1     -10.342  11.377  63.482  1.00  0.00    -0.476 A  
HETATM   20  C   UNL     1     -10.536  12.549  64.191  1.00  0.00    -0.429 A  
HETATM   21  C   UNL     1     -10.137  12.642  65.530  1.00  0.00    -0.279 A  
HETATM   22  C   UNL     1      -9.557  11.557  66.228  1.00  0.00    -0.218 A  
ENDBRANCH   8   9
ENDBRANCH   6   8
ENDBRANCH   3   6
ENDBRANCH   2   3
TORSDOF 5
ENDMDL
MODEL      200
REMARK 921   NORMALIZED FREE ENERGY PREDICTED BY IDOCK:   -3.17 KCAL/MOL
REMARK 922        TOTAL FREE ENERGY PREDICTED BY IDOCK:   -4.91 KCAL/MOL
REMARK 923 INTER-LIGAND FREE ENERGY PREDICTED BY IDOCK:   -4.73 KCAL/MOL
REMARK 924 INTRA-LIGAND FREE ENERGY PREDICTED BY IDOCK:   -0.18 KCAL/MOL
REMARK 927      BINDING AFFINITY PREDICTED BY RF-SCORE:    0.00 PKD
ROOT
HETATM    1  C   UNL     1     -11.966  11.194  69.446  1.00  0.00    -0.420 C  
HETATM    2  C   UNL     1     -11.465   9.860  70.005  1.00  0.00    -0.217 C  
ENDROOT
BRANCH   2   3
HETATM    3  N   UNL     1     -11.769   9.608  71.434  1.00  0.00    -0.380 NA 
BRANCH   3   4
HETATM    4  C   UNL     1     -13.134  10.042  71.772  1.00  0.00    -0.457 C  
HETATM    5  C   UNL     1     -14.102   8.959  72.233  1.00  0.00    -0.512 C  
ENDBRANCH   3   4
BRANCH   3   6
HETATM    6  C   UNL     1     -11.444   8.196  71.842  1.00  0.00    -0.299 C  
HETATM    7  C   UNL     1     -10.979   7.417  70.578  1.00  0.00    -0.270 C  
BRANCH   6   8
HETATM    8  C   UNL     1     -10.292   7.950  72.900  1.00  0.00    -0.347 C  
BRANCH   8   9
HETATM    9  N   UNL     1      -9.250   6.927  72.575  1.00  0.00    -0.136 NA 
HETATM   10  C   UNL     1      -8.029   7.412  72.018  1.00  0.00    -0.093 A  
HETATM   11  C   UNL     1      -7.939   8.656  71.354  1.00  0.00    -0.174 A  
HETATM   12  C   UNL     1      -6.712   9.244  71.027  1.00  0.00    -0.093 A  
HETATM   13  C   UNL     1      -5.531   8.585  71.318  1.00  0.00    -0.034 A  
HETATM   14  C   UNL     1      -5.588   7.304  71.852  1.00  0.00    -0.037 A  
HETATM   15  C   UNL     1      -6.821   6.699  72.161  1.00  0.00    -0.067 A  
HETATM   16  S   UNL     1      -6.725   5.032  72.755  1.00  0.00    -0.068 SA 
HETATM   17  C   UNL     1      -8.430   4.637  73.062  1.00  0.00    -0.099 A  
HETATM   18  C   UNL     1      -8.665   3.310  73.474  1.00  0.00    -0.077 A  
HETATM   19  C   UNL     1      -9.934   2.893  73.860  1.00  0.00    -0.160 A  
HETATM   20  C   UNL     1     -10.975   3.804  73.827  1.00  0.00    -0.312 A  
HETATM   21  C   UNL     1     -10.755   5.116  73.392  1.00  0.00    -0.331 A  
HETATM   22  C   UNL     1      -9.479   5.584  73.002  1.00  0.00    -0.146 A  
ENDBRANCH   8   9
ENDBRANCH   6   8
ENDBRANCH   3   6
ENDBRANCH   2   3
TORSDOF 5
ENDMDL
MODEL      201
REMARK 921   NORMALIZED FREE ENERGY PREDICTED BY IDOCK:   -3.14 KCAL/MOL
REMARK 922        TOTAL FREE ENERGY PREDICTED BY IDOCK:   -4.87 KCAL/MOL
REMARK 923 INTER-LIGAND FREE ENERGY PREDICTED BY IDOCK:   -4.09 KCAL/MOL
REMARK 924 INTRA-LIGAND FREE ENERGY PREDICTED BY IDOCK:   -0.78 KCAL/MOL
REMARK 927      BINDING AFFINITY PREDICTED BY RF-SCORE:    0.00 PKD
ROOT
HETATM    1  C   UNL     1     -11.390   8.747  71.794  1.00  0.00    -0.409 C  
HETATM    2  C   UNL     1     -11.654   9.909  70.832  1.00  0.00    -0.373 C  
ENDROOT
BRANCH   2   3
HETATM    3  N   UNL     1     -10.851   9.907  69.586  1.00  0.00    -0.240 NA 
BRANCH   3   4
HETATM    4  C   UNL     1     -11.030   8.650  68.841  1.00  0.00     0.120 C  
HETATM    5  C   UNL     1      -9.783   7.804  68.619  1.00  0.00    -0.159 C  
ENDBRANCH   3   4
BRANCH   3   6
HETATM    6  C   UNL     1     -11.068  11.153  68.771  1.00  0.00    -0.236 C  
HETATM    7  C   UNL     1     -11.664  12.248  69.700  1.00  0.00    -0.386 C  
BRANCH   6   8
HETATM    8  C   UNL     1      -9.820  11.852  68.092  1.00  0.00    -0.192 C  
BRANCH   8   9
HETATM    9  N   UNL     1      -8.828  10.983  67.388  1.00  0.00    -0.137 NA 
HETATM   10  C   UNL     1      -9.060  10.739  66.001  1.00  0.00    -0.185 A  
HETATM   11  C   UNL     1     -10.339  10.864  65.413  1.00  0.00    -0.326 A  
HETATM   12  C   UNL     1     -10.529  10.870  64.026  1.00  0.00    -0.379 A  
HETATM   13  C   UNL     1      -9.445  10.710  63.180  1.00  0.00    -0.360 A  
HETATM   14  C   UNL     1      -8.195  10.454  63.728  1.00  0.00    -0.122 A  
HETATM   15  C   UNL     1      -8.003  10.425  65.122  1.00  0.00    -0.134 A  
HETATM   16  S   UNL     1      -6.368  10.004  65.659  1.00  0.00    -0.102 SA 
HETATM   17  C   UNL     1      -6.508  10.104  67.427  1.00  0.00    -0.067 A  
HETATM   18  C   UNL     1      -5.349   9.728  68.135  1.00  0.00    -0.039 A  
HETATM   19  C   UNL     1      -5.275   9.867  69.517  1.00  0.00    -0.034 A  
HETATM   20  C   UNL     1      -6.369  10.376  70.195  1.00  0.00    -0.123 A  
HETATM   21  C   UNL     1      -7.534  10.725  69.502  1.00  0.00    -0.113 A  
HETATM   22  C   UNL     1      -7.646  10.610  68.098  1.00  0.00    -0.092 A  
ENDBRANCH   8   9
ENDBRANCH   6   8
ENDBRANCH   3   6
ENDBRANCH   2   3
TORSDOF 5
ENDMDL
MODEL      202
REMARK 921   NORMALIZED FREE ENERGY PREDICTED BY IDOCK:   -3.10 KCAL/MOL
REMARK 922        TOTAL FREE ENERGY PREDICTED BY IDOCK:   -4.82 KCAL/MOL
REMARK 923 INTER-LIGAND FREE ENERGY PREDICTED BY IDOCK:   -4.66 KCAL/MOL
REMARK 924 INTRA-LIGAND FREE ENERGY PREDICTED BY IDOCK:   -0.16 KCAL/MOL
REMARK 927      BINDING AFFINITY PREDICTED BY RF-SCORE:    0.00 PKD
ROOT
HETATM    1  C   UNL     1     -10.812   8.332  71.840  1.00  0.00    -0.350 C  
HETATM    2  C   UNL     1     -11.347   8.963  70.552  1.00  0.00    -0.234 C  
ENDROOT
BRANCH   2   3
HETATM    3  N   UNL     1     -10.592   8.639  69.317  1.00  0.00    -0.218 NA 
BRANCH   3   4
HETATM    4  C   UNL     1     -10.639   7.197  69.029  1.00  0.00    -0.210 C  
HETATM    5  C   UNL     1      -9.302   6.500  68.807  1.00  0.00    -0.130 C  
ENDBRANCH   3   4
BRANCH   3   6
HETATM    6  C   UNL     1     -10.989   9.520  68.164  1.00  0.00    -0.089 C  
HETATM    7  C   UNL     1     -11.703  10.779  68.733  1.00  0.00    -0.315 C  
BRANCH   6   8
HETATM    8  C   UNL     1      -9.860  10.102  67.219  1.00  0.00    -0.183 C  
BRANCH   8   9
HETATM    9  N   UNL     1      -9.372  11.490  67.484  1.00  0.00    -0.164 NA 
HETATM   10  C   UNL     1      -8.310  11.626  68.429  1.00  0.00    -0.157 A  
HETATM   11  C   UNL     1      -8.041  10.650  69.414  1.00  0.00    -0.102 A  
HETATM   12  C   UNL     1      -6.866  10.657  70.174  1.00  0.00    -0.119 A  
HETATM   13  C   UNL     1      -5.936  11.667  70.000  1.00  0.00    -0.152 A  
HETATM   14  C   UNL     1      -6.232  12.712  69.134  1.00  0.00    -0.098 A  
HETATM   15  C   UNL     1      -7.423  12.721  68.384  1.00  0.00    -0.124 A  
HETATM   16  S   UNL     1      -7.688  14.164  67.390  1.00  0.00    -0.123 SA 
HETATM   17  C   UNL     1      -9.231  13.799  66.589  1.00  0.00    -0.223 A  
HETATM   18  C   UNL     1      -9.738  14.837  65.781  1.00  0.00    -0.347 A  
HETATM   19  C   UNL     1     -10.876  14.649  65.003  1.00  0.00    -0.431 A  
HETATM   20  C   UNL     1     -11.515  13.422  65.040  1.00  0.00    -0.331 A  
HETATM   21  C   UNL     1     -11.034  12.397  65.863  1.00  0.00    -0.323 A  
HETATM   22  C   UNL     1      -9.874  12.542  66.659  1.00  0.00    -0.241 A  
ENDBRANCH   8   9
ENDBRANCH   6   8
ENDBRANCH   3   6
ENDBRANCH   2   3
TORSDOF 5
ENDMDL
MODEL      203
REMARK 921   NORMALIZED FREE ENERGY PREDICTED BY IDOCK:   -3.09 KCAL/MOL
REMARK 922        TOTAL FREE ENERGY PREDICTED BY IDOCK:   -4.82 KCAL/MOL
REMARK 923 INTER-LIGAND FREE ENERGY PREDICTED BY IDOCK:   -3.49 KCAL/MOL
REMARK 924 INTRA-LIGAND FREE ENERGY PREDICTED BY IDOCK:   -1.32 KCAL/MOL
REMARK 927      BINDING AFFINITY PREDICTED BY RF-SCORE:    0.00 PKD
ROOT
HETATM    1  C   UNL     1     -10.643   9.794  67.396  1.00  0.00    -0.330 C  
HETATM    2  C   UNL     1      -9.405  10.340  66.680  1.00  0.00    -0.161 C  
ENDROOT
BRANCH   2   3
HETATM    3  N   UNL     1      -8.772   9.424  65.701  1.00  0.00    -0.144 NA 
BRANCH   3   4
HETATM    4  C   UNL     1      -9.051   9.847  64.320  1.00  0.00    -0.253 C  
HETATM    5  C   UNL     1      -8.098   9.342  63.244  1.00  0.00    -0.151 C  
ENDBRANCH   3   4
BRANCH   3   6
HETATM    6  C   UNL     1      -7.316   9.192  66.001  1.00  0.00    -0.094 C  
HETATM    7  C   UNL     1      -6.832  10.311  66.967  1.00  0.00    -0.084 C  
BRANCH   6   8
HETATM    8  C   UNL     1      -6.885   7.846  66.714  1.00  0.00    -0.072 C  
BRANCH   8   9
HETATM    9  N   UNL     1      -7.865   6.716  66.728  1.00  0.00    -0.106 NA 
HETATM   10  C   UNL     1      -8.756   6.655  67.842  1.00  0.00    -0.116 A  
HETATM   11  C   UNL     1      -8.468   7.273  69.079  1.00  0.00    -0.129 A  
HETATM   12  C   UNL     1      -9.431   7.428  70.082  1.00  0.00    -0.165 A  
HETATM   13  C   UNL     1     -10.709   6.931  69.895  1.00  0.00    -0.278 A  
HETATM   14  C   UNL     1     -10.987   6.204  68.745  1.00  0.00    -0.421 A  
HETATM   15  C   UNL     1     -10.014   6.026  67.743  1.00  0.00    -0.131 A  
HETATM   16  S   UNL     1     -10.501   5.005  66.379  1.00  0.00    -0.250 SA 
HETATM   17  C   UNL     1      -9.062   5.048  65.337  1.00  0.00    -0.154 A  
HETATM   18  C   UNL     1      -9.139   4.233  64.190  1.00  0.00    -0.150 A  
HETATM   19  C   UNL     1      -8.137   4.255  63.226  1.00  0.00    -0.087 A  
HETATM   20  C   UNL     1      -7.049   5.089  63.414  1.00  0.00    -0.047 A  
HETATM   21  C   UNL     1      -6.952   5.880  64.565  1.00  0.00    -0.051 A  
HETATM   22  C   UNL     1      -7.954   5.896  65.563  1.00  0.00    -0.117 A  
ENDBRANCH   8   9
ENDBRANCH   6   8
ENDBRANCH   3   6
ENDBRANCH   2   3
TORSDOF 5
ENDMDL
MODEL      204
REMARK 921   NORMALIZED FREE ENERGY PREDICTED BY IDOCK:   -3.08 KCAL/MOL
REMARK 922        TOTAL FREE ENERGY PREDICTED BY IDOCK:   -4.80 KCAL/MOL
REMARK 923 INTER-LIGAND FREE ENERGY PREDICTED BY IDOCK:   -3.64 KCAL/MOL
REMARK 924 INTRA-LIGAND FREE ENERGY PREDICTED BY IDOCK:   -1.17 KCAL/MOL
REMARK 927      BINDING AFFINITY PREDICTED BY RF-SCORE:    0.00 PKD
ROOT
HETATM    1  C   UNL     1     -10.362   6.643  74.168  1.00  0.00    -0.347 C  
HETATM    2  C   UNL     1     -10.497   7.481  72.894  1.00  0.00    -0.318 C  
ENDROOT
BRANCH   2   3
HETATM    3  N   UNL     1     -10.304   6.748  71.620  1.00  0.00    -0.197 NA 
BRANCH   3   4
HETATM    4  C   UNL     1     -11.541   6.733  70.823  1.00  0.00    -0.366 C  
HETATM    5  C   UNL     1     -11.392   6.445  69.334  1.00  0.00    -0.443 C  
ENDBRANCH   3   4
BRANCH   3   6
HETATM    6  C   UNL     1      -9.086   7.221  70.873  1.00  0.00    -0.151 C  
HETATM    7  C   UNL     1      -8.517   8.469  71.607  1.00  0.00    -0.235 C  
BRANCH   6   8
HETATM    8  C   UNL     1      -7.845   6.248  70.735  1.00  0.00    -0.106 C  
BRANCH   8   9
HETATM    9  N   UNL     1      -8.110   4.777  70.689  1.00  0.00    -0.079 NA 
HETATM   10  C   UNL     1      -8.159   4.095  71.942  1.00  0.00    -0.088 A  
HETATM   11  C   UNL     1      -7.538   4.602  73.106  1.00  0.00    -0.087 A  
HETATM   12  C   UNL     1      -7.786   4.074  74.378  1.00  0.00    -0.086 A  
HETATM   13  C   UNL     1      -8.637   2.992  74.523  1.00  0.00    -0.076 A  
HETATM   14  C   UNL     1      -9.160   2.390  73.386  1.00  0.00    -0.089 A  
HETATM   15  C   UNL     1      -8.894   2.903  72.102  1.00  0.00    -0.081 A  
HETATM   16  S   UNL     1      -9.567   1.971  70.753  1.00  0.00    -0.049 SA 
HETATM   17  C   UNL     1      -9.065   2.926  69.342  1.00  0.00    -0.132 A  
HETATM   18  C   UNL     1      -9.401   2.360  68.095  1.00  0.00    -0.263 A  
HETATM   19  C   UNL     1      -9.174   3.051  66.910  1.00  0.00    -0.177 A  
HETATM   20  C   UNL     1      -8.602   4.309  66.969  1.00  0.00    -0.104 A  
HETATM   21  C   UNL     1      -8.239   4.866  68.202  1.00  0.00    -0.089 A  
HETATM   22  C   UNL     1      -8.462   4.202  69.430  1.00  0.00    -0.072 A  
ENDBRANCH   8   9
ENDBRANCH   6   8
ENDBRANCH   3   6
ENDBRANCH   2   3
TORSDOF 5
ENDMDL
MODEL      205
REMARK 921   NORMALIZED FREE ENERGY PREDICTED BY IDOCK:   -3.03 KCAL/MOL
REMARK 922        TOTAL FREE ENERGY PREDICTED BY IDOCK:   -4.73 KCAL/MOL
REMARK 923 INTER-LIGAND FREE ENERGY PREDICTED BY IDOCK:   -3.45 KCAL/MOL
REMARK 924 INTRA-LIGAND FREE ENERGY PREDICTED BY IDOCK:   -1.28 KCAL/MOL
REMARK 927      BINDING AFFINITY PREDICTED BY RF-SCORE:    0.00 PKD
ROOT
HETATM    1  C   UNL     1     -11.180   9.108  70.213  1.00  0.00    -0.249 C  
HETATM    2  C   UNL     1     -10.216   9.685  69.172  1.00  0.00    -0.202 C  
ENDROOT
BRANCH   2   3
HETATM    3  N   UNL     1      -9.348   8.700  68.484  1.00  0.00    -0.138 NA 
BRANCH   3   4
HETATM    4  C   UNL     1      -9.714   8.568  67.065  1.00  0.00    -0.204 C  
HETATM    5  C   UNL     1      -8.579   8.669  66.054  1.00  0.00    -0.173 C  
ENDBRANCH   3   4
BRANCH   3   6
HETATM    6  C   UNL     1      -7.887   8.963  68.730  1.00  0.00    -0.101 C  
HETATM    7  C   UNL     1      -7.755  10.314  69.491  1.00  0.00    -0.167 C  
BRANCH   6   8
HETATM    8  C   UNL     1      -7.060   7.937  69.607  1.00  0.00    -0.061 C  
BRANCH   8   9
HETATM    9  N   UNL     1      -7.733   6.669  70.023  1.00  0.00    -0.100 NA 
HETATM   10  C   UNL     1      -8.537   6.727  71.201  1.00  0.00    -0.132 A  
HETATM   11  C   UNL     1      -8.358   7.716  72.193  1.00  0.00    -0.134 A  
HETATM   12  C   UNL     1      -9.289   7.928  73.217  1.00  0.00    -0.351 A  
HETATM   13  C   UNL     1     -10.414   7.127  73.304  1.00  0.00    -0.391 A  
HETATM   14  C   UNL     1     -10.553   6.063  72.422  1.00  0.00    -0.254 A  
HETATM   15  C   UNL     1      -9.607   5.832  71.405  1.00  0.00    -0.158 A  
HETATM   16  S   UNL     1      -9.885   4.386  70.419  1.00  0.00    -0.187 SA 
HETATM   17  C   UNL     1      -8.544   4.453  69.256  1.00  0.00    -0.082 A  
HETATM   18  C   UNL     1      -8.466   3.353  68.379  1.00  0.00    -0.104 A  
HETATM   19  C   UNL     1      -7.539   3.326  67.342  1.00  0.00    -0.073 A  
HETATM   20  C   UNL     1      -6.680   4.400  67.187  1.00  0.00    -0.051 A  
HETATM   21  C   UNL     1      -6.732   5.484  68.072  1.00  0.00    -0.055 A  
HETATM   22  C   UNL     1      -7.667   5.556  69.131  1.00  0.00    -0.087 A  
ENDBRANCH   8   9
ENDBRANCH   6   8
ENDBRANCH   3   6
ENDBRANCH   2   3
TORSDOF 5
ENDMDL
MODEL      206
REMARK 921   NORMALIZED FREE ENERGY PREDICTED BY IDOCK:   -3.03 KCAL/MOL
REMARK 922        TOTAL FREE ENERGY PREDICTED BY IDOCK:   -4.73 KCAL/MOL
REMARK 923 INTER-LIGAND FREE ENERGY PREDICTED BY IDOCK:   -4.19 KCAL/MOL
REMARK 924 INTRA-LIGAND FREE ENERGY PREDICTED BY IDOCK:   -0.54 KCAL/MOL
REMARK 927      BINDING AFFINITY PREDICTED BY RF-SCORE:    0.00 PKD
ROOT
HETATM    1  C   UNL     1      -5.132  14.597  71.331  1.00  0.00    -0.142 C  
HETATM    2  C   UNL     1      -6.249  13.850  70.595  1.00  0.00    -0.065 C  
ENDROOT
BRANCH   2   3
HETATM    3  N   UNL     1      -7.019  14.652  69.614  1.00  0.00    -0.162 NA 
BRANCH   3   4
HETATM    4  C   UNL     1      -6.290  15.875  69.239  1.00  0.00    -0.153 C  
HETATM    5  C   UNL     1      -7.134  17.096  68.896  1.00  0.00    -0.242 C  
ENDBRANCH   3   4
BRANCH   3   6
HETATM    6  C   UNL     1      -7.490  13.823  68.450  1.00  0.00    -0.119 C  
HETATM    7  C   UNL     1      -6.308  12.927  67.979  1.00  0.00    -0.109 C  
BRANCH   6   8
HETATM    8  C   UNL     1      -8.688  12.812  68.664  1.00  0.00     0.057 C  
BRANCH   8   9
HETATM    9  N   UNL     1      -9.348  12.240  67.450  1.00  0.00    -0.178 NA 
HETATM   10  C   UNL     1     -10.130  13.139  66.663  1.00  0.00    -0.264 A  
HETATM   11  C   UNL     1     -10.671  14.333  67.189  1.00  0.00    -0.282 A  
HETATM   12  C   UNL     1     -11.221  15.329  66.374  1.00  0.00    -0.224 A  
HETATM   13  C   UNL     1     -11.284  15.144  65.004  1.00  0.00    -0.414 A  
HETATM   14  C   UNL     1     -10.880  13.928  64.470  1.00  0.00    -0.381 A  
HETATM   15  C   UNL     1     -10.347  12.914  65.289  1.00  0.00    -0.300 A  
HETATM   16  S   UNL     1      -9.958  11.393  64.465  1.00  0.00    -0.287 SA 
HETATM   17  C   UNL     1      -9.295  10.404  65.784  1.00  0.00    -0.186 A  
HETATM   18  C   UNL     1      -8.971   9.080  65.424  1.00  0.00    -0.249 A  
HETATM   19  C   UNL     1      -8.337   8.228  66.322  1.00  0.00    -0.124 A  
HETATM   20  C   UNL     1      -8.034   8.697  67.588  1.00  0.00    -0.107 A  
HETATM   21  C   UNL     1      -8.379  10.002  67.961  1.00  0.00    -0.117 A  
HETATM   22  C   UNL     1      -9.013  10.904  67.076  1.00  0.00    -0.143 A  
ENDBRANCH   8   9
ENDBRANCH   6   8
ENDBRANCH   3   6
ENDBRANCH   2   3
TORSDOF 5
ENDMDL
MODEL      207
REMARK 921   NORMALIZED FREE ENERGY PREDICTED BY IDOCK:   -3.00 KCAL/MOL
REMARK 922        TOTAL FREE ENERGY PREDICTED BY IDOCK:   -4.70 KCAL/MOL
REMARK 923 INTER-LIGAND FREE ENERGY PREDICTED BY IDOCK:   -4.37 KCAL/MOL
REMARK 924 INTRA-LIGAND FREE ENERGY PREDICTED BY IDOCK:   -0.33 KCAL/MOL
REMARK 927      BINDING AFFINITY PREDICTED BY RF-SCORE:    0.00 PKD
ROOT
HETATM    1  C   UNL     1      -5.265   7.933  68.109  1.00  0.00    -0.032 C  
HETATM    2  C   UNL     1      -6.658   8.344  67.627  1.00  0.00    -0.058 C  
ENDROOT
BRANCH   2   3
HETATM    3  N   UNL     1      -6.833   8.418  66.156  1.00  0.00    -0.064 NA 
BRANCH   3   4
HETATM    4  C   UNL     1      -7.182   7.103  65.596  1.00  0.00    -0.070 C  
HETATM    5  C   UNL     1      -6.294   5.931  65.995  1.00  0.00    -0.042 C  
ENDBRANCH   3   4
BRANCH   3   6
HETATM    6  C   UNL     1      -7.756   9.535  65.751  1.00  0.00    -0.100 C  
HETATM    7  C   UNL     1      -7.404   9.957  64.296  1.00  0.00    -0.133 C  
BRANCH   6   8
HETATM    8  C   UNL     1      -9.315   9.265  65.714  1.00  0.00    -0.244 C  
BRANCH   8   9
HETATM    9  N   UNL     1     -10.122   9.649  66.913  1.00  0.00    -0.212 NA 
HETATM   10  C   UNL     1     -10.457   8.600  67.822  1.00  0.00    -0.224 A  
HETATM   11  C   UNL     1     -10.484   7.242  67.436  1.00  0.00    -0.359 A  
HETATM   12  C   UNL     1     -10.568   6.199  68.366  1.00  0.00    -0.324 A  
HETATM   13  C   UNL     1     -10.668   6.485  69.717  1.00  0.00    -0.322 A  
HETATM   14  C   UNL     1     -10.776   7.810  70.118  1.00  0.00    -0.242 A  
HETATM   15  C   UNL     1     -10.715   8.862  69.183  1.00  0.00    -0.143 A  
HETATM   16  S   UNL     1     -10.952  10.488  69.847  1.00  0.00    -0.287 SA 
HETATM   17  C   UNL     1     -10.774  11.517  68.409  1.00  0.00    -0.208 A  
HETATM   18  C   UNL     1     -11.002  12.890  68.633  1.00  0.00    -0.295 A  
HETATM   19  C   UNL     1     -10.785  13.825  67.628  1.00  0.00    -0.256 A  
HETATM   20  C   UNL     1     -10.348  13.387  66.390  1.00  0.00    -0.288 A  
HETATM   21  C   UNL     1     -10.147  12.022  66.152  1.00  0.00    -0.252 A  
HETATM   22  C   UNL     1     -10.344  11.039  67.150  1.00  0.00    -0.220 A  
ENDBRANCH   8   9
ENDBRANCH   6   8
ENDBRANCH   3   6
ENDBRANCH   2   3
TORSDOF 5
ENDMDL
MODEL      208
REMARK 921   NORMALIZED FREE ENERGY PREDICTED BY IDOCK:   -3.00 KCAL/MOL
REMARK 922        TOTAL FREE ENERGY PREDICTED BY IDOCK:   -4.69 KCAL/MOL
REMARK 923 INTER-LIGAND FREE ENERGY PREDICTED BY IDOCK:   -3.80 KCAL/MOL
REMARK 924 INTRA-LIGAND FREE ENERGY PREDICTED BY IDOCK:   -0.89 KCAL/MOL
REMARK 927      BINDING AFFINITY PREDICTED BY RF-SCORE:    0.00 PKD
ROOT
HETATM    1  C   UNL     1      -8.904   8.486  65.445  1.00  0.00    -0.173 C  
HETATM    2  C   UNL     1      -8.258   7.227  66.032  1.00  0.00    -0.138 C  
ENDROOT
BRANCH   2   3
HETATM    3  N   UNL     1      -9.024   6.556  67.109  1.00  0.00    -0.112 NA 
BRANCH   3   4
HETATM    4  C   UNL     1     -10.090   5.706  66.554  1.00  0.00    -0.185 C  
HETATM    5  C   UNL     1      -9.700   4.285  66.167  1.00  0.00    -0.220 C  
ENDBRANCH   3   4
BRANCH   3   6
HETATM    6  C   UNL     1      -8.124   5.863  68.096  1.00  0.00    -0.109 C  
HETATM    7  C   UNL     1      -6.775   5.544  67.388  1.00  0.00    -0.059 C  
BRANCH   6   8
HETATM    8  C   UNL     1      -7.702   6.626  69.417  1.00  0.00    -0.101 C  
BRANCH   8   9
HETATM    9  N   UNL     1      -8.663   7.618  69.990  1.00  0.00    -0.141 NA 
HETATM   10  C   UNL     1      -8.513   8.973  69.568  1.00  0.00    -0.125 A  
HETATM   11  C   UNL     1      -7.297   9.477  69.054  1.00  0.00    -0.072 A  
HETATM   12  C   UNL     1      -7.211  10.720  68.415  1.00  0.00    -0.085 A  
HETATM   13  C   UNL     1      -8.336  11.519  68.305  1.00  0.00    -0.154 A  
HETATM   14  C   UNL     1      -9.515  11.110  68.914  1.00  0.00    -0.136 A  
HETATM   15  C   UNL     1      -9.600   9.871  69.578  1.00  0.00    -0.225 A  
HETATM   16  S   UNL     1     -11.148   9.536  70.373  1.00  0.00    -0.295 SA 
HETATM   17  C   UNL     1     -10.887   7.914  71.049  1.00  0.00    -0.235 A  
HETATM   18  C   UNL     1     -11.954   7.418  71.826  1.00  0.00    -0.338 A  
HETATM   19  C   UNL     1     -11.937   6.119  72.321  1.00  0.00    -0.285 A  
HETATM   20  C   UNL     1     -10.846   5.313  72.045  1.00  0.00    -0.230 A  
HETATM   21  C   UNL     1      -9.770   5.808  71.298  1.00  0.00    -0.210 A  
HETATM   22  C   UNL     1      -9.752   7.119  70.768  1.00  0.00    -0.171 A  
ENDBRANCH   8   9
ENDBRANCH   6   8
ENDBRANCH   3   6
ENDBRANCH   2   3
TORSDOF 5
ENDMDL
MODEL      209
REMARK 921   NORMALIZED FREE ENERGY PREDICTED BY IDOCK:   -2.91 KCAL/MOL
REMARK 922        TOTAL FREE ENERGY PREDICTED BY IDOCK:   -4.57 KCAL/MOL
REMARK 923 INTER-LIGAND FREE ENERGY PREDICTED BY IDOCK:   -3.17 KCAL/MOL
REMARK 924 INTRA-LIGAND FREE ENERGY PREDICTED BY IDOCK:   -1.40 KCAL/MOL
REMARK 927      BINDING AFFINITY PREDICTED BY RF-SCORE:    0.00 PKD
ROOT
HETATM    1  C   UNL     1      -7.063   9.324  70.082  1.00  0.00    -0.072 C  
HETATM    2  C   UNL     1      -8.381   8.746  70.604  1.00  0.00    -0.154 C  
ENDROOT
BRANCH   2   3
HETATM    3  N   UNL     1      -8.960   7.641  69.803  1.00  0.00    -0.140 NA 
BRANCH   3   4
HETATM    4  C   UNL     1      -8.938   6.374  70.551  1.00  0.00    -0.151 C  
HETATM    5  C   UNL     1      -8.529   5.129  69.775  1.00  0.00    -0.097 C  
ENDBRANCH   3   4
BRANCH   3   6
HETATM    6  C   UNL     1     -10.302   8.003  69.226  1.00  0.00    -0.220 C  
HETATM    7  C   UNL     1     -10.809   9.291  69.937  1.00  0.00    -0.252 C  
BRANCH   6   8
HETATM    8  C   UNL     1     -10.408   8.340  67.683  1.00  0.00    -0.248 C  
BRANCH   8   9
HETATM    9  N   UNL     1      -9.252   7.979  66.806  1.00  0.00    -0.155 NA 
HETATM   10  C   UNL     1      -8.266   8.990  66.598  1.00  0.00    -0.118 A  
HETATM   11  C   UNL     1      -8.541  10.365  66.766  1.00  0.00    -0.125 A  
HETATM   12  C   UNL     1      -7.531  11.333  66.806  1.00  0.00    -0.146 A  
HETATM   13  C   UNL     1      -6.209  10.958  66.638  1.00  0.00    -0.113 A  
HETATM   14  C   UNL     1      -5.917   9.633  66.341  1.00  0.00    -0.059 A  
HETATM   15  C   UNL     1      -6.933   8.660  66.277  1.00  0.00    -0.077 A  
HETATM   16  S   UNL     1      -6.405   7.036  65.805  1.00  0.00    -0.047 SA 
HETATM   17  C   UNL     1      -7.919   6.108  65.871  1.00  0.00    -0.112 A  
HETATM   18  C   UNL     1      -7.808   4.766  65.452  1.00  0.00    -0.091 A  
HETATM   19  C   UNL     1      -8.884   3.891  65.560  1.00  0.00    -0.124 A  
HETATM   20  C   UNL     1     -10.077   4.361  66.081  1.00  0.00    -0.257 A  
HETATM   21  C   UNL     1     -10.202   5.699  66.472  1.00  0.00    -0.259 A  
HETATM   22  C   UNL     1      -9.131   6.618  66.390  1.00  0.00    -0.152 A  
ENDBRANCH   8   9
ENDBRANCH   6   8
ENDBRANCH   3   6
ENDBRANCH   2   3
TORSDOF 5
ENDMDL
MODEL      210
REMARK 921   NORMALIZED FREE ENERGY PREDICTED BY IDOCK:   -2.88 KCAL/MOL
REMARK 922        TOTAL FREE ENERGY PREDICTED BY IDOCK:   -4.54 KCAL/MOL
REMARK 923 INTER-LIGAND FREE ENERGY PREDICTED BY IDOCK:   -3.79 KCAL/MOL
REMARK 924 INTRA-LIGAND FREE ENERGY PREDICTED BY IDOCK:   -0.75 KCAL/MOL
REMARK 927      BINDING AFFINITY PREDICTED BY RF-SCORE:    0.00 PKD
ROOT
HETATM    1  C   UNL     1      -6.337   8.336  73.050  1.00  0.00    -0.096 C  
HETATM    2  C   UNL     1      -7.595   7.897  72.295  1.00  0.00    -0.098 C  
ENDROOT
BRANCH   2   3
HETATM    3  N   UNL     1      -7.922   8.685  71.082  1.00  0.00    -0.125 NA 
BRANCH   3   4
HETATM    4  C   UNL     1      -7.014   9.833  70.932  1.00  0.00     0.023 C  
HETATM    5  C   UNL     1      -6.087   9.818  69.723  1.00  0.00    -0.043 C  
ENDBRANCH   3   4
BRANCH   3   6
HETATM    6  C   UNL     1      -8.039   7.817  69.858  1.00  0.00    -0.120 C  
HETATM    7  C   UNL     1      -7.961   6.329  70.304  1.00  0.00    -0.112 C  
BRANCH   6   8
HETATM    8  C   UNL     1      -9.357   7.896  68.985  1.00  0.00    -0.151 C  
BRANCH   8   9
HETATM    9  N   UNL     1      -9.659   9.183  68.286  1.00  0.00    -0.146 NA 
HETATM   10  C   UNL     1      -9.104   9.347  66.980  1.00  0.00    -0.134 A  
HETATM   11  C   UNL     1      -7.974   8.624  66.540  1.00  0.00    -0.099 A  
HETATM   12  C   UNL     1      -7.578   8.596  65.197  1.00  0.00    -0.093 A  
HETATM   13  C   UNL     1      -8.282   9.326  64.255  1.00  0.00    -0.153 A  
HETATM   14  C   UNL     1      -9.317  10.149  64.677  1.00  0.00    -0.334 A  
HETATM   15  C   UNL     1      -9.704  10.199  66.030  1.00  0.00    -0.226 A  
HETATM   16  S   UNL     1     -10.985  11.361  66.416  1.00  0.00    -0.221 SA 
HETATM   17  C   UNL     1     -11.215  11.110  68.160  1.00  0.00    -0.292 A  
HETATM   18  C   UNL     1     -12.141  11.984  68.765  1.00  0.00    -0.166 A  
HETATM   19  C   UNL     1     -12.507  11.828  70.098  1.00  0.00    -0.182 A  
HETATM   20  C   UNL     1     -11.938  10.802  70.831  1.00  0.00    -0.438 A  
HETATM   21  C   UNL     1     -10.996   9.948  70.244  1.00  0.00    -0.366 A  
HETATM   22  C   UNL     1     -10.606  10.064  68.890  1.00  0.00    -0.218 A  
ENDBRANCH   8   9
ENDBRANCH   6   8
ENDBRANCH   3   6
ENDBRANCH   2   3
TORSDOF 5
ENDMDL
MODEL      211
REMARK 921   NORMALIZED FREE ENERGY PREDICTED BY IDOCK:   -2.88 KCAL/MOL
REMARK 922        TOTAL FREE ENERGY PREDICTED BY IDOCK:   -4.54 KCAL/MOL
REMARK 923 INTER-LIGAND FREE ENERGY PREDICTED BY IDOCK:   -3.71 KCAL/MOL
REMARK 924 INTRA-LIGAND FREE ENERGY PREDICTED BY IDOCK:   -0.83 KCAL/MOL
REMARK 927      BINDING AFFINITY PREDICTED BY RF-SCORE:    0.00 PKD
ROOT
HETATM    1  C   UNL     1     -10.200   6.795  74.153  1.00  0.00    -0.370 C  
HETATM    2  C   UNL     1     -10.643   7.461  72.848  1.00  0.00    -0.321 C  
ENDROOT
BRANCH   2   3
HETATM    3  N   UNL     1     -10.269   6.747  71.603  1.00  0.00    -0.192 NA 
BRANCH   3   4
HETATM    4  C   UNL     1     -11.463   6.283  70.878  1.00  0.00    -0.312 C  
HETATM    5  C   UNL     1     -11.412   6.360  69.357  1.00  0.00    -0.374 C  
ENDBRANCH   3   4
BRANCH   3   6
HETATM    6  C   UNL     1      -9.298   7.536  70.767  1.00  0.00    -0.162 C  
HETATM    7  C   UNL     1      -8.805   8.750  71.606  1.00  0.00    -0.278 C  
BRANCH   6   8
HETATM    8  C   UNL     1      -7.968   6.836  70.271  1.00  0.00    -0.115 C  
BRANCH   8   9
HETATM    9  N   UNL     1      -8.079   5.806  69.193  1.00  0.00    -0.100 NA 
HETATM   10  C   UNL     1      -8.401   4.478  69.607  1.00  0.00    -0.069 A  
HETATM   11  C   UNL     1      -8.162   4.013  70.920  1.00  0.00    -0.075 A  
HETATM   12  C   UNL     1      -8.695   2.810  71.398  1.00  0.00    -0.115 A  
HETATM   13  C   UNL     1      -9.453   2.010  70.561  1.00  0.00    -0.171 A  
HETATM   14  C   UNL     1      -9.596   2.375  69.228  1.00  0.00    -0.041 A  
HETATM   15  C   UNL     1      -9.043   3.573  68.738  1.00  0.00    -0.145 A  
HETATM   16  S   UNL     1      -9.243   3.850  66.999  1.00  0.00    -0.188 SA 
HETATM   17  C   UNL     1      -8.469   5.433  66.772  1.00  0.00    -0.107 A  
HETATM   18  C   UNL     1      -8.406   5.874  65.435  1.00  0.00    -0.149 A  
HETATM   19  C   UNL     1      -7.932   7.144  65.121  1.00  0.00    -0.128 A  
HETATM   20  C   UNL     1      -7.511   7.972  66.147  1.00  0.00    -0.075 A  
HETATM   21  C   UNL     1      -7.543   7.529  67.474  1.00  0.00    -0.113 A  
HETATM   22  C   UNL     1      -8.028   6.251  67.838  1.00  0.00    -0.111 A  
ENDBRANCH   8   9
ENDBRANCH   6   8
ENDBRANCH   3   6
ENDBRANCH   2   3
TORSDOF 5
ENDMDL
MODEL      212
REMARK 921   NORMALIZED FREE ENERGY PREDICTED BY IDOCK:   -2.85 KCAL/MOL
REMARK 922        TOTAL FREE ENERGY PREDICTED BY IDOCK:   -4.50 KCAL/MOL
REMARK 923 INTER-LIGAND FREE ENERGY PREDICTED BY IDOCK:   -3.88 KCAL/MOL
REMARK 924 INTRA-LIGAND FREE ENERGY PREDICTED BY IDOCK:   -0.62 KCAL/MOL
REMARK 927      BINDING AFFINITY PREDICTED BY RF-SCORE:    0.00 PKD
ROOT
HETATM    1  C   UNL     1      -8.936   7.217  72.125  1.00  0.00    -0.148 C  
HETATM    2  C   UNL     1      -9.809   7.085  70.874  1.00  0.00    -0.185 C  
ENDROOT
BRANCH   2   3
HETATM    3  N   UNL     1      -9.088   6.756  69.620  1.00  0.00    -0.143 NA 
BRANCH   3   4
HETATM    4  C   UNL     1      -9.296   5.349  69.242  1.00  0.00    -0.120 C  
HETATM    5  C   UNL     1     -10.031   4.472  70.247  1.00  0.00    -0.288 C  
ENDBRANCH   3   4
BRANCH   3   6
HETATM    6  C   UNL     1      -9.377   7.747  68.525  1.00  0.00    -0.147 C  
HETATM    7  C   UNL     1     -10.576   7.214  67.688  1.00  0.00    -0.318 C  
BRANCH   6   8
HETATM    8  C   UNL     1      -9.797   9.222  68.916  1.00  0.00    -0.165 C  
BRANCH   8   9
HETATM    9  N   UNL     1      -8.941  10.347  68.427  1.00  0.00    -0.132 NA 
HETATM   10  C   UNL     1      -9.435  11.088  67.312  1.00  0.00    -0.164 A  
HETATM   11  C   UNL     1     -10.380  10.558  66.406  1.00  0.00    -0.283 A  
HETATM   12  C   UNL     1     -11.046  11.353  65.466  1.00  0.00    -0.203 A  
HETATM   13  C   UNL     1     -10.758  12.703  65.376  1.00  0.00    -0.308 A  
HETATM   14  C   UNL     1      -9.741  13.228  66.162  1.00  0.00    -0.258 A  
HETATM   15  C   UNL     1      -9.052  12.427  67.092  1.00  0.00    -0.199 A  
HETATM   16  S   UNL     1      -7.727  13.228  67.956  1.00  0.00    -0.163 SA 
HETATM   17  C   UNL     1      -7.143  11.943  69.035  1.00  0.00    -0.092 A  
HETATM   18  C   UNL     1      -6.009  12.284  69.799  1.00  0.00    -0.137 A  
HETATM   19  C   UNL     1      -5.512  11.419  70.769  1.00  0.00    -0.126 A  
HETATM   20  C   UNL     1      -6.146  10.206  70.970  1.00  0.00    -0.003 A  
HETATM   21  C   UNL     1      -7.255   9.848  70.194  1.00  0.00    -0.159 A  
HETATM   22  C   UNL     1      -7.799  10.702  69.206  1.00  0.00    -0.138 A  
ENDBRANCH   8   9
ENDBRANCH   6   8
ENDBRANCH   3   6
ENDBRANCH   2   3
TORSDOF 5
ENDMDL
MODEL      213
REMARK 921   NORMALIZED FREE ENERGY PREDICTED BY IDOCK:   -2.84 KCAL/MOL
REMARK 922        TOTAL FREE ENERGY PREDICTED BY IDOCK:   -4.49 KCAL/MOL
REMARK 923 INTER-LIGAND FREE ENERGY PREDICTED BY IDOCK:   -3.78 KCAL/MOL
REMARK 924 INTRA-LIGAND FREE ENERGY PREDICTED BY IDOCK:   -0.71 KCAL/MOL
REMARK 927      BINDING AFFINITY PREDICTED BY RF-SCORE:    0.00 PKD
ROOT
HETATM    1  C   UNL     1      -5.127  14.594  71.328  1.00  0.00    -0.136 C  
HETATM    2  C   UNL     1      -6.210  13.828  70.562  1.00  0.00    -0.058 C  
ENDROOT
BRANCH   2   3
HETATM    3  N   UNL     1      -6.973  14.619  69.566  1.00  0.00    -0.163 NA 
BRANCH   3   4
HETATM    4  C   UNL     1      -6.276  15.872  69.236  1.00  0.00    -0.146 C  
HETATM    5  C   UNL     1      -7.150  17.069  68.883  1.00  0.00    -0.233 C  
ENDBRANCH   3   4
BRANCH   3   6
HETATM    6  C   UNL     1      -7.372  13.793  68.373  1.00  0.00    -0.117 C  
HETATM    7  C   UNL     1      -6.140  12.955  67.925  1.00  0.00    -0.125 C  
BRANCH   6   8
HETATM    8  C   UNL     1      -8.534  12.730  68.531  1.00  0.00    -0.044 C  
BRANCH   8   9
HETATM    9  N   UNL     1      -9.862  13.048  67.921  1.00  0.00    -0.218 NA 
HETATM   10  C   UNL     1     -10.619  14.087  68.542  1.00  0.00    -0.254 A  
HETATM   11  C   UNL     1     -10.418  14.472  69.886  1.00  0.00     0.125 A  
HETATM   12  C   UNL     1     -10.975  15.639  70.422  1.00  0.00    -0.366 A  
HETATM   13  C   UNL     1     -11.787  16.440  69.638  1.00  0.00     0.186 A  
HETATM   14  C   UNL     1     -12.109  16.021  68.354  1.00  0.00     0.300 A  
HETATM   15  C   UNL     1     -11.569  14.835  67.818  1.00  0.00    -0.357 A  
HETATM   16  S   UNL     1     -12.145  14.398  66.200  1.00  0.00    -0.310 SA 
HETATM   17  C   UNL     1     -11.236  12.909  65.861  1.00  0.00    -0.293 A  
HETATM   18  C   UNL     1     -11.565  12.280  64.644  1.00  0.00    -0.404 A  
HETATM   19  C   UNL     1     -10.855  11.172  64.194  1.00  0.00    -0.355 A  
HETATM   20  C   UNL     1      -9.817  10.685  64.969  1.00  0.00    -0.353 A  
HETATM   21  C   UNL     1      -9.504  11.287  66.194  1.00  0.00    -0.232 A  
HETATM   22  C   UNL     1     -10.193  12.422  66.681  1.00  0.00    -0.224 A  
ENDBRANCH   8   9
ENDBRANCH   6   8
ENDBRANCH   3   6
ENDBRANCH   2   3
TORSDOF 5
ENDMDL
MODEL      214
REMARK 921   NORMALIZED FREE ENERGY PREDICTED BY IDOCK:   -2.83 KCAL/MOL
REMARK 922        TOTAL FREE ENERGY PREDICTED BY IDOCK:   -4.48 KCAL/MOL
REMARK 923 INTER-LIGAND FREE ENERGY PREDICTED BY IDOCK:   -4.18 KCAL/MOL
REMARK 924 INTRA-LIGAND FREE ENERGY PREDICTED BY IDOCK:   -0.30 KCAL/MOL
REMARK 927      BINDING AFFINITY PREDICTED BY RF-SCORE:    0.00 PKD
ROOT
HETATM    1  C   UNL     1      -8.489   9.600  70.147  1.00  0.00    -0.231 C  
HETATM    2  C   UNL     1      -9.270   8.853  71.232  1.00  0.00    -0.258 C  
ENDROOT
BRANCH   2   3
HETATM    3  N   UNL     1     -10.658   8.473  70.877  1.00  0.00    -0.201 NA 
BRANCH   3   4
HETATM    4  C   UNL     1     -11.406   9.624  70.346  1.00  0.00    -0.277 C  
HETATM    5  C   UNL     1     -12.686  10.005  71.079  1.00  0.00    -0.455 C  
ENDBRANCH   3   4
BRANCH   3   6
HETATM    6  C   UNL     1     -10.704   7.244  70.008  1.00  0.00    -0.245 C  
HETATM    7  C   UNL     1     -11.892   6.357  70.479  1.00  0.00    -0.316 C  
BRANCH   6   8
HETATM    8  C   UNL     1     -10.935   7.414  68.452  1.00  0.00     0.076 C  
BRANCH   8   9
HETATM    9  N   UNL     1      -9.771   7.837  67.613  1.00  0.00    -0.148 NA 
HETATM   10  C   UNL     1      -8.706   6.896  67.474  1.00  0.00    -0.120 A  
HETATM   11  C   UNL     1      -8.485   5.858  68.406  1.00  0.00    -0.111 A  
HETATM   12  C   UNL     1      -7.609   4.796  68.151  1.00  0.00    -0.081 A  
HETATM   13  C   UNL     1      -6.894   4.760  66.967  1.00  0.00    -0.056 A  
HETATM   14  C   UNL     1      -6.991   5.832  66.089  1.00  0.00    -0.059 A  
HETATM   15  C   UNL     1      -7.853   6.913  66.352  1.00  0.00    -0.103 A  
HETATM   16  S   UNL     1      -7.797   8.237  65.175  1.00  0.00    -0.128 SA 
HETATM   17  C   UNL     1      -9.014   9.365  65.811  1.00  0.00    -0.186 A  
HETATM   18  C   UNL     1      -9.125  10.577  65.101  1.00  0.00    -0.227 A  
HETATM   19  C   UNL     1     -10.114  11.504  65.414  1.00  0.00    -0.304 A  
HETATM   20  C   UNL     1     -10.990  11.221  66.447  1.00  0.00    -0.285 A  
HETATM   21  C   UNL     1     -10.868  10.032  67.176  1.00  0.00    -0.240 A  
HETATM   22  C   UNL     1      -9.885   9.059  66.883  1.00  0.00    -0.224 A  
ENDBRANCH   8   9
ENDBRANCH   6   8
ENDBRANCH   3   6
ENDBRANCH   2   3
TORSDOF 5
ENDMDL
MODEL      215
REMARK 921   NORMALIZED FREE ENERGY PREDICTED BY IDOCK:   -2.82 KCAL/MOL
REMARK 922        TOTAL FREE ENERGY PREDICTED BY IDOCK:   -4.46 KCAL/MOL
REMARK 923 INTER-LIGAND FREE ENERGY PREDICTED BY IDOCK:   -4.45 KCAL/MOL
REMARK 924 INTRA-LIGAND FREE ENERGY PREDICTED BY IDOCK:   -0.01 KCAL/MOL
REMARK 927      BINDING AFFINITY PREDICTED BY RF-SCORE:    0.00 PKD
ROOT
HETATM    1  C   UNL     1      -7.292   9.769  65.232  1.00  0.00    -0.120 C  
HETATM    2  C   UNL     1      -8.746   9.961  64.792  1.00  0.00    -0.189 C  
ENDROOT
BRANCH   2   3
HETATM    3  N   UNL     1      -9.540  10.919  65.598  1.00  0.00    -0.212 NA 
BRANCH   3   4
HETATM    4  C   UNL     1     -10.680  11.443  64.829  1.00  0.00    -0.298 C  
HETATM    5  C   UNL     1     -10.676  12.938  64.534  1.00  0.00    -0.392 C  
ENDBRANCH   3   4
BRANCH   3   6
HETATM    6  C   UNL     1      -9.901  10.360  66.948  1.00  0.00    -0.191 C  
HETATM    7  C   UNL     1      -9.968   8.810  66.833  1.00  0.00    -0.327 C  
BRANCH   6   8
HETATM    8  C   UNL     1      -8.931  10.621  68.171  1.00  0.00    -0.141 C  
BRANCH   8   9
HETATM    9  N   UNL     1      -8.908   9.613  69.275  1.00  0.00    -0.153 NA 
HETATM   10  C   UNL     1     -10.061   9.556  70.115  1.00  0.00    -0.249 A  
HETATM   11  C   UNL     1     -10.951  10.644  70.255  1.00  0.00    -0.237 A  
HETATM   12  C   UNL     1     -12.200  10.516  70.874  1.00  0.00    -0.490 A  
HETATM   13  C   UNL     1     -12.583   9.299  71.410  1.00  0.00    -0.411 A  
HETATM   14  C   UNL     1     -11.678   8.245  71.404  1.00  0.00    -0.327 A  
HETATM   15  C   UNL     1     -10.411   8.377  70.803  1.00  0.00    -0.197 A  
HETATM   16  S   UNL     1      -9.345   6.970  70.955  1.00  0.00    -0.158 SA 
HETATM   17  C   UNL     1      -7.897   7.490  70.066  1.00  0.00    -0.099 A  
HETATM   18  C   UNL     1      -6.825   6.576  70.095  1.00  0.00    -0.058 A  
HETATM   19  C   UNL     1      -5.673   6.798  69.349  1.00  0.00    -0.015 A  
HETATM   20  C   UNL     1      -5.588   7.943  68.576  1.00  0.00    -0.028 A  
HETATM   21  C   UNL     1      -6.637   8.870  68.565  1.00  0.00    -0.059 A  
HETATM   22  C   UNL     1      -7.830   8.677  69.300  1.00  0.00    -0.101 A  
ENDBRANCH   8   9
ENDBRANCH   6   8
ENDBRANCH   3   6
ENDBRANCH   2   3
TORSDOF 5
ENDMDL
MODEL      216
REMARK 921   NORMALIZED FREE ENERGY PREDICTED BY IDOCK:   -2.82 KCAL/MOL
REMARK 922        TOTAL FREE ENERGY PREDICTED BY IDOCK:   -4.46 KCAL/MOL
REMARK 923 INTER-LIGAND FREE ENERGY PREDICTED BY IDOCK:   -4.26 KCAL/MOL
REMARK 924 INTRA-LIGAND FREE ENERGY PREDICTED BY IDOCK:   -0.20 KCAL/MOL
REMARK 927      BINDING AFFINITY PREDICTED BY RF-SCORE:    0.00 PKD
ROOT
HETATM    1  C   UNL     1     -12.382  14.269  66.369  1.00  0.00    -0.378 C  
HETATM    2  C   UNL     1     -11.144  13.549  65.829  1.00  0.00    -0.286 C  
ENDROOT
BRANCH   2   3
HETATM    3  N   UNL     1     -11.259  12.075  65.712  1.00  0.00    -0.329 NA 
BRANCH   3   4
HETATM    4  C   UNL     1     -11.152  11.644  64.309  1.00  0.00    -0.338 C  
HETATM    5  C   UNL     1     -12.244  12.123  63.361  1.00  0.00    -0.635 C  
ENDBRANCH   3   4
BRANCH   3   6
HETATM    6  C   UNL     1     -10.334  11.358  66.658  1.00  0.00    -0.233 C  
HETATM    7  C   UNL     1     -10.875   9.915  66.870  1.00  0.00    -0.137 C  
BRANCH   6   8
HETATM    8  C   UNL     1      -8.821  11.152  66.242  1.00  0.00    -0.185 C  
BRANCH   8   9
HETATM    9  N   UNL     1      -8.237   9.781  66.376  1.00  0.00    -0.119 NA 
HETATM   10  C   UNL     1      -7.949   9.335  67.701  1.00  0.00    -0.103 A  
HETATM   11  C   UNL     1      -7.746  10.229  68.775  1.00  0.00    -0.096 A  
HETATM   12  C   UNL     1      -7.708   9.804  70.108  1.00  0.00    -0.188 A  
HETATM   13  C   UNL     1      -7.834   8.458  70.407  1.00  0.00    -0.090 A  
HETATM   14  C   UNL     1      -7.904   7.541  69.367  1.00  0.00    -0.121 A  
HETATM   15  C   UNL     1      -7.919   7.963  68.023  1.00  0.00    -0.128 A  
HETATM   16  S   UNL     1      -7.927   6.666  66.816  1.00  0.00    -0.110 SA 
HETATM   17  C   UNL     1      -7.980   7.568  65.286  1.00  0.00    -0.126 A  
HETATM   18  C   UNL     1      -7.910   6.770  64.127  1.00  0.00    -0.106 A  
HETATM   19  C   UNL     1      -8.057   7.329  62.862  1.00  0.00    -0.057 A  
HETATM   20  C   UNL     1      -8.267   8.693  62.755  1.00  0.00    -0.188 A  
HETATM   21  C   UNL     1      -8.309   9.496  63.901  1.00  0.00    -0.172 A  
HETATM   22  C   UNL     1      -8.176   8.966  65.205  1.00  0.00    -0.137 A  
ENDBRANCH   8   9
ENDBRANCH   6   8
ENDBRANCH   3   6
ENDBRANCH   2   3
TORSDOF 5
ENDMDL
MODEL      217
REMARK 921   NORMALIZED FREE ENERGY PREDICTED BY IDOCK:   -2.82 KCAL/MOL
REMARK 922        TOTAL FREE ENERGY PREDICTED BY IDOCK:   -4.46 KCAL/MOL
REMARK 923 INTER-LIGAND FREE ENERGY PREDICTED BY IDOCK:   -3.46 KCAL/MOL
REMARK 924 INTRA-LIGAND FREE ENERGY PREDICTED BY IDOCK:   -1.00 KCAL/MOL
REMARK 927      BINDING AFFINITY PREDICTED BY RF-SCORE:    0.00 PKD
ROOT
HETATM    1  C   UNL     1      -7.127   9.511  70.443  1.00  0.00    -0.120 C  
HETATM    2  C   UNL     1      -7.599   8.728  71.670  1.00  0.00    -0.070 C  
ENDROOT
BRANCH   2   3
HETATM    3  N   UNL     1      -8.149   7.378  71.398  1.00  0.00    -0.096 NA 
BRANCH   3   4
HETATM    4  C   UNL     1      -7.342   6.334  72.051  1.00  0.00    -0.093 C  
HETATM    5  C   UNL     1      -6.576   6.745  73.301  1.00  0.00    -0.064 C  
ENDBRANCH   3   4
BRANCH   3   6
HETATM    6  C   UNL     1      -9.624   7.298  71.685  1.00  0.00    -0.151 C  
HETATM    7  C   UNL     1     -10.106   8.699  72.159  1.00  0.00    -0.388 C  
BRANCH   6   8
HETATM    8  C   UNL     1     -10.614   6.921  70.509  1.00  0.00    -0.220 C  
BRANCH   8   9
HETATM    9  N   UNL     1     -10.027   6.627  69.166  1.00  0.00    -0.154 NA 
HETATM   10  C   UNL     1      -9.955   7.716  68.246  1.00  0.00    -0.176 A  
HETATM   11  C   UNL     1     -10.786   8.854  68.351  1.00  0.00    -0.126 A  
HETATM   12  C   UNL     1     -10.556  10.021  67.613  1.00  0.00    -0.323 A  
HETATM   13  C   UNL     1      -9.506  10.073  66.713  1.00  0.00    -0.209 A  
HETATM   14  C   UNL     1      -8.752   8.928  66.492  1.00  0.00    -0.145 A  
HETATM   15  C   UNL     1      -8.994   7.745  67.215  1.00  0.00    -0.127 A  
HETATM   16  S   UNL     1      -8.000   6.352  66.754  1.00  0.00    -0.110 SA 
HETATM   17  C   UNL     1      -8.557   5.096  67.882  1.00  0.00    -0.103 A  
HETATM   18  C   UNL     1      -7.981   3.826  67.683  1.00  0.00    -0.085 A  
HETATM   19  C   UNL     1      -8.234   2.778  68.561  1.00  0.00    -0.080 A  
HETATM   20  C   UNL     1      -9.074   2.998  69.639  1.00  0.00    -0.197 A  
HETATM   21  C   UNL     1      -9.672   4.250  69.827  1.00  0.00    -0.290 A  
HETATM   22  C   UNL     1      -9.432   5.344  68.964  1.00  0.00    -0.133 A  
ENDBRANCH   8   9
ENDBRANCH   6   8
ENDBRANCH   3   6
ENDBRANCH   2   3
TORSDOF 5
ENDMDL
MODEL      218
REMARK 921   NORMALIZED FREE ENERGY PREDICTED BY IDOCK:   -2.80 KCAL/MOL
REMARK 922        TOTAL FREE ENERGY PREDICTED BY IDOCK:   -4.43 KCAL/MOL
REMARK 923 INTER-LIGAND FREE ENERGY PREDICTED BY IDOCK:   -4.17 KCAL/MOL
REMARK 924 INTRA-LIGAND FREE ENERGY PREDICTED BY IDOCK:   -0.26 KCAL/MOL
REMARK 927      BINDING AFFINITY PREDICTED BY RF-SCORE:    0.00 PKD
ROOT
HETATM    1  C   UNL     1     -10.685  12.208  68.195  1.00  0.00    -0.238 C  
HETATM    2  C   UNL     1      -9.705  11.130  67.723  1.00  0.00    -0.171 C  
ENDROOT
BRANCH   2   3
HETATM    3  N   UNL     1     -10.305  10.002  66.971  1.00  0.00    -0.236 NA 
BRANCH   3   4
HETATM    4  C   UNL     1      -9.693   9.866  65.639  1.00  0.00    -0.279 C  
HETATM    5  C   UNL     1     -10.269  10.737  64.530  1.00  0.00    -0.428 C  
ENDBRANCH   3   4
BRANCH   3   6
HETATM    6  C   UNL     1     -10.331   8.733  67.779  1.00  0.00    -0.237 C  
HETATM    7  C   UNL     1     -10.460   7.532  66.798  1.00  0.00    -0.319 C  
BRANCH   6   8
HETATM    8  C   UNL     1      -9.080   8.372  68.679  1.00  0.00    -0.140 C  
BRANCH   8   9
HETATM    9  N   UNL     1      -9.010   6.997  69.262  1.00  0.00    -0.138 NA 
HETATM   10  C   UNL     1      -7.915   6.180  68.847  1.00  0.00    -0.101 A  
HETATM   11  C   UNL     1      -7.216   6.405  67.640  1.00  0.00    -0.086 A  
HETATM   12  C   UNL     1      -6.001   5.774  67.349  1.00  0.00    -0.018 A  
HETATM   13  C   UNL     1      -5.464   4.863  68.242  1.00  0.00    -0.015 A  
HETATM   14  C   UNL     1      -6.191   4.524  69.376  1.00  0.00    -0.027 A  
HETATM   15  C   UNL     1      -7.425   5.139  69.661  1.00  0.00    -0.061 A  
HETATM   16  S   UNL     1      -8.264   4.534  71.100  1.00  0.00    -0.088 SA 
HETATM   17  C   UNL     1      -9.721   5.551  71.148  1.00  0.00    -0.174 A  
HETATM   18  C   UNL     1     -10.636   5.225  72.170  1.00  0.00    -0.281 A  
HETATM   19  C   UNL     1     -11.762   6.008  72.399  1.00  0.00    -0.322 A  
HETATM   20  C   UNL     1     -11.980   7.116  71.599  1.00  0.00    -0.353 A  
HETATM   21  C   UNL     1     -11.090   7.429  70.565  1.00  0.00    -0.280 A  
HETATM   22  C   UNL     1      -9.928   6.667  70.305  1.00  0.00    -0.174 A  
ENDBRANCH   8   9
ENDBRANCH   6   8
ENDBRANCH   3   6
ENDBRANCH   2   3
TORSDOF 5
ENDMDL
MODEL      219
REMARK 921   NORMALIZED FREE ENERGY PREDICTED BY IDOCK:   -2.80 KCAL/MOL
REMARK 922        TOTAL FREE ENERGY PREDICTED BY IDOCK:   -4.43 KCAL/MOL
REMARK 923 INTER-LIGAND FREE ENERGY PREDICTED BY IDOCK:   -3.42 KCAL/MOL
REMARK 924 INTRA-LIGAND FREE ENERGY PREDICTED BY IDOCK:   -1.02 KCAL/MOL
REMARK 927      BINDING AFFINITY PREDICTED BY RF-SCORE:    0.00 PKD
ROOT
HETATM    1  C   UNL     1     -11.990  13.708  68.011  1.00  0.00    -0.385 C  
HETATM    2  C   UNL     1     -10.520  13.532  68.403  1.00  0.00    -0.246 C  
ENDROOT
BRANCH   2   3
HETATM    3  N   UNL     1      -9.895  12.252  67.993  1.00  0.00    -0.198 NA 
BRANCH   3   4
HETATM    4  C   UNL     1     -10.865  11.382  67.310  1.00  0.00    -0.263 C  
HETATM    5  C   UNL     1     -10.465  10.859  65.936  1.00  0.00    -0.285 C  
ENDBRANCH   3   4
BRANCH   3   6
HETATM    6  C   UNL     1      -8.609  12.465  67.242  1.00  0.00    -0.185 C  
HETATM    7  C   UNL     1      -8.196  13.958  67.392  1.00  0.00    -0.198 C  
BRANCH   6   8
HETATM    8  C   UNL     1      -7.321  11.656  67.681  1.00  0.00    -0.108 C  
BRANCH   8   9
HETATM    9  N   UNL     1      -7.289  10.187  67.405  1.00  0.00    -0.089 NA 
HETATM   10  C   UNL     1      -7.729   9.328  68.457  1.00  0.00    -0.085 A  
HETATM   11  C   UNL     1      -7.736   9.729  69.811  1.00  0.00    -0.145 A  
HETATM   12  C   UNL     1      -8.390   8.995  70.807  1.00  0.00    -0.228 A  
HETATM   13  C   UNL     1      -9.027   7.809  70.485  1.00  0.00    -0.150 A  
HETATM   14  C   UNL     1      -8.927   7.322  69.189  1.00  0.00    -0.135 A  
HETATM   15  C   UNL     1      -8.250   8.046  68.188  1.00  0.00    -0.126 A  
HETATM   16  S   UNL     1      -8.142   7.248  66.610  1.00  0.00    -0.116 SA 
HETATM   17  C   UNL     1      -7.277   8.453  65.631  1.00  0.00    -0.075 A  
HETATM   18  C   UNL     1      -6.971   8.039  64.319  1.00  0.00    -0.072 A  
HETATM   19  C   UNL     1      -6.400   8.918  63.405  1.00  0.00    -0.089 A  
HETATM   20  C   UNL     1      -6.126  10.214  63.807  1.00  0.00    -0.138 A  
HETATM   21  C   UNL     1      -6.401  10.623  65.117  1.00  0.00     0.001 A  
HETATM   22  C   UNL     1      -6.991   9.765  66.074  1.00  0.00    -0.099 A  
ENDBRANCH   8   9
ENDBRANCH   6   8
ENDBRANCH   3   6
ENDBRANCH   2   3
TORSDOF 5
ENDMDL
MODEL      220
REMARK 921   NORMALIZED FREE ENERGY PREDICTED BY IDOCK:   -2.79 KCAL/MOL
REMARK 922        TOTAL FREE ENERGY PREDICTED BY IDOCK:   -4.43 KCAL/MOL
REMARK 923 INTER-LIGAND FREE ENERGY PREDICTED BY IDOCK:   -4.73 KCAL/MOL
REMARK 924 INTRA-LIGAND FREE ENERGY PREDICTED BY IDOCK:    0.30 KCAL/MOL
REMARK 927      BINDING AFFINITY PREDICTED BY RF-SCORE:    0.00 PKD
ROOT
HETATM    1  C   UNL     1     -10.664   7.558  66.955  1.00  0.00    -0.367 C  
HETATM    2  C   UNL     1     -10.449   8.063  68.385  1.00  0.00    -0.163 C  
ENDROOT
BRANCH   2   3
HETATM    3  N   UNL     1      -9.895   9.433  68.505  1.00  0.00    -0.153 NA 
BRANCH   3   4
HETATM    4  C   UNL     1     -10.127   9.983  69.851  1.00  0.00    -0.246 C  
HETATM    5  C   UNL     1     -11.280   9.383  70.645  1.00  0.00    -0.345 C  
ENDBRANCH   3   4
BRANCH   3   6
HETATM    6  C   UNL     1      -8.468   9.510  68.036  1.00  0.00    -0.119 C  
HETATM    7  C   UNL     1      -8.030   8.092  67.568  1.00  0.00    -0.122 C  
BRANCH   6   8
HETATM    8  C   UNL     1      -8.111  10.453  66.817  1.00  0.00    -0.120 C  
BRANCH   8   9
HETATM    9  N   UNL     1      -8.692  11.831  66.803  1.00  0.00    -0.188 NA 
HETATM   10  C   UNL     1      -8.080  12.792  67.664  1.00  0.00    -0.175 A  
HETATM   11  C   UNL     1      -7.326  12.422  68.799  1.00  0.00    -0.076 A  
HETATM   12  C   UNL     1      -6.527  13.334  69.498  1.00  0.00    -0.078 A  
HETATM   13  C   UNL     1      -6.488  14.660  69.105  1.00  0.00    -0.110 A  
HETATM   14  C   UNL     1      -7.318  15.082  68.075  1.00  0.00    -0.135 A  
HETATM   15  C   UNL     1      -8.141  14.172  67.384  1.00  0.00    -0.189 A  
HETATM   16  S   UNL     1      -9.200  14.884  66.154  1.00  0.00    -0.157 SA 
HETATM   17  C   UNL     1     -10.032  13.458  65.496  1.00  0.00    -0.210 A  
HETATM   18  C   UNL     1     -11.020  13.743  64.532  1.00  0.00    -0.399 A  
HETATM   19  C   UNL     1     -11.670  12.721  63.848  1.00  0.00    -0.530 A  
HETATM   20  C   UNL     1     -11.337  11.409  64.134  1.00  0.00    -0.263 A  
HETATM   21  C   UNL     1     -10.377  11.118  65.111  1.00  0.00    -0.354 A  
HETATM   22  C   UNL     1      -9.685  12.127  65.820  1.00  0.00    -0.229 A  
ENDBRANCH   8   9
ENDBRANCH   6   8
ENDBRANCH   3   6
ENDBRANCH   2   3
TORSDOF 5
ENDMDL
MODEL      221
REMARK 921   NORMALIZED FREE ENERGY PREDICTED BY IDOCK:   -2.77 KCAL/MOL
REMARK 922        TOTAL FREE ENERGY PREDICTED BY IDOCK:   -4.40 KCAL/MOL
REMARK 923 INTER-LIGAND FREE ENERGY PREDICTED BY IDOCK:   -3.88 KCAL/MOL
REMARK 924 INTRA-LIGAND FREE ENERGY PREDICTED BY IDOCK:   -0.52 KCAL/MOL
REMARK 927      BINDING AFFINITY PREDICTED BY RF-SCORE:    0.00 PKD
ROOT
HETATM    1  C   UNL     1      -8.647  11.627  66.951  1.00  0.00    -0.174 C  
HETATM    2  C   UNL     1      -8.411  11.451  68.453  1.00  0.00    -0.155 C  
ENDROOT
BRANCH   2   3
HETATM    3  N   UNL     1      -8.739  10.112  69.002  1.00  0.00    -0.151 NA 
BRANCH   3   4
HETATM    4  C   UNL     1      -7.552   9.476  69.594  1.00  0.00    -0.103 C  
HETATM    5  C   UNL     1      -6.629  10.374  70.408  1.00  0.00    -0.121 C  
ENDBRANCH   3   4
BRANCH   3   6
HETATM    6  C   UNL     1      -9.943  10.149  69.903  1.00  0.00    -0.203 C  
HETATM    7  C   UNL     1     -10.815  11.375  69.506  1.00  0.00    -0.165 C  
BRANCH   6   8
HETATM    8  C   UNL     1     -10.952   8.929  69.885  1.00  0.00    -0.182 C  
BRANCH   8   9
HETATM    9  N   UNL     1     -10.389   7.553  70.042  1.00  0.00    -0.216 NA 
HETATM   10  C   UNL     1      -9.929   6.910  68.853  1.00  0.00    -0.157 A  
HETATM   11  C   UNL     1     -10.384   7.277  67.567  1.00  0.00    -0.310 A  
HETATM   12  C   UNL     1      -9.764   6.829  66.395  1.00  0.00    -0.125 A  
HETATM   13  C   UNL     1      -8.687   5.962  66.472  1.00  0.00    -0.126 A  
HETATM   14  C   UNL     1      -8.299   5.480  67.715  1.00  0.00    -0.099 A  
HETATM   15  C   UNL     1      -8.936   5.911  68.895  1.00  0.00    -0.118 A  
HETATM   16  S   UNL     1      -8.377   5.138  70.389  1.00  0.00    -0.107 SA 
HETATM   17  C   UNL     1      -9.362   5.946  71.628  1.00  0.00    -0.149 A  
HETATM   18  C   UNL     1      -9.182   5.457  72.938  1.00  0.00    -0.139 A  
HETATM   19  C   UNL     1      -9.799   6.070  74.023  1.00  0.00    -0.215 A  
HETATM   20  C   UNL     1     -10.606   7.171  73.797  1.00  0.00    -0.303 A  
HETATM   21  C   UNL     1     -10.812   7.645  72.496  1.00  0.00    -0.367 A  
HETATM   22  C   UNL     1     -10.195   7.059  71.367  1.00  0.00    -0.196 A  
ENDBRANCH   8   9
ENDBRANCH   6   8
ENDBRANCH   3   6
ENDBRANCH   2   3
TORSDOF 5
ENDMDL
MODEL      222
REMARK 921   NORMALIZED FREE ENERGY PREDICTED BY IDOCK:   -2.75 KCAL/MOL
REMARK 922        TOTAL FREE ENERGY PREDICTED BY IDOCK:   -4.37 KCAL/MOL
REMARK 923 INTER-LIGAND FREE ENERGY PREDICTED BY IDOCK:   -3.50 KCAL/MOL
REMARK 924 INTRA-LIGAND FREE ENERGY PREDICTED BY IDOCK:   -0.87 KCAL/MOL
REMARK 927      BINDING AFFINITY PREDICTED BY RF-SCORE:    0.00 PKD
ROOT
HETATM    1  C   UNL     1      -6.694  12.714  69.000  1.00  0.00    -0.097 C  
HETATM    2  C   UNL     1      -7.084  11.233  68.991  1.00  0.00    -0.116 C  
ENDROOT
BRANCH   2   3
HETATM    3  N   UNL     1      -7.546  10.699  67.687  1.00  0.00    -0.092 NA 
BRANCH   3   4
HETATM    4  C   UNL     1      -6.434  10.605  66.727  1.00  0.00    -0.086 C  
HETATM    5  C   UNL     1      -6.066   9.208  66.243  1.00  0.00    -0.060 C  
ENDBRANCH   3   4
BRANCH   3   6
HETATM    6  C   UNL     1      -8.345   9.434  67.844  1.00  0.00    -0.115 C  
HETATM    7  C   UNL     1      -8.312   9.018  69.342  1.00  0.00    -0.119 C  
BRANCH   6   8
HETATM    8  C   UNL     1      -9.884   9.447  67.474  1.00  0.00    -0.173 C  
BRANCH   8   9
HETATM    9  N   UNL     1     -10.338  10.382  66.399  1.00  0.00    -0.232 NA 
HETATM   10  C   UNL     1     -11.000  11.573  66.824  1.00  0.00    -0.294 A  
HETATM   11  C   UNL     1     -11.634  11.681  68.081  1.00  0.00    -0.389 A  
HETATM   12  C   UNL     1     -12.065  12.908  68.601  1.00  0.00    -0.171 A  
HETATM   13  C   UNL     1     -11.911  14.065  67.858  1.00  0.00    -0.411 A  
HETATM   14  C   UNL     1     -11.410  13.973  66.565  1.00  0.00    -0.343 A  
HETATM   15  C   UNL     1     -10.997  12.738  66.030  1.00  0.00    -0.278 A  
HETATM   16  S   UNL     1     -10.462  12.779  64.341  1.00  0.00    -0.384 SA 
HETATM   17  C   UNL     1      -9.999  11.089  64.046  1.00  0.00    -0.335 A  
HETATM   18  C   UNL     1      -9.604  10.807  62.723  1.00  0.00    -0.337 A  
HETATM   19  C   UNL     1      -9.106   9.557  62.375  1.00  0.00    -0.257 A  
HETATM   20  C   UNL     1      -9.010   8.581  63.351  1.00  0.00     0.554 A  
HETATM   21  C   UNL     1      -9.428   8.845  64.661  1.00  0.00     0.537 A  
HETATM   22  C   UNL     1      -9.929  10.106  65.059  1.00  0.00    -0.305 A  
ENDBRANCH   8   9
ENDBRANCH   6   8
ENDBRANCH   3   6
ENDBRANCH   2   3
TORSDOF 5
ENDMDL
MODEL      223
REMARK 921   NORMALIZED FREE ENERGY PREDICTED BY IDOCK:   -2.73 KCAL/MOL
REMARK 922        TOTAL FREE ENERGY PREDICTED BY IDOCK:   -4.34 KCAL/MOL
REMARK 923 INTER-LIGAND FREE ENERGY PREDICTED BY IDOCK:   -3.97 KCAL/MOL
REMARK 924 INTRA-LIGAND FREE ENERGY PREDICTED BY IDOCK:   -0.38 KCAL/MOL
REMARK 927      BINDING AFFINITY PREDICTED BY RF-SCORE:    0.00 PKD
ROOT
HETATM    1  C   UNL     1      -5.413  16.783  67.154  1.00  0.00    -0.185 C  
HETATM    2  C   UNL     1      -6.646  15.878  67.226  1.00  0.00    -0.165 C  
ENDROOT
BRANCH   2   3
HETATM    3  N   UNL     1      -6.698  14.956  68.386  1.00  0.00    -0.095 NA 
BRANCH   3   4
HETATM    4  C   UNL     1      -7.620  15.455  69.420  1.00  0.00    -0.224 C  
HETATM    5  C   UNL     1      -8.729  16.389  68.954  1.00  0.00    -0.253 C  
ENDBRANCH   3   4
BRANCH   3   6
HETATM    6  C   UNL     1      -6.942  13.531  67.967  1.00  0.00    -0.133 C  
HETATM    7  C   UNL     1      -6.932  12.638  69.241  1.00  0.00     0.040 C  
BRANCH   6   8
HETATM    8  C   UNL     1      -8.302  13.167  67.244  1.00  0.00    -0.179 C  
BRANCH   8   9
HETATM    9  N   UNL     1      -8.950  11.863  67.584  1.00  0.00    -0.163 NA 
HETATM   10  C   UNL     1      -8.297  10.683  67.118  1.00  0.00    -0.125 A  
HETATM   11  C   UNL     1      -7.404  10.692  66.023  1.00  0.00    -0.132 A  
HETATM   12  C   UNL     1      -6.580   9.603  65.718  1.00  0.00    -0.081 A  
HETATM   13  C   UNL     1      -6.652   8.449  66.479  1.00  0.00    -0.056 A  
HETATM   14  C   UNL     1      -7.610   8.361  67.480  1.00  0.00    -0.098 A  
HETATM   15  C   UNL     1      -8.458   9.446  67.774  1.00  0.00    -0.116 A  
HETATM   16  S   UNL     1      -9.680   9.143  69.021  1.00  0.00    -0.170 SA 
HETATM   17  C   UNL     1     -10.506  10.712  69.135  1.00  0.00    -0.222 A  
HETATM   18  C   UNL     1     -11.608  10.738  70.014  1.00  0.00    -0.417 A  
HETATM   19  C   UNL     1     -12.277  11.925  70.291  1.00  0.00    -0.353 A  
HETATM   20  C   UNL     1     -11.848  13.091  69.680  1.00  0.00    -0.385 A  
HETATM   21  C   UNL     1     -10.773  13.068  68.784  1.00  0.00    -0.250 A  
HETATM   22  C   UNL     1     -10.059  11.885  68.484  1.00  0.00    -0.206 A  
ENDBRANCH   8   9
ENDBRANCH   6   8
ENDBRANCH   3   6
ENDBRANCH   2   3
TORSDOF 5
ENDMDL
MODEL      224
REMARK 921   NORMALIZED FREE ENERGY PREDICTED BY IDOCK:   -2.71 KCAL/MOL
REMARK 922        TOTAL FREE ENERGY PREDICTED BY IDOCK:   -4.32 KCAL/MOL
REMARK 923 INTER-LIGAND FREE ENERGY PREDICTED BY IDOCK:   -3.75 KCAL/MOL
REMARK 924 INTRA-LIGAND FREE ENERGY PREDICTED BY IDOCK:   -0.57 KCAL/MOL
REMARK 927      BINDING AFFINITY PREDICTED BY RF-SCORE:    0.00 PKD
ROOT
HETATM    1  C   UNL     1      -8.449   2.894  64.887  1.00  0.00    -0.097 C  
HETATM    2  C   UNL     1      -8.981   4.222  65.431  1.00  0.00    -0.134 C  
ENDROOT
BRANCH   2   3
HETATM    3  N   UNL     1      -8.506   4.598  66.784  1.00  0.00    -0.106 NA 
BRANCH   3   4
HETATM    4  C   UNL     1      -7.479   3.660  67.266  1.00  0.00    -0.071 C  
HETATM    5  C   UNL     1      -7.779   2.927  68.568  1.00  0.00    -0.054 C  
ENDBRANCH   3   4
BRANCH   3   6
HETATM    6  C   UNL     1      -8.113   6.048  66.864  1.00  0.00    -0.105 C  
HETATM    7  C   UNL     1      -7.122   6.351  65.704  1.00  0.00    -0.065 C  
BRANCH   6   8
HETATM    8  C   UNL     1      -9.235   7.155  66.720  1.00  0.00    -0.158 C  
BRANCH   8   9
HETATM    9  N   UNL     1      -9.433   8.104  67.859  1.00  0.00    -0.144 NA 
HETATM   10  C   UNL     1      -8.942   9.432  67.679  1.00  0.00    -0.118 A  
HETATM   11  C   UNL     1      -7.925   9.746  66.749  1.00  0.00    -0.105 A  
HETATM   12  C   UNL     1      -7.615  11.063  66.394  1.00  0.00    -0.135 A  
HETATM   13  C   UNL     1      -8.288  12.116  66.989  1.00  0.00    -0.173 A  
HETATM   14  C   UNL     1      -9.200  11.846  68.001  1.00  0.00    -0.190 A  
HETATM   15  C   UNL     1      -9.498  10.522  68.378  1.00  0.00    -0.157 A  
HETATM   16  S   UNL     1     -10.619  10.352  69.740  1.00  0.00    -0.237 SA 
HETATM   17  C   UNL     1     -10.773   8.588  69.890  1.00  0.00    -0.224 A  
HETATM   18  C   UNL     1     -11.560   8.153  70.975  1.00  0.00    -0.301 A  
HETATM   19  C   UNL     1     -11.862   6.806  71.148  1.00  0.00    -0.410 A  
HETATM   20  C   UNL     1     -11.367   5.890  70.236  1.00  0.00    -0.232 A  
HETATM   21  C   UNL     1     -10.561   6.311  69.172  1.00  0.00    -0.325 A  
HETATM   22  C   UNL     1     -10.240   7.671  68.955  1.00  0.00    -0.210 A  
ENDBRANCH   8   9
ENDBRANCH   6   8
ENDBRANCH   3   6
ENDBRANCH   2   3
TORSDOF 5
ENDMDL
MODEL      225
REMARK 921   NORMALIZED FREE ENERGY PREDICTED BY IDOCK:   -2.71 KCAL/MOL
REMARK 922        TOTAL FREE ENERGY PREDICTED BY IDOCK:   -4.32 KCAL/MOL
REMARK 923 INTER-LIGAND FREE ENERGY PREDICTED BY IDOCK:   -3.77 KCAL/MOL
REMARK 924 INTRA-LIGAND FREE ENERGY PREDICTED BY IDOCK:   -0.54 KCAL/MOL
REMARK 927      BINDING AFFINITY PREDICTED BY RF-SCORE:    0.00 PKD
ROOT
HETATM    1  C   UNL     1      -5.234  11.312  68.610  1.00  0.00    -0.043 C  
HETATM    2  C   UNL     1      -6.585  11.770  69.167  1.00  0.00    -0.102 C  
ENDROOT
BRANCH   2   3
HETATM    3  N   UNL     1      -7.320  12.757  68.340  1.00  0.00    -0.112 NA 
BRANCH   3   4
HETATM    4  C   UNL     1      -8.660  12.261  67.986  1.00  0.00    -0.176 C  
HETATM    5  C   UNL     1      -9.290  11.255  68.941  1.00  0.00    -0.084 C  
ENDBRANCH   3   4
BRANCH   3   6
HETATM    6  C   UNL     1      -7.304  14.132  68.951  1.00  0.00    -0.122 C  
HETATM    7  C   UNL     1      -6.646  14.034  70.357  1.00  0.00     0.090 C  
BRANCH   6   8
HETATM    8  C   UNL     1      -6.500  15.285  68.222  1.00  0.00    -0.112 C  
BRANCH   8   9
HETATM    9  N   UNL     1      -7.218  16.564  67.933  1.00  0.00    -0.136 NA 
HETATM   10  C   UNL     1      -8.355  16.481  67.075  1.00  0.00    -0.190 A  
HETATM   11  C   UNL     1      -8.541  15.419  66.162  1.00  0.00     0.001 A  
HETATM   12  C   UNL     1      -9.756  15.200  65.502  1.00  0.00    -0.303 A  
HETATM   13  C   UNL     1     -10.817  16.066  65.705  1.00  0.00    -0.236 A  
HETATM   14  C   UNL     1     -10.625  17.193  66.494  1.00  0.00    -0.172 A  
HETATM   15  C   UNL     1      -9.397  17.428  67.141  1.00  0.00    -0.245 A  
HETATM   16  S   UNL     1      -9.289  18.951  68.041  1.00  0.00    -0.320 SA 
HETATM   17  C   UNL     1      -7.652  18.874  68.728  1.00  0.00    -0.333 A  
HETATM   18  C   UNL     1      -7.256  20.023  69.442  1.00  0.00    -0.128 A  
HETATM   19  C   UNL     1      -6.048  20.057  70.130  1.00  0.00    -0.393 A  
HETATM   20  C   UNL     1      -5.229  18.942  70.098  1.00  0.00    -0.209 A  
HETATM   21  C   UNL     1      -5.603  17.808  69.368  1.00  0.00    -0.209 A  
HETATM   22  C   UNL     1      -6.827  17.728  68.664  1.00  0.00    -0.242 A  
ENDBRANCH   8   9
ENDBRANCH   6   8
ENDBRANCH   3   6
ENDBRANCH   2   3
TORSDOF 5
ENDMDL
MODEL      226
REMARK 921   NORMALIZED FREE ENERGY PREDICTED BY IDOCK:   -2.69 KCAL/MOL
REMARK 922        TOTAL FREE ENERGY PREDICTED BY IDOCK:   -4.29 KCAL/MOL
REMARK 923 INTER-LIGAND FREE ENERGY PREDICTED BY IDOCK:   -3.44 KCAL/MOL
REMARK 924 INTRA-LIGAND FREE ENERGY PREDICTED BY IDOCK:   -0.85 KCAL/MOL
REMARK 927      BINDING AFFINITY PREDICTED BY RF-SCORE:    0.00 PKD
ROOT
HETATM    1  C   UNL     1     -11.229   6.129  72.829  1.00  0.00    -0.278 C  
HETATM    2  C   UNL     1     -10.171   6.122  71.722  1.00  0.00    -0.202 C  
ENDROOT
BRANCH   2   3
HETATM    3  N   UNL     1      -8.788   6.437  72.154  1.00  0.00    -0.137 NA 
BRANCH   3   4
HETATM    4  C   UNL     1      -7.866   5.339  71.824  1.00  0.00    -0.111 C  
HETATM    5  C   UNL     1      -8.352   3.926  72.118  1.00  0.00    -0.094 C  
ENDBRANCH   3   4
BRANCH   3   6
HETATM    6  C   UNL     1      -8.341   7.793  71.679  1.00  0.00    -0.110 C  
HETATM    7  C   UNL     1      -7.490   8.449  72.803  1.00  0.00    -0.115 C  
BRANCH   6   8
HETATM    8  C   UNL     1      -7.429   7.891  70.389  1.00  0.00    -0.077 C  
BRANCH   8   9
HETATM    9  N   UNL     1      -8.032   8.462  69.145  1.00  0.00    -0.108 NA 
HETATM   10  C   UNL     1      -8.844   7.583  68.366  1.00  0.00    -0.126 A  
HETATM   11  C   UNL     1      -8.726   6.178  68.437  1.00  0.00    -0.115 A  
HETATM   12  C   UNL     1      -9.672   5.316  67.871  1.00  0.00    -0.174 A  
HETATM   13  C   UNL     1     -10.751   5.836  67.177  1.00  0.00    -0.358 A  
HETATM   14  C   UNL     1     -10.826   7.208  66.977  1.00  0.00    -0.382 A  
HETATM   15  C   UNL     1      -9.863   8.077  67.526  1.00  0.00    -0.172 A  
HETATM   16  S   UNL     1     -10.055   9.789  67.109  1.00  0.00    -0.225 SA 
HETATM   17  C   UNL     1      -8.713  10.549  67.992  1.00  0.00    -0.128 A  
HETATM   18  C   UNL     1      -8.570  11.934  67.770  1.00  0.00    -0.154 A  
HETATM   19  C   UNL     1      -7.637  12.681  68.482  1.00  0.00    -0.121 A  
HETATM   20  C   UNL     1      -6.839  12.040  69.414  1.00  0.00    -0.028 A  
HETATM   21  C   UNL     1      -6.957  10.660  69.618  1.00  0.00    -0.134 A  
HETATM   22  C   UNL     1      -7.899   9.866  68.924  1.00  0.00    -0.091 A  
ENDBRANCH   8   9
ENDBRANCH   6   8
ENDBRANCH   3   6
ENDBRANCH   2   3
TORSDOF 5
ENDMDL
MODEL      227
REMARK 921   NORMALIZED FREE ENERGY PREDICTED BY IDOCK:   -2.67 KCAL/MOL
REMARK 922        TOTAL FREE ENERGY PREDICTED BY IDOCK:   -4.27 KCAL/MOL
REMARK 923 INTER-LIGAND FREE ENERGY PREDICTED BY IDOCK:   -4.32 KCAL/MOL
REMARK 924 INTRA-LIGAND FREE ENERGY PREDICTED BY IDOCK:    0.05 KCAL/MOL
REMARK 927      BINDING AFFINITY PREDICTED BY RF-SCORE:    0.00 PKD
ROOT
HETATM    1  C   UNL     1     -10.230  10.315  69.703  1.00  0.00    -0.268 C  
HETATM    2  C   UNL     1     -10.549   8.852  69.384  1.00  0.00    -0.217 C  
ENDROOT
BRANCH   2   3
HETATM    3  N   UNL     1     -10.089   8.368  68.060  1.00  0.00    -0.191 NA 
BRANCH   3   4
HETATM    4  C   UNL     1      -9.534   9.469  67.256  1.00  0.00    -0.136 C  
HETATM    5  C   UNL     1     -10.252   9.794  65.953  1.00  0.00    -0.245 C  
ENDBRANCH   3   4
BRANCH   3   6
HETATM    6  C   UNL     1      -9.192   7.166  68.177  1.00  0.00    -0.131 C  
HETATM    7  C   UNL     1      -7.929   7.411  67.302  1.00  0.00    -0.115 C  
BRANCH   6   8
HETATM    8  C   UNL     1      -8.615   6.775  69.597  1.00  0.00    -0.133 C  
BRANCH   8   9
HETATM    9  N   UNL     1      -9.317   5.703  70.368  1.00  0.00    -0.157 NA 
HETATM   10  C   UNL     1      -9.488   4.448  69.709  1.00  0.00    -0.184 A  
HETATM   11  C   UNL     1      -9.465   4.320  68.303  1.00  0.00    -0.212 A  
HETATM   12  C   UNL     1      -9.385   3.077  67.664  1.00  0.00    -0.242 A  
HETATM   13  C   UNL     1      -9.364   1.915  68.415  1.00  0.00    -0.248 A  
HETATM   14  C   UNL     1      -9.516   2.001  69.792  1.00  0.00    -0.119 A  
HETATM   15  C   UNL     1      -9.621   3.248  70.437  1.00  0.00    -0.141 A  
HETATM   16  S   UNL     1      -9.894   3.181  72.187  1.00  0.00    -0.165 SA 
HETATM   17  C   UNL     1      -9.933   4.901  72.633  1.00  0.00    -0.165 A  
HETATM   18  C   UNL     1     -10.226   5.154  73.989  1.00  0.00    -0.270 A  
HETATM   19  C   UNL     1     -10.176   6.444  74.504  1.00  0.00    -0.310 A  
HETATM   20  C   UNL     1      -9.840   7.488  73.660  1.00  0.00    -0.348 A  
HETATM   21  C   UNL     1      -9.576   7.248  72.306  1.00  0.00    -0.173 A  
HETATM   22  C   UNL     1      -9.604   5.951  71.745  1.00  0.00    -0.151 A  
ENDBRANCH   8   9
ENDBRANCH   6   8
ENDBRANCH   3   6
ENDBRANCH   2   3
TORSDOF 5
ENDMDL
MODEL      228
REMARK 921   NORMALIZED FREE ENERGY PREDICTED BY IDOCK:   -2.67 KCAL/MOL
REMARK 922        TOTAL FREE ENERGY PREDICTED BY IDOCK:   -4.27 KCAL/MOL
REMARK 923 INTER-LIGAND FREE ENERGY PREDICTED BY IDOCK:   -3.36 KCAL/MOL
REMARK 924 INTRA-LIGAND FREE ENERGY PREDICTED BY IDOCK:   -0.91 KCAL/MOL
REMARK 927      BINDING AFFINITY PREDICTED BY RF-SCORE:    0.00 PKD
ROOT
HETATM    1  C   UNL     1      -6.941   4.928  74.286  1.00  0.00    -0.073 C  
HETATM    2  C   UNL     1      -8.371   5.105  73.769  1.00  0.00    -0.111 C  
ENDROOT
BRANCH   2   3
HETATM    3  N   UNL     1      -8.813   4.118  72.753  1.00  0.00    -0.103 NA 
BRANCH   3   4
HETATM    4  C   UNL     1      -8.431   2.750  73.141  1.00  0.00    -0.075 C  
HETATM    5  C   UNL     1      -9.320   1.622  72.632  1.00  0.00    -0.112 C  
ENDBRANCH   3   4
BRANCH   3   6
HETATM    6  C   UNL     1     -10.265   4.284  72.397  1.00  0.00    -0.181 C  
HETATM    7  C   UNL     1     -10.969   5.045  73.556  1.00  0.00    -0.393 C  
BRANCH   6   8
HETATM    8  C   UNL     1     -10.647   5.106  71.099  1.00  0.00    -0.125 C  
BRANCH   8   9
HETATM    9  N   UNL     1      -9.543   5.508  70.174  1.00  0.00    -0.162 NA 
HETATM   10  C   UNL     1      -9.172   4.563  69.170  1.00  0.00    -0.134 A  
HETATM   11  C   UNL     1      -9.437   3.181  69.294  1.00  0.00    -0.179 A  
HETATM   12  C   UNL     1      -9.303   2.292  68.221  1.00  0.00    -0.267 A  
HETATM   13  C   UNL     1      -8.859   2.754  66.994  1.00  0.00    -0.158 A  
HETATM   14  C   UNL     1      -8.466   4.080  66.876  1.00  0.00    -0.101 A  
HETATM   15  C   UNL     1      -8.578   4.973  67.959  1.00  0.00    -0.103 A  
HETATM   16  S   UNL     1      -7.956   6.607  67.669  1.00  0.00    -0.116 SA 
HETATM   17  C   UNL     1      -8.297   7.424  69.210  1.00  0.00    -0.132 A  
HETATM   18  C   UNL     1      -7.821   8.748  69.295  1.00  0.00    -0.100 A  
HETATM   19  C   UNL     1      -8.115   9.546  70.394  1.00  0.00    -0.209 A  
HETATM   20  C   UNL     1      -8.882   9.017  71.418  1.00  0.00    -0.220 A  
HETATM   21  C   UNL     1      -9.334   7.693  71.354  1.00  0.00    -0.157 A  
HETATM   22  C   UNL     1      -9.066   6.852  70.249  1.00  0.00    -0.153 A  
ENDBRANCH   8   9
ENDBRANCH   6   8
ENDBRANCH   3   6
ENDBRANCH   2   3
TORSDOF 5
ENDMDL
MODEL      229
REMARK 921   NORMALIZED FREE ENERGY PREDICTED BY IDOCK:   -2.67 KCAL/MOL
REMARK 922        TOTAL FREE ENERGY PREDICTED BY IDOCK:   -4.27 KCAL/MOL
REMARK 923 INTER-LIGAND FREE ENERGY PREDICTED BY IDOCK:   -3.68 KCAL/MOL
REMARK 924 INTRA-LIGAND FREE ENERGY PREDICTED BY IDOCK:   -0.59 KCAL/MOL
REMARK 927      BINDING AFFINITY PREDICTED BY RF-SCORE:    0.00 PKD
ROOT
HETATM    1  C   UNL     1     -10.058   8.362  67.099  1.00  0.00    -0.335 C  
HETATM    2  C   UNL     1     -10.024   9.385  65.961  1.00  0.00    -0.281 C  
ENDROOT
BRANCH   2   3
HETATM    3  N   UNL     1      -8.911  10.364  66.010  1.00  0.00    -0.154 NA 
BRANCH   3   4
HETATM    4  C   UNL     1      -8.128  10.340  64.764  1.00  0.00    -0.151 C  
HETATM    5  C   UNL     1      -8.912  10.199  63.466  1.00  0.00    -0.265 C  
ENDBRANCH   3   4
BRANCH   3   6
HETATM    6  C   UNL     1      -9.378  11.732  66.429  1.00  0.00    -0.220 C  
HETATM    7  C   UNL     1     -10.884  11.867  66.064  1.00  0.00    -0.342 C  
BRANCH   6   8
HETATM    8  C   UNL     1      -9.308  12.131  67.959  1.00  0.00    -0.197 C  
BRANCH   8   9
HETATM    9  N   UNL     1      -8.014  12.665  68.485  1.00  0.00    -0.126 NA 
HETATM   10  C   UNL     1      -7.735  14.040  68.225  1.00  0.00    -0.141 A  
HETATM   11  C   UNL     1      -8.340  14.749  67.163  1.00  0.00    -0.240 A  
HETATM   12  C   UNL     1      -8.264  16.142  67.052  1.00  0.00    -0.250 A  
HETATM   13  C   UNL     1      -7.543  16.870  67.983  1.00  0.00    -0.182 A  
HETATM   14  C   UNL     1      -6.830  16.192  68.963  1.00  0.00    -0.176 A  
HETATM   15  C   UNL     1      -6.885  14.789  69.064  1.00  0.00    -0.113 A  
HETATM   16  S   UNL     1      -5.853  14.073  70.314  1.00  0.00    -0.162 SA 
HETATM   17  C   UNL     1      -6.214  12.340  70.161  1.00  0.00    -0.048 A  
HETATM   18  C   UNL     1      -5.453  11.501  70.999  1.00  0.00    -0.063 A  
HETATM   19  C   UNL     1      -5.708  10.136  71.071  1.00  0.00    -0.076 A  
HETATM   20  C   UNL     1      -6.724   9.606  70.295  1.00  0.00    -0.099 A  
HETATM   21  C   UNL     1      -7.465  10.428  69.438  1.00  0.00    -0.135 A  
HETATM   22  C   UNL     1      -7.246  11.822  69.344  1.00  0.00     0.076 A  
ENDBRANCH   8   9
ENDBRANCH   6   8
ENDBRANCH   3   6
ENDBRANCH   2   3
TORSDOF 5
ENDMDL
MODEL      230
REMARK 921   NORMALIZED FREE ENERGY PREDICTED BY IDOCK:   -2.58 KCAL/MOL
REMARK 922        TOTAL FREE ENERGY PREDICTED BY IDOCK:   -4.15 KCAL/MOL
REMARK 923 INTER-LIGAND FREE ENERGY PREDICTED BY IDOCK:   -3.90 KCAL/MOL
REMARK 924 INTRA-LIGAND FREE ENERGY PREDICTED BY IDOCK:   -0.25 KCAL/MOL
REMARK 927      BINDING AFFINITY PREDICTED BY RF-SCORE:    0.00 PKD
ROOT
HETATM    1  C   UNL     1      -9.956   5.806  73.384  1.00  0.00    -0.186 C  
HETATM    2  C   UNL     1     -11.269   5.654  72.610  1.00  0.00    -0.300 C  
ENDROOT
BRANCH   2   3
HETATM    3  N   UNL     1     -11.382   6.464  71.373  1.00  0.00    -0.289 NA 
BRANCH   3   4
HETATM    4  C   UNL     1     -11.021   7.868  71.623  1.00  0.00    -0.238 C  
HETATM    5  C   UNL     1     -12.172   8.848  71.813  1.00  0.00    -0.429 C  
ENDBRANCH   3   4
BRANCH   3   6
HETATM    6  C   UNL     1     -10.663   5.830  70.214  1.00  0.00    -0.309 C  
HETATM    7  C   UNL     1     -11.276   6.385  68.896  1.00  0.00    -0.385 C  
BRANCH   6   8
HETATM    8  C   UNL     1      -9.107   6.071  70.053  1.00  0.00    -0.146 C  
BRANCH   8   9
HETATM    9  N   UNL     1      -8.564   6.250  68.671  1.00  0.00    -0.121 NA 
HETATM   10  C   UNL     1      -8.519   5.086  67.846  1.00  0.00    -0.104 A  
HETATM   11  C   UNL     1      -8.505   3.778  68.379  1.00  0.00    -0.108 A  
HETATM   12  C   UNL     1      -8.708   2.643  67.585  1.00  0.00    -0.138 A  
HETATM   13  C   UNL     1      -8.893   2.778  66.221  1.00  0.00    -0.146 A  
HETATM   14  C   UNL     1      -8.782   4.039  65.648  1.00  0.00    -0.119 A  
HETATM   15  C   UNL     1      -8.554   5.181  66.440  1.00  0.00    -0.112 A  
HETATM   16  S   UNL     1      -8.354   6.699  65.548  1.00  0.00    -0.125 SA 
HETATM   17  C   UNL     1      -8.129   7.882  66.855  1.00  0.00    -0.115 A  
HETATM   18  C   UNL     1      -7.858   9.196  66.423  1.00  0.00    -0.100 A  
HETATM   19  C   UNL     1      -7.774  10.247  67.330  1.00  0.00    -0.095 A  
HETATM   20  C   UNL     1      -7.954   9.981  68.676  1.00  0.00    -0.097 A  
HETATM   21  C   UNL     1      -8.195   8.674  69.116  1.00  0.00    -0.117 A  
HETATM   22  C   UNL     1      -8.300   7.581  68.226  1.00  0.00    -0.125 A  
ENDBRANCH   8   9
ENDBRANCH   6   8
ENDBRANCH   3   6
ENDBRANCH   2   3
TORSDOF 5
ENDMDL
MODEL      231
REMARK 921   NORMALIZED FREE ENERGY PREDICTED BY IDOCK:   -2.55 KCAL/MOL
REMARK 922        TOTAL FREE ENERGY PREDICTED BY IDOCK:   -4.11 KCAL/MOL
REMARK 923 INTER-LIGAND FREE ENERGY PREDICTED BY IDOCK:   -3.34 KCAL/MOL
REMARK 924 INTRA-LIGAND FREE ENERGY PREDICTED BY IDOCK:   -0.78 KCAL/MOL
REMARK 927      BINDING AFFINITY PREDICTED BY RF-SCORE:    0.00 PKD
ROOT
HETATM    1  C   UNL     1     -10.256   9.047  71.298  1.00  0.00    -0.384 C  
HETATM    2  C   UNL     1      -9.181   8.948  70.213  1.00  0.00    -0.185 C  
ENDROOT
BRANCH   2   3
HETATM    3  N   UNL     1      -9.362   7.854  69.228  1.00  0.00    -0.149 NA 
BRANCH   3   4
HETATM    4  C   UNL     1     -10.607   8.028  68.464  1.00  0.00    -0.103 C  
HETATM    5  C   UNL     1     -10.466   8.194  66.956  1.00  0.00    -0.396 C  
ENDBRANCH   3   4
BRANCH   3   6
HETATM    6  C   UNL     1      -8.134   7.644  68.383  1.00  0.00    -0.124 C  
HETATM    7  C   UNL     1      -7.028   8.619  68.878  1.00  0.00    -0.062 C  
BRANCH   6   8
HETATM    8  C   UNL     1      -7.435   6.224  68.386  1.00  0.00    -0.088 C  
BRANCH   8   9
HETATM    9  N   UNL     1      -8.307   5.013  68.280  1.00  0.00    -0.095 NA 
HETATM   10  C   UNL     1      -8.578   4.533  66.964  1.00  0.00    -0.104 A  
HETATM   11  C   UNL     1      -8.477   5.355  65.820  1.00  0.00    -0.131 A  
HETATM   12  C   UNL     1      -8.499   4.838  64.520  1.00  0.00    -0.140 A  
HETATM   13  C   UNL     1      -8.664   3.478  64.321  1.00  0.00    -0.093 A  
HETATM   14  C   UNL     1      -8.897   2.660  65.419  1.00  0.00    -0.129 A  
HETATM   15  C   UNL     1      -8.899   3.180  66.727  1.00  0.00    -0.146 A  
HETATM   16  S   UNL     1      -9.294   2.022  68.008  1.00  0.00    -0.151 SA 
HETATM   17  C   UNL     1      -9.162   3.015  69.476  1.00  0.00    -0.147 A  
HETATM   18  C   UNL     1      -9.514   2.355  70.670  1.00  0.00    -0.192 A  
HETATM   19  C   UNL     1      -9.348   2.971  71.906  1.00  0.00    -0.189 A  
HETATM   20  C   UNL     1      -8.838   4.257  71.947  1.00  0.00    -0.137 A  
HETATM   21  C   UNL     1      -8.513   4.929  70.763  1.00  0.00    -0.115 A  
HETATM   22  C   UNL     1      -8.655   4.335  69.488  1.00  0.00    -0.076 A  
ENDBRANCH   8   9
ENDBRANCH   6   8
ENDBRANCH   3   6
ENDBRANCH   2   3
TORSDOF 5
ENDMDL
MODEL      232
REMARK 921   NORMALIZED FREE ENERGY PREDICTED BY IDOCK:   -2.54 KCAL/MOL
REMARK 922        TOTAL FREE ENERGY PREDICTED BY IDOCK:   -4.09 KCAL/MOL
REMARK 923 INTER-LIGAND FREE ENERGY PREDICTED BY IDOCK:   -4.63 KCAL/MOL
REMARK 924 INTRA-LIGAND FREE ENERGY PREDICTED BY IDOCK:    0.54 KCAL/MOL
REMARK 927      BINDING AFFINITY PREDICTED BY RF-SCORE:    0.00 PKD
ROOT
HETATM    1  C   UNL     1      -6.815  11.789  69.555  1.00  0.00    -0.026 C  
HETATM    2  C   UNL     1      -6.672  13.264  69.171  1.00  0.00    -0.092 C  
ENDROOT
BRANCH   2   3
HETATM    3  N   UNL     1      -7.942  14.013  69.016  1.00  0.00    -0.015 NA 
BRANCH   3   4
HETATM    4  C   UNL     1      -7.734  15.457  69.211  1.00  0.00    -0.221 C  
HETATM    5  C   UNL     1      -7.192  16.237  68.020  1.00  0.00    -0.141 C  
ENDBRANCH   3   4
BRANCH   3   6
HETATM    6  C   UNL     1      -8.662  13.652  67.745  1.00  0.00    -0.184 C  
HETATM    7  C   UNL     1      -7.825  12.573  66.999  1.00  0.00    -0.065 C  
BRANCH   6   8
HETATM    8  C   UNL     1     -10.113  13.028  67.836  1.00  0.00    -0.235 C  
BRANCH   8   9
HETATM    9  N   UNL     1     -10.313  11.639  67.318  1.00  0.00    -0.200 NA 
HETATM   10  C   UNL     1     -10.347  11.484  65.900  1.00  0.00    -0.247 A  
HETATM   11  C   UNL     1     -10.663  12.549  65.027  1.00  0.00    -0.326 A  
HETATM   12  C   UNL     1     -10.460  12.471  63.644  1.00  0.00    -0.418 A  
HETATM   13  C   UNL     1      -9.967  11.306  63.083  1.00  0.00    -0.398 A  
HETATM   14  C   UNL     1      -9.769  10.198  63.897  1.00  0.00    -0.236 A  
HETATM   15  C   UNL     1      -9.995  10.264  65.286  1.00  0.00    -0.317 A  
HETATM   16  S   UNL     1      -9.777   8.743  66.168  1.00  0.00    -0.209 SA 
HETATM   17  C   UNL     1     -10.106   9.225  67.847  1.00  0.00    -0.200 A  
HETATM   18  C   UNL     1     -10.085   8.168  68.779  1.00  0.00    -0.211 A  
HETATM   19  C   UNL     1     -10.210   8.413  70.143  1.00  0.00    -0.198 A  
HETATM   20  C   UNL     1     -10.366   9.719  70.575  1.00  0.00    -0.348 A  
HETATM   21  C   UNL     1     -10.416  10.770  69.652  1.00  0.00    -0.183 A  
HETATM   22  C   UNL     1     -10.281  10.566  68.259  1.00  0.00    -0.163 A  
ENDBRANCH   8   9
ENDBRANCH   6   8
ENDBRANCH   3   6
ENDBRANCH   2   3
TORSDOF 5
ENDMDL
MODEL      233
REMARK 921   NORMALIZED FREE ENERGY PREDICTED BY IDOCK:   -2.52 KCAL/MOL
REMARK 922        TOTAL FREE ENERGY PREDICTED BY IDOCK:   -4.08 KCAL/MOL
REMARK 923 INTER-LIGAND FREE ENERGY PREDICTED BY IDOCK:   -4.52 KCAL/MOL
REMARK 924 INTRA-LIGAND FREE ENERGY PREDICTED BY IDOCK:    0.45 KCAL/MOL
REMARK 927      BINDING AFFINITY PREDICTED BY RF-SCORE:    0.00 PKD
ROOT
HETATM    1  C   UNL     1      -5.172  11.410  68.923  1.00  0.00    -0.040 C  
HETATM    2  C   UNL     1      -6.677  11.247  69.156  1.00  0.00    -0.099 C  
ENDROOT
BRANCH   2   3
HETATM    3  N   UNL     1      -7.556  11.898  68.155  1.00  0.00    -0.113 NA 
BRANCH   3   4
HETATM    4  C   UNL     1      -8.692  11.031  67.802  1.00  0.00    -0.130 C  
HETATM    5  C   UNL     1      -9.315  10.225  68.935  1.00  0.00    -0.180 C  
ENDBRANCH   3   4
BRANCH   3   6
HETATM    6  C   UNL     1      -7.939  13.295  68.561  1.00  0.00    -0.097 C  
HETATM    7  C   UNL     1      -6.904  13.801  69.607  1.00  0.00     0.049 C  
BRANCH   6   8
HETATM    8  C   UNL     1      -7.971  14.432  67.460  1.00  0.00    -0.192 C  
BRANCH   8   9
HETATM    9  N   UNL     1      -8.832  15.628  67.713  1.00  0.00    -0.170 NA 
HETATM   10  C   UNL     1     -10.022  15.412  68.471  1.00  0.00    -0.213 A  
HETATM   11  C   UNL     1     -10.635  14.144  68.576  1.00  0.00    -0.257 A  
HETATM   12  C   UNL     1     -11.646  13.874  69.505  1.00  0.00    -0.358 A  
HETATM   13  C   UNL     1     -12.106  14.881  70.336  1.00  0.00    -0.386 A  
HETATM   14  C   UNL     1     -11.616  16.169  70.169  1.00  0.00    -0.254 A  
HETATM   15  C   UNL     1     -10.615  16.450  69.219  1.00  0.00    -0.311 A  
HETATM   16  S   UNL     1     -10.159  18.156  69.072  1.00  0.00    -0.144 SA 
HETATM   17  C   UNL     1      -8.882  18.105  67.838  1.00  0.00    -0.268 A  
HETATM   18  C   UNL     1      -8.381  19.365  67.452  1.00  0.00    -0.325 A  
HETATM   19  C   UNL     1      -7.302  19.472  66.583  1.00  0.00    -0.253 A  
HETATM   20  C   UNL     1      -6.725  18.315  66.089  1.00  0.00    -0.288 A  
HETATM   21  C   UNL     1      -7.235  17.061  66.445  1.00  0.00    -0.311 A  
HETATM   22  C   UNL     1      -8.323  16.907  67.335  1.00  0.00    -0.186 A  
ENDBRANCH   8   9
ENDBRANCH   6   8
ENDBRANCH   3   6
ENDBRANCH   2   3
TORSDOF 5
ENDMDL
MODEL      234
REMARK 921   NORMALIZED FREE ENERGY PREDICTED BY IDOCK:   -2.52 KCAL/MOL
REMARK 922        TOTAL FREE ENERGY PREDICTED BY IDOCK:   -4.07 KCAL/MOL
REMARK 923 INTER-LIGAND FREE ENERGY PREDICTED BY IDOCK:   -4.03 KCAL/MOL
REMARK 924 INTRA-LIGAND FREE ENERGY PREDICTED BY IDOCK:   -0.04 KCAL/MOL
REMARK 927      BINDING AFFINITY PREDICTED BY RF-SCORE:    0.00 PKD
ROOT
HETATM    1  C   UNL     1     -12.075  14.321  68.288  1.00  0.00    -0.278 C  
HETATM    2  C   UNL     1     -11.036  13.980  67.217  1.00  0.00    -0.302 C  
ENDROOT
BRANCH   2   3
HETATM    3  N   UNL     1     -11.345  12.799  66.375  1.00  0.00    -0.306 NA 
BRANCH   3   4
HETATM    4  C   UNL     1     -11.163  13.102  64.947  1.00  0.00    -0.310 C  
HETATM    5  C   UNL     1     -12.197  12.525  63.988  1.00  0.00    -0.566 C  
ENDBRANCH   3   4
BRANCH   3   6
HETATM    6  C   UNL     1     -10.627  11.563  66.847  1.00  0.00    -0.247 C  
HETATM    7  C   UNL     1      -9.361  11.367  65.965  1.00  0.00    -0.235 C  
BRANCH   6   8
HETATM    8  C   UNL     1     -10.082  11.514  68.332  1.00  0.00    -0.204 C  
BRANCH   8   9
HETATM    9  N   UNL     1      -8.719  10.942  68.560  1.00  0.00    -0.146 NA 
HETATM   10  C   UNL     1      -7.667  11.873  68.814  1.00  0.00    -0.074 A  
HETATM   11  C   UNL     1      -7.739  13.225  68.414  1.00  0.00    -0.138 A  
HETATM   12  C   UNL     1      -6.834  14.191  68.870  1.00  0.00    -0.106 A  
HETATM   13  C   UNL     1      -5.800  13.824  69.714  1.00  0.00    -0.115 A  
HETATM   14  C   UNL     1      -5.626  12.481  70.021  1.00  0.00    -0.128 A  
HETATM   15  C   UNL     1      -6.520  11.503  69.545  1.00  0.00    -0.124 A  
HETATM   16  S   UNL     1      -6.110   9.829  69.957  1.00  0.00    -0.056 SA 
HETATM   17  C   UNL     1      -7.453   8.918  69.234  1.00  0.00    -0.075 A  
HETATM   18  C   UNL     1      -7.341   7.517  69.338  1.00  0.00    -0.085 A  
HETATM   19  C   UNL     1      -8.371   6.682  68.921  1.00  0.00    -0.120 A  
HETATM   20  C   UNL     1      -9.516   7.249  68.389  1.00  0.00    -0.142 A  
HETATM   21  C   UNL     1      -9.623   8.639  68.256  1.00  0.00    -0.160 A  
HETATM   22  C   UNL     1      -8.604   9.523  68.678  1.00  0.00    -0.119 A  
ENDBRANCH   8   9
ENDBRANCH   6   8
ENDBRANCH   3   6
ENDBRANCH   2   3
TORSDOF 5
ENDMDL
MODEL      235
REMARK 921   NORMALIZED FREE ENERGY PREDICTED BY IDOCK:   -2.39 KCAL/MOL
REMARK 922        TOTAL FREE ENERGY PREDICTED BY IDOCK:   -3.91 KCAL/MOL
REMARK 923 INTER-LIGAND FREE ENERGY PREDICTED BY IDOCK:   -3.83 KCAL/MOL
REMARK 924 INTRA-LIGAND FREE ENERGY PREDICTED BY IDOCK:   -0.07 KCAL/MOL
REMARK 927      BINDING AFFINITY PREDICTED BY RF-SCORE:    0.00 PKD
ROOT
HETATM    1  C   UNL     1     -10.678   6.787  67.018  1.00  0.00    -0.435 C  
HETATM    2  C   UNL     1      -9.526   7.690  67.468  1.00  0.00    -0.140 C  
ENDROOT
BRANCH   2   3
HETATM    3  N   UNL     1      -9.586   9.092  66.991  1.00  0.00    -0.160 NA 
BRANCH   3   4
HETATM    4  C   UNL     1     -10.939   9.650  67.148  1.00  0.00     0.004 C  
HETATM    5  C   UNL     1     -11.249  10.921  66.368  1.00  0.00     0.040 C  
ENDBRANCH   3   4
BRANCH   3   6
HETATM    6  C   UNL     1      -8.489   9.938  67.579  1.00  0.00    -0.115 C  
HETATM    7  C   UNL     1      -8.163  11.082  66.577  1.00  0.00    -0.161 C  
BRANCH   6   8
HETATM    8  C   UNL     1      -8.748  10.681  68.953  1.00  0.00    -0.161 C  
BRANCH   8   9
HETATM    9  N   UNL     1      -9.135   9.852  70.136  1.00  0.00    -0.192 NA 
HETATM   10  C   UNL     1     -10.496   9.938  70.559  1.00  0.00    -0.264 A  
HETATM   11  C   UNL     1     -11.319  11.043  70.250  1.00  0.00    -0.291 A  
HETATM   12  C   UNL     1     -12.705  11.024  70.445  1.00  0.00    -0.297 A  
HETATM   13  C   UNL     1     -13.309   9.907  70.995  1.00  0.00    -0.322 A  
HETATM   14  C   UNL     1     -12.513   8.856  71.430  1.00  0.00    -0.357 A  
HETATM   15  C   UNL     1     -11.115   8.881  71.257  1.00  0.00    -0.297 A  
HETATM   16  S   UNL     1     -10.237   7.502  71.941  1.00  0.00    -0.191 SA 
HETATM   17  C   UNL     1      -8.554   7.865  71.501  1.00  0.00    -0.121 A  
HETATM   18  C   UNL     1      -7.603   6.954  72.003  1.00  0.00    -0.093 A  
HETATM   19  C   UNL     1      -6.263   7.047  71.644  1.00  0.00    -0.037 A  
HETATM   20  C   UNL     1      -5.870   8.060  70.786  1.00  0.00    -0.033 A  
HETATM   21  C   UNL     1      -6.805   8.986  70.307  1.00  0.00    -0.049 A  
HETATM   22  C   UNL     1      -8.178   8.920  70.639  1.00  0.00    -0.162 A  
ENDBRANCH   8   9
ENDBRANCH   6   8
ENDBRANCH   3   6
ENDBRANCH   2   3
TORSDOF 5
ENDMDL
MODEL      236
REMARK 921   NORMALIZED FREE ENERGY PREDICTED BY IDOCK:   -2.38 KCAL/MOL
REMARK 922        TOTAL FREE ENERGY PREDICTED BY IDOCK:   -3.90 KCAL/MOL
REMARK 923 INTER-LIGAND FREE ENERGY PREDICTED BY IDOCK:   -3.16 KCAL/MOL
REMARK 924 INTRA-LIGAND FREE ENERGY PREDICTED BY IDOCK:   -0.74 KCAL/MOL
REMARK 927      BINDING AFFINITY PREDICTED BY RF-SCORE:    0.00 PKD
ROOT
HETATM    1  C   UNL     1      -8.800   6.945  72.475  1.00  0.00    -0.136 C  
HETATM    2  C   UNL     1      -9.856   6.963  71.367  1.00  0.00    -0.178 C  
ENDROOT
BRANCH   2   3
HETATM    3  N   UNL     1      -9.354   6.701  69.997  1.00  0.00    -0.157 NA 
BRANCH   3   4
HETATM    4  C   UNL     1      -9.889   5.436  69.469  1.00  0.00    -0.196 C  
HETATM    5  C   UNL     1      -8.878   4.335  69.177  1.00  0.00    -0.134 C  
ENDBRANCH   3   4
BRANCH   3   6
HETATM    6  C   UNL     1      -9.541   7.886  69.089  1.00  0.00    -0.153 C  
HETATM    7  C   UNL     1     -10.602   7.514  68.012  1.00  0.00    -0.217 C  
BRANCH   6   8
HETATM    8  C   UNL     1     -10.066   9.247  69.702  1.00  0.00    -0.197 C  
BRANCH   8   9
HETATM    9  N   UNL     1      -9.379  10.511  69.294  1.00  0.00    -0.189 NA 
HETATM   10  C   UNL     1      -8.011  10.649  69.679  1.00  0.00    -0.003 A  
HETATM   11  C   UNL     1      -7.451   9.930  70.758  1.00  0.00     0.170 A  
HETATM   12  C   UNL     1      -6.070   9.872  70.984  1.00  0.00    -0.055 A  
HETATM   13  C   UNL     1      -5.206  10.567  70.157  1.00  0.00    -0.043 A  
HETATM   14  C   UNL     1      -5.733  11.387  69.168  1.00  0.00    -0.045 A  
HETATM   15  C   UNL     1      -7.123  11.467  68.952  1.00  0.00    -0.109 A  
HETATM   16  S   UNL     1      -7.637  12.620  67.709  1.00  0.00    -0.157 SA 
HETATM   17  C   UNL     1      -9.402  12.413  67.702  1.00  0.00    -0.188 A  
HETATM   18  C   UNL     1     -10.097  13.289  66.844  1.00  0.00    -0.250 A  
HETATM   19  C   UNL     1     -11.468  13.164  66.650  1.00  0.00    -0.389 A  
HETATM   20  C   UNL     1     -12.149  12.164  67.322  1.00  0.00     0.045 A  
HETATM   21  C   UNL     1     -11.470  11.309  68.198  1.00  0.00    -0.376 A  
HETATM   22  C   UNL     1     -10.076  11.395  68.415  1.00  0.00    -0.201 A  
ENDBRANCH   8   9
ENDBRANCH   6   8
ENDBRANCH   3   6
ENDBRANCH   2   3
TORSDOF 5
ENDMDL
MODEL      237
REMARK 921   NORMALIZED FREE ENERGY PREDICTED BY IDOCK:   -2.36 KCAL/MOL
REMARK 922        TOTAL FREE ENERGY PREDICTED BY IDOCK:   -3.86 KCAL/MOL
REMARK 923 INTER-LIGAND FREE ENERGY PREDICTED BY IDOCK:   -3.67 KCAL/MOL
REMARK 924 INTRA-LIGAND FREE ENERGY PREDICTED BY IDOCK:   -0.19 KCAL/MOL
REMARK 927      BINDING AFFINITY PREDICTED BY RF-SCORE:    0.00 PKD
ROOT
HETATM    1  C   UNL     1     -11.358  11.484  70.015  1.00  0.00    -0.222 C  
HETATM    2  C   UNL     1     -11.879  10.055  69.840  1.00  0.00    -0.074 C  
ENDROOT
BRANCH   2   3
HETATM    3  N   UNL     1     -11.150   9.008  70.597  1.00  0.00    -0.254 NA 
BRANCH   3   4
HETATM    4  C   UNL     1     -12.084   8.055  71.218  1.00  0.00    -0.291 C  
HETATM    5  C   UNL     1     -11.838   7.714  72.683  1.00  0.00    -0.269 C  
ENDBRANCH   3   4
BRANCH   3   6
HETATM    6  C   UNL     1     -10.062   8.371  69.776  1.00  0.00    -0.197 C  
HETATM    7  C   UNL     1      -9.038   7.717  70.748  1.00  0.00    -0.153 C  
BRANCH   6   8
HETATM    8  C   UNL     1     -10.441   7.212  68.767  1.00  0.00    -0.202 C  
BRANCH   8   9
HETATM    9  N   UNL     1      -9.402   6.768  67.787  1.00  0.00    -0.117 NA 
HETATM   10  C   UNL     1      -8.989   5.404  67.865  1.00  0.00    -0.108 A  
HETATM   11  C   UNL     1      -9.139   4.632  69.038  1.00  0.00    -0.165 A  
HETATM   12  C   UNL     1      -8.969   3.243  69.049  1.00  0.00    -0.187 A  
HETATM   13  C   UNL     1      -8.602   2.584  67.888  1.00  0.00    -0.117 A  
HETATM   14  C   UNL     1      -8.320   3.329  66.751  1.00  0.00    -0.101 A  
HETATM   15  C   UNL     1      -8.468   4.729  66.743  1.00  0.00    -0.105 A  
HETATM   16  S   UNL     1      -7.988   5.538  65.241  1.00  0.00    -0.118 SA 
HETATM   17  C   UNL     1      -8.344   7.243  65.595  1.00  0.00    -0.140 A  
HETATM   18  C   UNL     1      -7.973   8.147  64.579  1.00  0.00    -0.142 A  
HETATM   19  C   UNL     1      -8.295   9.497  64.669  1.00  0.00    -0.161 A  
HETATM   20  C   UNL     1      -8.984   9.947  65.782  1.00  0.00    -0.189 A  
HETATM   21  C   UNL     1      -9.331   9.059  66.807  1.00  0.00    -0.213 A  
HETATM   22  C   UNL     1      -9.032   7.678  66.750  1.00  0.00    -0.144 A  
ENDBRANCH   8   9
ENDBRANCH   6   8
ENDBRANCH   3   6
ENDBRANCH   2   3
TORSDOF 5
ENDMDL
MODEL      238
REMARK 921   NORMALIZED FREE ENERGY PREDICTED BY IDOCK:   -2.34 KCAL/MOL
REMARK 922        TOTAL FREE ENERGY PREDICTED BY IDOCK:   -3.84 KCAL/MOL
REMARK 923 INTER-LIGAND FREE ENERGY PREDICTED BY IDOCK:   -3.61 KCAL/MOL
REMARK 924 INTRA-LIGAND FREE ENERGY PREDICTED BY IDOCK:   -0.23 KCAL/MOL
REMARK 927      BINDING AFFINITY PREDICTED BY RF-SCORE:    0.00 PKD
ROOT
HETATM    1  C   UNL     1      -9.975  11.965  66.476  1.00  0.00    -0.225 C  
HETATM    2  C   UNL     1      -9.201  10.715  66.904  1.00  0.00    -0.155 C  
ENDROOT
BRANCH   2   3
HETATM    3  N   UNL     1      -9.877   9.421  66.643  1.00  0.00    -0.225 NA 
BRANCH   3   4
HETATM    4  C   UNL     1      -9.151   8.637  65.631  1.00  0.00    -0.164 C  
HETATM    5  C   UNL     1      -8.988   9.277  64.258  1.00  0.00    -0.142 C  
ENDBRANCH   3   4
BRANCH   3   6
HETATM    6  C   UNL     1     -10.179   8.673  67.914  1.00  0.00    -0.219 C  
HETATM    7  C   UNL     1     -10.318   7.162  67.571  1.00  0.00    -0.303 C  
BRANCH   6   8
HETATM    8  C   UNL     1      -9.125   8.711  69.094  1.00  0.00    -0.142 C  
BRANCH   8   9
HETATM    9  N   UNL     1      -9.117   7.573  70.064  1.00  0.00    -0.148 NA 
HETATM   10  C   UNL     1     -10.302   7.382  70.837  1.00  0.00    -0.200 A  
HETATM   11  C   UNL     1     -11.232   8.420  71.070  1.00  0.00    -0.304 A  
HETATM   12  C   UNL     1     -12.501   8.182  71.609  1.00  0.00    -0.349 A  
HETATM   13  C   UNL     1     -12.868   6.898  71.971  1.00  0.00    -0.204 A  
HETATM   14  C   UNL     1     -11.931   5.878  71.876  1.00  0.00    -0.069 A  
HETATM   15  C   UNL     1     -10.644   6.117  71.356  1.00  0.00    -0.243 A  
HETATM   16  S   UNL     1      -9.542   4.729  71.380  1.00  0.00    -0.172 SA 
HETATM   17  C   UNL     1      -8.075   5.395  70.630  1.00  0.00    -0.110 A  
HETATM   18  C   UNL     1      -6.976   4.512  70.595  1.00  0.00    -0.037 A  
HETATM   19  C   UNL     1      -5.801   4.856  69.936  1.00  0.00    -0.017 A  
HETATM   20  C   UNL     1      -5.720   6.091  69.317  1.00  0.00    -0.016 A  
HETATM   21  C   UNL     1      -6.796   6.984  69.373  1.00  0.00    -0.054 A  
HETATM   22  C   UNL     1      -8.012   6.670  70.022  1.00  0.00    -0.116 A  
ENDBRANCH   8   9
ENDBRANCH   6   8
ENDBRANCH   3   6
ENDBRANCH   2   3
TORSDOF 5
ENDMDL
MODEL      239
REMARK 921   NORMALIZED FREE ENERGY PREDICTED BY IDOCK:   -2.29 KCAL/MOL
REMARK 922        TOTAL FREE ENERGY PREDICTED BY IDOCK:   -3.77 KCAL/MOL
REMARK 923 INTER-LIGAND FREE ENERGY PREDICTED BY IDOCK:   -4.04 KCAL/MOL
REMARK 924 INTRA-LIGAND FREE ENERGY PREDICTED BY IDOCK:    0.26 KCAL/MOL
REMARK 927      BINDING AFFINITY PREDICTED BY RF-SCORE:    0.00 PKD
ROOT
HETATM    1  C   UNL     1      -8.047  15.464  66.800  1.00  0.00    -0.212 C  
HETATM    2  C   UNL     1      -7.952  14.177  67.623  1.00  0.00    -0.178 C  
ENDROOT
BRANCH   2   3
HETATM    3  N   UNL     1      -6.872  13.241  67.228  1.00  0.00    -0.136 NA 
BRANCH   3   4
HETATM    4  C   UNL     1      -5.610  13.569  67.910  1.00  0.00    -0.116 C  
HETATM    5  C   UNL     1      -5.705  14.490  69.120  1.00  0.00    -0.091 C  
ENDBRANCH   3   4
BRANCH   3   6
HETATM    6  C   UNL     1      -7.295  11.802  67.355  1.00  0.00    -0.136 C  
HETATM    7  C   UNL     1      -7.053  11.349  68.823  1.00  0.00    -0.102 C  
BRANCH   6   8
HETATM    8  C   UNL     1      -8.804  11.418  67.069  1.00  0.00    -0.168 C  
BRANCH   8   9
HETATM    9  N   UNL     1      -9.511  10.564  68.072  1.00  0.00    -0.147 NA 
HETATM   10  C   UNL     1      -9.025   9.232  68.234  1.00  0.00    -0.129 A  
HETATM   11  C   UNL     1      -8.280   8.568  67.234  1.00  0.00    -0.108 A  
HETATM   12  C   UNL     1      -7.597   7.371  67.477  1.00  0.00    -0.106 A  
HETATM   13  C   UNL     1      -7.669   6.776  68.724  1.00  0.00    -0.110 A  
HETATM   14  C   UNL     1      -8.498   7.334  69.690  1.00  0.00    -0.133 A  
HETATM   15  C   UNL     1      -9.206   8.526  69.441  1.00  0.00    -0.153 A  
HETATM   16  S   UNL     1     -10.282   9.059  70.744  1.00  0.00    -0.267 SA 
HETATM   17  C   UNL     1     -10.950  10.571  70.092  1.00  0.00    -0.270 A  
HETATM   18  C   UNL     1     -11.926  11.185  70.904  1.00  0.00    -0.362 A  
HETATM   19  C   UNL     1     -12.451  12.430  70.576  1.00  0.00    -0.270 A  
HETATM   20  C   UNL     1     -12.006  13.061  69.428  1.00  0.00    -0.338 A  
HETATM   21  C   UNL     1     -11.058  12.445  68.602  1.00  0.00    -0.297 A  
HETATM   22  C   UNL     1     -10.491  11.185  68.904  1.00  0.00    -0.207 A  
ENDBRANCH   8   9
ENDBRANCH   6   8
ENDBRANCH   3   6
ENDBRANCH   2   3
TORSDOF 5
ENDMDL
MODEL      240
REMARK 921   NORMALIZED FREE ENERGY PREDICTED BY IDOCK:   -2.25 KCAL/MOL
REMARK 922        TOTAL FREE ENERGY PREDICTED BY IDOCK:   -3.72 KCAL/MOL
REMARK 923 INTER-LIGAND FREE ENERGY PREDICTED BY IDOCK:   -3.41 KCAL/MOL
REMARK 924 INTRA-LIGAND FREE ENERGY PREDICTED BY IDOCK:   -0.31 KCAL/MOL
REMARK 927      BINDING AFFINITY PREDICTED BY RF-SCORE:    0.00 PKD
ROOT
HETATM    1  C   UNL     1     -10.814  11.086  69.447  1.00  0.00    -0.278 C  
HETATM    2  C   UNL     1     -10.728   9.575  69.680  1.00  0.00    -0.238 C  
ENDROOT
BRANCH   2   3
HETATM    3  N   UNL     1     -10.135   9.157  70.974  1.00  0.00    -0.278 NA 
BRANCH   3   4
HETATM    4  C   UNL     1     -11.137   9.193  72.052  1.00  0.00    -0.214 C  
HETATM    5  C   UNL     1     -12.562   8.811  71.674  1.00  0.00    -0.393 C  
ENDBRANCH   3   4
BRANCH   3   6
HETATM    6  C   UNL     1      -9.385   7.858  70.861  1.00  0.00    -0.153 C  
HETATM    7  C   UNL     1      -8.906   7.444  72.282  1.00  0.00    -0.148 C  
BRANCH   6   8
HETATM    8  C   UNL     1     -10.143   6.580  70.315  1.00  0.00    -0.179 C  
BRANCH   8   9
HETATM    9  N   UNL     1      -9.418   5.273  70.336  1.00  0.00    -0.158 NA 
HETATM   10  C   UNL     1      -8.416   5.080  69.338  1.00  0.00    -0.085 A  
HETATM   11  C   UNL     1      -8.406   5.802  68.124  1.00  0.00    -0.107 A  
HETATM   12  C   UNL     1      -7.305   5.799  67.259  1.00  0.00    -0.077 A  
HETATM   13  C   UNL     1      -6.190   5.038  67.563  1.00  0.00    -0.039 A  
HETATM   14  C   UNL     1      -6.221   4.216  68.682  1.00  0.00    -0.032 A  
HETATM   15  C   UNL     1      -7.335   4.198  69.543  1.00  0.00    -0.050 A  
HETATM   16  S   UNL     1      -7.250   3.035  70.877  1.00  0.00    -0.033 SA 
HETATM   17  C   UNL     1      -8.777   3.328  71.737  1.00  0.00    -0.084 A  
HETATM   18  C   UNL     1      -9.020   2.462  72.822  1.00  0.00    -0.097 A  
HETATM   19  C   UNL     1     -10.117   2.648  73.656  1.00  0.00    -0.177 A  
HETATM   20  C   UNL     1     -10.980   3.699  73.399  1.00  0.00    -0.312 A  
HETATM   21  C   UNL     1     -10.761   4.546  72.306  1.00  0.00    -0.112 A  
HETATM   22  C   UNL     1      -9.652   4.398  71.441  1.00  0.00    -0.165 A  
ENDBRANCH   8   9
ENDBRANCH   6   8
ENDBRANCH   3   6
ENDBRANCH   2   3
TORSDOF 5
ENDMDL
MODEL      241
REMARK 921   NORMALIZED FREE ENERGY PREDICTED BY IDOCK:   -2.23 KCAL/MOL
REMARK 922        TOTAL FREE ENERGY PREDICTED BY IDOCK:   -3.70 KCAL/MOL
REMARK 923 INTER-LIGAND FREE ENERGY PREDICTED BY IDOCK:   -3.65 KCAL/MOL
REMARK 924 INTRA-LIGAND FREE ENERGY PREDICTED BY IDOCK:   -0.04 KCAL/MOL
REMARK 927      BINDING AFFINITY PREDICTED BY RF-SCORE:    0.00 PKD
ROOT
HETATM    1  C   UNL     1     -11.703  11.623  68.222  1.00  0.00    -0.374 C  
HETATM    2  C   UNL     1     -10.984  10.629  69.138  1.00  0.00    -0.247 C  
ENDROOT
BRANCH   2   3
HETATM    3  N   UNL     1     -11.404  10.646  70.560  1.00  0.00    -0.311 NA 
BRANCH   3   4
HETATM    4  C   UNL     1     -12.742  11.240  70.711  1.00  0.00    -0.269 C  
HETATM    5  C   UNL     1     -12.940  12.191  71.885  1.00  0.00    -0.419 C  
ENDBRANCH   3   4
BRANCH   3   6
HETATM    6  C   UNL     1     -11.239   9.302  71.216  1.00  0.00    -0.355 C  
HETATM    7  C   UNL     1     -12.607   8.564  71.169  1.00  0.00    -0.162 C  
BRANCH   6   8
HETATM    8  C   UNL     1     -10.214   8.268  70.596  1.00  0.00    -0.193 C  
BRANCH   8   9
HETATM    9  N   UNL     1      -8.803   8.297  71.091  1.00  0.00    -0.140 NA 
HETATM   10  C   UNL     1      -8.507   7.490  72.231  1.00  0.00    -0.114 A  
HETATM   11  C   UNL     1      -9.502   7.072  73.143  1.00  0.00    -0.186 A  
HETATM   12  C   UNL     1      -9.266   6.089  74.111  1.00  0.00    -0.136 A  
HETATM   13  C   UNL     1      -8.010   5.518  74.223  1.00  0.00    -0.105 A  
HETATM   14  C   UNL     1      -6.978   6.000  73.429  1.00  0.00    -0.080 A  
HETATM   15  C   UNL     1      -7.205   7.005  72.470  1.00  0.00    -0.080 A  
HETATM   16  S   UNL     1      -5.769   7.567  71.598  1.00  0.00    -0.036 SA 
HETATM   17  C   UNL     1      -6.446   8.773  70.482  1.00  0.00    -0.040 A  
HETATM   18  C   UNL     1      -5.493   9.459  69.704  1.00  0.00    -0.034 A  
HETATM   19  C   UNL     1      -5.886  10.347  68.707  1.00  0.00    -0.040 A  
HETATM   20  C   UNL     1      -7.237  10.556  68.495  1.00  0.00    -0.085 A  
HETATM   21  C   UNL     1      -8.189   9.899  69.284  1.00  0.00    -0.138 A  
HETATM   22  C   UNL     1      -7.832   8.981  70.298  1.00  0.00    -0.109 A  
ENDBRANCH   8   9
ENDBRANCH   6   8
ENDBRANCH   3   6
ENDBRANCH   2   3
TORSDOF 5
ENDMDL
MODEL      242
REMARK 921   NORMALIZED FREE ENERGY PREDICTED BY IDOCK:   -2.22 KCAL/MOL
REMARK 922        TOTAL FREE ENERGY PREDICTED BY IDOCK:   -3.69 KCAL/MOL
REMARK 923 INTER-LIGAND FREE ENERGY PREDICTED BY IDOCK:   -3.51 KCAL/MOL
REMARK 924 INTRA-LIGAND FREE ENERGY PREDICTED BY IDOCK:   -0.18 KCAL/MOL
REMARK 927      BINDING AFFINITY PREDICTED BY RF-SCORE:    0.00 PKD
ROOT
HETATM    1  C   UNL     1     -10.469  13.661  65.953  1.00  0.00    -0.297 C  
HETATM    2  C   UNL     1      -9.426  12.563  66.178  1.00  0.00    -0.184 C  
ENDROOT
BRANCH   2   3
HETATM    3  N   UNL     1      -9.895  11.176  65.945  1.00  0.00    -0.221 NA 
BRANCH   3   4
HETATM    4  C   UNL     1      -9.432  10.670  64.642  1.00  0.00    -0.258 C  
HETATM    5  C   UNL     1     -10.071  11.287  63.404  1.00  0.00    -0.445 C  
ENDBRANCH   3   4
BRANCH   3   6
HETATM    6  C   UNL     1      -9.589  10.272  67.109  1.00  0.00    -0.168 C  
HETATM    7  C   UNL     1     -10.935   9.855  67.770  1.00  0.00    -0.278 C  
BRANCH   6   8
HETATM    8  C   UNL     1      -8.843   8.902  66.841  1.00  0.00    -0.127 C  
BRANCH   8   9
HETATM    9  N   UNL     1      -8.498   8.050  68.021  1.00  0.00    -0.126 NA 
HETATM   10  C   UNL     1      -8.999   6.713  68.012  1.00  0.00    -0.117 A  
HETATM   11  C   UNL     1     -10.120   6.328  67.245  1.00  0.00    -0.203 A  
HETATM   12  C   UNL     1     -10.463   4.986  67.040  1.00  0.00    -0.208 A  
HETATM   13  C   UNL     1      -9.714   3.984  67.632  1.00  0.00    -0.164 A  
HETATM   14  C   UNL     1      -8.685   4.333  68.497  1.00  0.00    -0.121 A  
HETATM   15  C   UNL     1      -8.352   5.682  68.724  1.00  0.00    -0.103 A  
HETATM   16  S   UNL     1      -7.072   5.961  69.918  1.00  0.00    -0.070 SA 
HETATM   17  C   UNL     1      -6.914   7.731  69.903  1.00  0.00    -0.050 A  
HETATM   18  C   UNL     1      -6.002   8.251  70.843  1.00  0.00    -0.033 A  
HETATM   19  C   UNL     1      -5.691   9.606  70.865  1.00  0.00    -0.071 A  
HETATM   20  C   UNL     1      -6.300  10.446  69.950  1.00  0.00    -0.095 A  
HETATM   21  C   UNL     1      -7.229   9.941  69.032  1.00  0.00    -0.077 A  
HETATM   22  C   UNL     1      -7.565   8.569  68.968  1.00  0.00    -0.094 A  
ENDBRANCH   8   9
ENDBRANCH   6   8
ENDBRANCH   3   6
ENDBRANCH   2   3
TORSDOF 5
ENDMDL
MODEL      243
REMARK 921   NORMALIZED FREE ENERGY PREDICTED BY IDOCK:   -2.22 KCAL/MOL
REMARK 922        TOTAL FREE ENERGY PREDICTED BY IDOCK:   -3.68 KCAL/MOL
REMARK 923 INTER-LIGAND FREE ENERGY PREDICTED BY IDOCK:   -3.68 KCAL/MOL
REMARK 924 INTRA-LIGAND FREE ENERGY PREDICTED BY IDOCK:   -0.00 KCAL/MOL
REMARK 927      BINDING AFFINITY PREDICTED BY RF-SCORE:    0.00 PKD
ROOT
HETATM    1  C   UNL     1     -11.312  12.902  67.301  1.00  0.00    -0.356 C  
HETATM    2  C   UNL     1     -10.294  12.379  66.283  1.00  0.00    -0.244 C  
ENDROOT
BRANCH   2   3
HETATM    3  N   UNL     1     -10.804  11.368  65.326  1.00  0.00    -0.265 NA 
BRANCH   3   4
HETATM    4  C   UNL     1     -10.778  11.881  63.947  1.00  0.00    -0.395 C  
HETATM    5  C   UNL     1     -12.123  12.041  63.251  1.00  0.00    -0.509 C  
ENDBRANCH   3   4
BRANCH   3   6
HETATM    6  C   UNL     1     -10.140  10.030  65.508  1.00  0.00    -0.255 C  
HETATM    7  C   UNL     1      -8.726  10.094  64.862  1.00  0.00    -0.198 C  
BRANCH   6   8
HETATM    8  C   UNL     1      -9.876   9.498  66.976  1.00  0.00    -0.190 C  
BRANCH   8   9
HETATM    9  N   UNL     1      -8.602   8.759  67.234  1.00  0.00    -0.121 NA 
HETATM   10  C   UNL     1      -7.527   9.512  67.795  1.00  0.00    -0.084 A  
HETATM   11  C   UNL     1      -7.444  10.917  67.678  1.00  0.00    -0.095 A  
HETATM   12  C   UNL     1      -6.538  11.679  68.425  1.00  0.00    -0.061 A  
HETATM   13  C   UNL     1      -5.656  11.053  69.288  1.00  0.00    -0.041 A  
HETATM   14  C   UNL     1      -5.624   9.665  69.328  1.00  0.00    -0.035 A  
HETATM   15  C   UNL     1      -6.518   8.894  68.561  1.00  0.00    -0.055 A  
HETATM   16  S   UNL     1      -6.292   7.139  68.661  1.00  0.00    -0.036 SA 
HETATM   17  C   UNL     1      -7.592   6.526  67.616  1.00  0.00    -0.105 A  
HETATM   18  C   UNL     1      -7.599   5.128  67.440  1.00  0.00    -0.088 A  
HETATM   19  C   UNL     1      -8.625   4.498  66.743  1.00  0.00    -0.104 A  
HETATM   20  C   UNL     1      -9.643   5.270  66.213  1.00  0.00    -0.175 A  
HETATM   21  C   UNL     1      -9.627   6.663  66.359  1.00  0.00    -0.147 A  
HETATM   22  C   UNL     1      -8.610   7.341  67.069  1.00  0.00    -0.122 A  
ENDBRANCH   8   9
ENDBRANCH   6   8
ENDBRANCH   3   6
ENDBRANCH   2   3
TORSDOF 5
ENDMDL
MODEL      244
REMARK 921   NORMALIZED FREE ENERGY PREDICTED BY IDOCK:   -2.21 KCAL/MOL
REMARK 922        TOTAL FREE ENERGY PREDICTED BY IDOCK:   -3.68 KCAL/MOL
REMARK 923 INTER-LIGAND FREE ENERGY PREDICTED BY IDOCK:   -3.51 KCAL/MOL
REMARK 924 INTRA-LIGAND FREE ENERGY PREDICTED BY IDOCK:   -0.16 KCAL/MOL
REMARK 927      BINDING AFFINITY PREDICTED BY RF-SCORE:    0.00 PKD
ROOT
HETATM    1  C   UNL     1     -10.856  11.393  69.522  1.00  0.00    -0.165 C  
HETATM    2  C   UNL     1     -10.832   9.910  69.142  1.00  0.00    -0.221 C  
ENDROOT
BRANCH   2   3
HETATM    3  N   UNL     1     -10.206   9.003  70.134  1.00  0.00    -0.188 NA 
BRANCH   3   4
HETATM    4  C   UNL     1     -11.183   8.560  71.141  1.00  0.00    -0.267 C  
HETATM    5  C   UNL     1     -12.482   9.353  71.228  1.00  0.00    -0.416 C  
ENDBRANCH   3   4
BRANCH   3   6
HETATM    6  C   UNL     1      -9.438   7.888  69.477  1.00  0.00    -0.160 C  
HETATM    7  C   UNL     1      -8.756   7.042  70.590  1.00  0.00    -0.149 C  
BRANCH   6   8
HETATM    8  C   UNL     1     -10.223   6.828  68.603  1.00  0.00    -0.175 C  
BRANCH   8   9
HETATM    9  N   UNL     1      -9.476   6.127  67.514  1.00  0.00    -0.112 NA 
HETATM   10  C   UNL     1      -9.025   6.933  66.426  1.00  0.00    -0.153 A  
HETATM   11  C   UNL     1      -9.617   8.174  66.105  1.00  0.00    -0.188 A  
HETATM   12  C   UNL     1      -9.031   9.075  65.208  1.00  0.00    -0.233 A  
HETATM   13  C   UNL     1      -7.848   8.743  64.570  1.00  0.00    -0.129 A  
HETATM   14  C   UNL     1      -7.310   7.478  64.765  1.00  0.00    -0.080 A  
HETATM   15  C   UNL     1      -7.909   6.560  65.649  1.00  0.00    -0.100 A  
HETATM   16  S   UNL     1      -7.147   4.961  65.721  1.00  0.00    -0.068 SA 
HETATM   17  C   UNL     1      -8.135   4.122  66.936  1.00  0.00    -0.101 A  
HETATM   18  C   UNL     1      -7.799   2.768  67.139  1.00  0.00    -0.074 A  
HETATM   19  C   UNL     1      -8.409   2.020  68.139  1.00  0.00    -0.077 A  
HETATM   20  C   UNL     1      -9.366   2.624  68.935  1.00  0.00    -0.223 A  
HETATM   21  C   UNL     1      -9.727   3.960  68.720  1.00  0.00    -0.119 A  
HETATM   22  C   UNL     1      -9.123   4.759  67.722  1.00  0.00    -0.116 A  
ENDBRANCH   8   9
ENDBRANCH   6   8
ENDBRANCH   3   6
ENDBRANCH   2   3
TORSDOF 5
ENDMDL
MODEL      245
REMARK 921   NORMALIZED FREE ENERGY PREDICTED BY IDOCK:   -2.21 KCAL/MOL
REMARK 922        TOTAL FREE ENERGY PREDICTED BY IDOCK:   -3.68 KCAL/MOL
REMARK 923 INTER-LIGAND FREE ENERGY PREDICTED BY IDOCK:   -4.13 KCAL/MOL
REMARK 924 INTRA-LIGAND FREE ENERGY PREDICTED BY IDOCK:    0.45 KCAL/MOL
REMARK 927      BINDING AFFINITY PREDICTED BY RF-SCORE:    0.00 PKD
ROOT
HETATM    1  C   UNL     1     -11.061  15.323  64.605  1.00  0.00    -0.346 C  
HETATM    2  C   UNL     1      -9.953  15.587  65.628  1.00  0.00    -0.360 C  
ENDROOT
BRANCH   2   3
HETATM    3  N   UNL     1     -10.328  16.451  66.773  1.00  0.00    -0.291 NA 
BRANCH   3   4
HETATM    4  C   UNL     1     -11.158  17.584  66.334  1.00  0.00     0.486 C  
HETATM    5  C   UNL     1     -10.461  18.933  66.205  1.00  0.00    -0.510 C  
ENDBRANCH   3   4
BRANCH   3   6
HETATM    6  C   UNL     1     -10.906  15.659  67.914  1.00  0.00    -0.306 C  
HETATM    7  C   UNL     1     -11.864  14.583  67.327  1.00  0.00    -0.419 C  
BRANCH   6   8
HETATM    8  C   UNL     1      -9.929  14.843  68.854  1.00  0.00    -0.233 C  
BRANCH   8   9
HETATM    9  N   UNL     1      -8.576  14.491  68.322  1.00  0.00    -0.164 NA 
HETATM   10  C   UNL     1      -7.533  15.438  68.550  1.00  0.00    -0.117 A  
HETATM   11  C   UNL     1      -7.790  16.804  68.804  1.00  0.00    -0.243 A  
HETATM   12  C   UNL     1      -6.800  17.679  69.268  1.00  0.00    -0.194 A  
HETATM   13  C   UNL     1      -5.507  17.223  69.454  1.00  0.00    -0.180 A  
HETATM   14  C   UNL     1      -5.193  15.920  69.089  1.00  0.00    -0.105 A  
HETATM   15  C   UNL     1      -6.180  15.043  68.600  1.00  0.00    -0.085 A  
HETATM   16  S   UNL     1      -5.601  13.444  68.101  1.00  0.00    -0.117 SA 
HETATM   17  C   UNL     1      -7.099  12.636  67.593  1.00  0.00    -0.139 A  
HETATM   18  C   UNL     1      -6.922  11.345  67.056  1.00  0.00    -0.135 A  
HETATM   19  C   UNL     1      -8.014  10.551  66.725  1.00  0.00    -0.121 A  
HETATM   20  C   UNL     1      -9.289  11.052  66.922  1.00  0.00    -0.189 A  
HETATM   21  C   UNL     1      -9.472  12.344  67.428  1.00  0.00    -0.186 A  
HETATM   22  C   UNL     1      -8.390  13.180  67.789  1.00  0.00    -0.171 A  
ENDBRANCH   8   9
ENDBRANCH   6   8
ENDBRANCH   3   6
ENDBRANCH   2   3
TORSDOF 5
ENDMDL
MODEL      246
REMARK 921   NORMALIZED FREE ENERGY PREDICTED BY IDOCK:   -1.81 KCAL/MOL
REMARK 922        TOTAL FREE ENERGY PREDICTED BY IDOCK:   -3.16 KCAL/MOL
REMARK 923 INTER-LIGAND FREE ENERGY PREDICTED BY IDOCK:   -3.01 KCAL/MOL
REMARK 924 INTRA-LIGAND FREE ENERGY PREDICTED BY IDOCK:   -0.15 KCAL/MOL
REMARK 927      BINDING AFFINITY PREDICTED BY RF-SCORE:    0.00 PKD
ROOT
HETATM    1  C   UNL     1     -10.053   4.554  73.141  1.00  0.00    -0.204 C  
HETATM    2  C   UNL     1     -11.329   4.940  72.388  1.00  0.00     0.090 C  
ENDROOT
BRANCH   2   3
HETATM    3  N   UNL     1     -11.199   6.073  71.441  1.00  0.00    -0.282 NA 
BRANCH   3   4
HETATM    4  C   UNL     1     -10.314   7.118  71.983  1.00  0.00    -0.191 C  
HETATM    5  C   UNL     1     -10.973   8.199  72.830  1.00  0.00    -0.401 C  
ENDBRANCH   3   4
BRANCH   3   6
HETATM    6  C   UNL     1     -10.845   5.614  70.053  1.00  0.00    -0.296 C  
HETATM    7  C   UNL     1     -10.459   6.862  69.208  1.00  0.00    -0.233 C  
BRANCH   6   8
HETATM    8  C   UNL     1      -9.629   4.619  69.861  1.00  0.00    -0.191 C  
BRANCH   8   9
HETATM    9  N   UNL     1      -8.453   5.095  69.068  1.00  0.00    -0.090 NA 
HETATM   10  C   UNL     1      -8.529   4.936  67.652  1.00  0.00    -0.104 A  
HETATM   11  C   UNL     1      -9.377   3.986  67.039  1.00  0.00    -0.204 A  
HETATM   12  C   UNL     1      -9.640   3.992  65.665  1.00  0.00    -0.190 A  
HETATM   13  C   UNL     1      -9.029   4.927  64.849  1.00  0.00    -0.138 A  
HETATM   14  C   UNL     1      -8.091   5.791  65.399  1.00  0.00    -0.131 A  
HETATM   15  C   UNL     1      -7.806   5.773  66.778  1.00  0.00    -0.101 A  
HETATM   16  S   UNL     1      -6.525   6.878  67.307  1.00  0.00    -0.051 SA 
HETATM   17  C   UNL     1      -6.483   6.602  69.062  1.00  0.00    -0.040 A  
HETATM   18  C   UNL     1      -5.473   7.307  69.747  1.00  0.00    -0.023 A  
HETATM   19  C   UNL     1      -5.394   7.278  71.135  1.00  0.00    -0.027 A  
HETATM   20  C   UNL     1      -6.323   6.534  71.841  1.00  0.00    -0.046 A  
HETATM   21  C   UNL     1      -7.312   5.808  71.166  1.00  0.00    -0.082 A  
HETATM   22  C   UNL     1      -7.434   5.820  69.757  1.00  0.00    -0.075 A  
ENDBRANCH   8   9
ENDBRANCH   6   8
ENDBRANCH   3   6
ENDBRANCH   2   3
TORSDOF 5
ENDMDL
MODEL      247
REMARK 921   NORMALIZED FREE ENERGY PREDICTED BY IDOCK:   -1.72 KCAL/MOL
REMARK 922        TOTAL FREE ENERGY PREDICTED BY IDOCK:   -3.04 KCAL/MOL
REMARK 923 INTER-LIGAND FREE ENERGY PREDICTED BY IDOCK:   -3.93 KCAL/MOL
REMARK 924 INTRA-LIGAND FREE ENERGY PREDICTED BY IDOCK:    0.89 KCAL/MOL
REMARK 927      BINDING AFFINITY PREDICTED BY RF-SCORE:    0.00 PKD
ROOT
HETATM    1  C   UNL     1     -12.193  13.376  68.396  1.00  0.00    -0.127 C  
HETATM    2  C   UNL     1     -11.030  13.172  69.371  1.00  0.00     0.001 C  
ENDROOT
BRANCH   2   3
HETATM    3  N   UNL     1     -10.388  11.836  69.335  1.00  0.00     0.118 NA 
BRANCH   3   4
HETATM    4  C   UNL     1     -11.339  10.802  68.898  1.00  0.00    -0.284 C  
HETATM    5  C   UNL     1     -11.495  10.607  67.395  1.00  0.00    -0.022 C  
ENDBRANCH   3   4
BRANCH   3   6
HETATM    6  C   UNL     1      -9.090  11.852  68.575  1.00  0.00    -0.123 C  
HETATM    7  C   UNL     1      -8.421  10.455  68.720  1.00  0.00    -0.132 C  
BRANCH   6   8
HETATM    8  C   UNL     1      -9.118  12.112  67.014  1.00  0.00    -0.198 C  
BRANCH   8   9
HETATM    9  N   UNL     1      -8.823  13.496  66.528  1.00  0.00    -0.057 NA 
HETATM   10  C   UNL     1      -9.799  14.098  65.678  1.00  0.00    -0.249 A  
HETATM   11  C   UNL     1     -10.727  13.338  64.932  1.00  0.00    -0.365 A  
HETATM   12  C   UNL     1     -11.832  13.917  64.297  1.00  0.00    -0.441 A  
HETATM   13  C   UNL     1     -12.022  15.287  64.355  1.00  0.00    -0.285 A  
HETATM   14  C   UNL     1     -11.057  16.075  64.969  1.00  0.00    -0.345 A  
HETATM   15  C   UNL     1      -9.932  15.498  65.589  1.00  0.00    -0.360 A  
HETATM   16  S   UNL     1      -8.755  16.645  66.252  1.00  0.00    -0.306 SA 
HETATM   17  C   UNL     1      -7.532  15.569  66.963  1.00  0.00    -0.170 A  
HETATM   18  C   UNL     1      -6.408  16.226  67.502  1.00  0.00    -0.189 A  
HETATM   19  C   UNL     1      -5.428  15.521  68.193  1.00  0.00    -0.124 A  
HETATM   20  C   UNL     1      -5.568  14.152  68.338  1.00  0.00    -0.106 A  
HETATM   21  C   UNL     1      -6.668  13.488  67.780  1.00  0.00    -0.173 A  
HETATM   22  C   UNL     1      -7.692  14.169  67.081  1.00  0.00     0.007 A  
ENDBRANCH   8   9
ENDBRANCH   6   8
ENDBRANCH   3   6
ENDBRANCH   2   3
TORSDOF 5
ENDMDL
MODEL      248
REMARK 921   NORMALIZED FREE ENERGY PREDICTED BY IDOCK:   -1.65 KCAL/MOL
REMARK 922        TOTAL FREE ENERGY PREDICTED BY IDOCK:   -2.95 KCAL/MOL
REMARK 923 INTER-LIGAND FREE ENERGY PREDICTED BY IDOCK:   -2.79 KCAL/MOL
REMARK 924 INTRA-LIGAND FREE ENERGY PREDICTED BY IDOCK:   -0.16 KCAL/MOL
REMARK 927      BINDING AFFINITY PREDICTED BY RF-SCORE:    0.00 PKD
ROOT
HETATM    1  C   UNL     1      -8.122  14.832  67.136  1.00  0.00    -0.226 C  
HETATM    2  C   UNL     1      -7.873  13.392  67.593  1.00  0.00    -0.173 C  
ENDROOT
BRANCH   2   3
HETATM    3  N   UNL     1      -6.518  12.857  67.319  1.00  0.00    -0.220 NA 
BRANCH   3   4
HETATM    4  C   UNL     1      -5.652  12.971  68.503  1.00  0.00    -0.069 C  
HETATM    5  C   UNL     1      -6.324  13.396  69.803  1.00  0.00    -0.083 C  
ENDBRANCH   3   4
BRANCH   3   6
HETATM    6  C   UNL     1      -6.565  11.482  66.710  1.00  0.00    -0.119 C  
HETATM    7  C   UNL     1      -5.741  10.519  67.612  1.00  0.00    -0.044 C  
BRANCH   6   8
HETATM    8  C   UNL     1      -7.966  10.763  66.546  1.00  0.00    -0.144 C  
BRANCH   8   9
HETATM    9  N   UNL     1      -7.991   9.268  66.548  1.00  0.00    -0.103 NA 
HETATM   10  C   UNL     1      -8.560   8.639  67.696  1.00  0.00    -0.136 A  
HETATM   11  C   UNL     1      -8.652   9.286  68.948  1.00  0.00    -0.130 A  
HETATM   12  C   UNL     1      -9.421   8.777  70.001  1.00  0.00    -0.176 A  
HETATM   13  C   UNL     1     -10.094   7.577  69.847  1.00  0.00    -0.193 A  
HETATM   14  C   UNL     1      -9.918   6.852  68.675  1.00  0.00    -0.149 A  
HETATM   15  C   UNL     1      -9.126   7.350  67.622  1.00  0.00    -0.125 A  
HETATM   16  S   UNL     1      -8.936   6.267  66.232  1.00  0.00    -0.151 SA 
HETATM   17  C   UNL     1      -7.933   7.234  65.130  1.00  0.00    -0.128 A  
HETATM   18  C   UNL     1      -7.546   6.571  63.947  1.00  0.00    -0.103 A  
HETATM   19  C   UNL     1      -6.858   7.241  62.942  1.00  0.00    -0.054 A  
HETATM   20  C   UNL     1      -6.547   8.577  63.122  1.00  0.00    -0.090 A  
HETATM   21  C   UNL     1      -6.902   9.235  64.306  1.00  0.00    -0.090 A  
HETATM   22  C   UNL     1      -7.612   8.594  65.348  1.00  0.00    -0.087 A  
ENDBRANCH   8   9
ENDBRANCH   6   8
ENDBRANCH   3   6
ENDBRANCH   2   3
TORSDOF 5
ENDMDL
MODEL      249
REMARK 921   NORMALIZED FREE ENERGY PREDICTED BY IDOCK:   -1.51 KCAL/MOL
REMARK 922        TOTAL FREE ENERGY PREDICTED BY IDOCK:   -2.77 KCAL/MOL
REMARK 923 INTER-LIGAND FREE ENERGY PREDICTED BY IDOCK:   -2.60 KCAL/MOL
REMARK 924 INTRA-LIGAND FREE ENERGY PREDICTED BY IDOCK:   -0.17 KCAL/MOL
REMARK 927      BINDING AFFINITY PREDICTED BY RF-SCORE:    0.00 PKD
ROOT
HETATM    1  C   UNL     1      -7.459  16.910  67.790  1.00  0.00    -0.176 C  
HETATM    2  C   UNL     1      -7.494  15.387  67.634  1.00  0.00    -0.173 C  
ENDROOT
BRANCH   2   3
HETATM    3  N   UNL     1      -8.393  14.666  68.567  1.00  0.00    -0.156 NA 
BRANCH   3   4
HETATM    4  C   UNL     1      -9.732  15.277  68.593  1.00  0.00    -0.212 C  
HETATM    5  C   UNL     1     -10.613  14.943  69.790  1.00  0.00    -0.189 C  
ENDBRANCH   3   4
BRANCH   3   6
HETATM    6  C   UNL     1      -8.389  13.181  68.325  1.00  0.00    -0.152 C  
HETATM    7  C   UNL     1      -9.673  12.812  67.527  1.00  0.00    -0.201 C  
BRANCH   6   8
HETATM    8  C   UNL     1      -7.209  12.545  67.484  1.00  0.00    -0.147 C  
BRANCH   8   9
HETATM    9  N   UNL     1      -7.001  11.067  67.573  1.00  0.00    -0.082 NA 
HETATM   10  C   UNL     1      -6.377  10.579  68.761  1.00  0.00    -0.047 A  
HETATM   11  C   UNL     1      -5.566  11.394  69.581  1.00  0.00    -0.064 A  
HETATM   12  C   UNL     1      -5.157  10.999  70.860  1.00  0.00    -0.103 A  
HETATM   13  C   UNL     1      -5.515   9.753  71.345  1.00  0.00    -0.074 A  
HETATM   14  C   UNL     1      -6.201   8.878  70.513  1.00  0.00    -0.042 A  
HETATM   15  C   UNL     1      -6.594   9.263  69.217  1.00  0.00    -0.049 A  
HETATM   16  S   UNL     1      -7.387   8.003  68.255  1.00  0.00    -0.097 SA 
HETATM   17  C   UNL     1      -7.756   8.856  66.740  1.00  0.00    -0.097 A  
HETATM   18  C   UNL     1      -8.329   8.052  65.734  1.00  0.00    -0.142 A  
HETATM   19  C   UNL     1      -8.776   8.608  64.540  1.00  0.00    -0.034 A  
HETATM   20  C   UNL     1      -8.642   9.972  64.347  1.00  0.00    -0.199 A  
HETATM   21  C   UNL     1      -8.047  10.772  65.331  1.00  0.00    -0.050 A  
HETATM   22  C   UNL     1      -7.591  10.249  66.562  1.00  0.00    -0.113 A  
ENDBRANCH   8   9
ENDBRANCH   6   8
ENDBRANCH   3   6
ENDBRANCH   2   3
TORSDOF 5
ENDMDL
MODEL      250
REMARK 921   NORMALIZED FREE ENERGY PREDICTED BY IDOCK:   -1.32 KCAL/MOL
REMARK 922        TOTAL FREE ENERGY PREDICTED BY IDOCK:   -2.53 KCAL/MOL
REMARK 923 INTER-LIGAND FREE ENERGY PREDICTED BY IDOCK:   -2.27 KCAL/MOL
REMARK 924 INTRA-LIGAND FREE ENERGY PREDICTED BY IDOCK:   -0.26 KCAL/MOL
REMARK 927      BINDING AFFINITY PREDICTED BY RF-SCORE:    0.00 PKD
ROOT
HETATM    1  C   UNL     1     -10.660   5.459  72.674  1.00  0.00    -0.274 C  
HETATM    2  C   UNL     1     -11.481   5.798  71.426  1.00  0.00    -0.025 C  
ENDROOT
BRANCH   2   3
HETATM    3  N   UNL     1     -10.939   6.885  70.576  1.00  0.00    -0.259 NA 
BRANCH   3   4
HETATM    4  C   UNL     1     -10.751   8.122  71.352  1.00  0.00    -0.232 C  
HETATM    5  C   UNL     1     -11.728   9.257  71.075  1.00  0.00    -0.378 C  
ENDBRANCH   3   4
BRANCH   3   6
HETATM    6  C   UNL     1      -9.728   6.446  69.799  1.00  0.00    -0.154 C  
HETATM    7  C   UNL     1      -9.648   7.295  68.498  1.00  0.00    -0.140 C  
BRANCH   6   8
HETATM    8  C   UNL     1      -8.296   6.601  70.456  1.00  0.00    -0.130 C  
BRANCH   8   9
HETATM    9  N   UNL     1      -7.142   6.911  69.558  1.00  0.00    -0.073 NA 
HETATM   10  C   UNL     1      -6.588   5.817  68.827  1.00  0.00    -0.051 A  
HETATM   11  C   UNL     1      -6.742   4.474  69.238  1.00  0.00    -0.045 A  
HETATM   12  C   UNL     1      -6.420   3.394  68.407  1.00  0.00    -0.037 A  
HETATM   13  C   UNL     1      -5.893   3.625  67.148  1.00  0.00    -0.023 A  
HETATM   14  C   UNL     1      -5.608   4.929  66.766  1.00  0.00    -0.014 A  
HETATM   15  C   UNL     1      -5.909   6.017  67.607  1.00  0.00    -0.016 A  
HETATM   16  S   UNL     1      -5.407   7.607  67.008  1.00  0.00    -0.031 SA 
HETATM   17  C   UNL     1      -5.976   8.696  68.291  1.00  0.00    -0.042 A  
HETATM   18  C   UNL     1      -5.630  10.051  68.113  1.00  0.00    -0.038 A  
HETATM   19  C   UNL     1      -6.106  11.032  68.977  1.00  0.00    -0.043 A  
HETATM   20  C   UNL     1      -6.925  10.656  70.027  1.00  0.00    -0.131 A  
HETATM   21  C   UNL     1      -7.249   9.309  70.227  1.00  0.00    -0.087 A  
HETATM   22  C   UNL     1      -6.796   8.283  69.366  1.00  0.00    -0.043 A  
ENDBRANCH   8   9
ENDBRANCH   6   8
ENDBRANCH   3   6
ENDBRANCH   2   3
TORSDOF 5
ENDMDL
MODEL      251
REMARK 921   NORMALIZED FREE ENERGY PREDICTED BY IDOCK:   -1.28 KCAL/MOL
REMARK 922        TOTAL FREE ENERGY PREDICTED BY IDOCK:   -2.47 KCAL/MOL
REMARK 923 INTER-LIGAND FREE ENERGY PREDICTED BY IDOCK:   -3.38 KCAL/MOL
REMARK 924 INTRA-LIGAND FREE ENERGY PREDICTED BY IDOCK:    0.91 KCAL/MOL
REMARK 927      BINDING AFFINITY PREDICTED BY RF-SCORE:    0.00 PKD
ROOT
HETATM    1  C   UNL     1      -5.200  16.333  67.493  1.00  0.00    -0.150 C  
HETATM    2  C   UNL     1      -6.090  15.125  67.189  1.00  0.00     0.510 C  
ENDROOT
BRANCH   2   3
HETATM    3  N   UNL     1      -6.203  14.121  68.275  1.00  0.00    -0.104 NA 
BRANCH   3   4
HETATM    4  C   UNL     1      -6.560  14.758  69.552  1.00  0.00    -0.153 C  
HETATM    5  C   UNL     1      -7.280  16.099  69.470  1.00  0.00    -0.136 C  
ENDBRANCH   3   4
BRANCH   3   6
HETATM    6  C   UNL     1      -7.082  12.963  67.886  1.00  0.00    -0.127 C  
HETATM    7  C   UNL     1      -7.555  12.252  69.186  1.00  0.00     0.200 C  
BRANCH   6   8
HETATM    8  C   UNL     1      -8.418  13.249  67.087  1.00  0.00    -0.176 C  
BRANCH   8   9
HETATM    9  N   UNL     1      -9.717  12.981  67.776  1.00  0.00    -0.212 NA 
HETATM   10  C   UNL     1     -10.083  11.611  67.942  1.00  0.00    -0.187 A  
HETATM   11  C   UNL     1      -9.563  10.583  67.126  1.00  0.00    -0.194 A  
HETATM   12  C   UNL     1      -9.722   9.227  67.436  1.00  0.00    -0.208 A  
HETATM   13  C   UNL     1     -10.444   8.854  68.556  1.00  0.00    -0.218 A  
HETATM   14  C   UNL     1     -11.077   9.837  69.306  1.00  0.00    -0.184 A  
HETATM   15  C   UNL     1     -10.940  11.201  68.984  1.00  0.00    -0.235 A  
HETATM   16  S   UNL     1     -11.878  12.320  69.988  1.00  0.00    -0.229 SA 
HETATM   17  C   UNL     1     -11.426  13.903  69.320  1.00  0.00    -0.297 A  
HETATM   18  C   UNL     1     -12.105  15.000  69.887  1.00  0.00    -0.376 A  
HETATM   19  C   UNL     1     -11.771  16.306  69.545  1.00  0.00    -0.094 A  
HETATM   20  C   UNL     1     -10.759  16.516  68.624  1.00  0.00    -0.334 A  
HETATM   21  C   UNL     1     -10.100  15.430  68.034  1.00  0.00    -0.226 A  
HETATM   22  C   UNL     1     -10.402  14.088  68.363  1.00  0.00    -0.251 A  
ENDBRANCH   8   9
ENDBRANCH   6   8
ENDBRANCH   3   6
ENDBRANCH   2   3
TORSDOF 5
ENDMDL
MODEL      252
REMARK 921   NORMALIZED FREE ENERGY PREDICTED BY IDOCK:   -0.96 KCAL/MOL
REMARK 922        TOTAL FREE ENERGY PREDICTED BY IDOCK:   -2.06 KCAL/MOL
REMARK 923 INTER-LIGAND FREE ENERGY PREDICTED BY IDOCK:   -2.56 KCAL/MOL
REMARK 924 INTRA-LIGAND FREE ENERGY PREDICTED BY IDOCK:    0.50 KCAL/MOL
REMARK 927      BINDING AFFINITY PREDICTED BY RF-SCORE:    0.00 PKD
ROOT
HETATM    1  C   UNL     1     -11.399  11.238  66.189  1.00  0.00    -0.035 C  
HETATM    2  C   UNL     1     -10.637  10.694  67.400  1.00  0.00    -0.256 C  
ENDROOT
BRANCH   2   3
HETATM    3  N   UNL     1      -9.163  10.618  67.250  1.00  0.00    -0.143 NA 
BRANCH   3   4
HETATM    4  C   UNL     1      -8.501  11.734  67.943  1.00  0.00    -0.154 C  
HETATM    5  C   UNL     1      -9.118  13.115  67.759  1.00  0.00    -0.200 C  
ENDBRANCH   3   4
BRANCH   3   6
HETATM    6  C   UNL     1      -8.628   9.257  67.604  1.00  0.00    -0.116 C  
HETATM    7  C   UNL     1      -7.550   9.429  68.712  1.00  0.00    -0.079 C  
BRANCH   6   8
HETATM    8  C   UNL     1      -9.620   8.170  68.188  1.00  0.00    -0.149 C  
BRANCH   8   9
HETATM    9  N   UNL     1      -9.328   7.612  69.544  1.00  0.00    -0.153 NA 
HETATM   10  C   UNL     1      -8.152   6.813  69.669  1.00  0.00    -0.126 A  
HETATM   11  C   UNL     1      -7.554   6.167  68.564  1.00  0.00    -0.092 A  
HETATM   12  C   UNL     1      -6.279   5.593  68.632  1.00  0.00    -0.033 A  
HETATM   13  C   UNL     1      -5.576   5.612  69.823  1.00  0.00    -0.008 A  
HETATM   14  C   UNL     1      -6.189   6.123  70.960  1.00  0.00    -0.039 A  
HETATM   15  C   UNL     1      -7.481   6.681  70.901  1.00  0.00    -0.084 A  
HETATM   16  S   UNL     1      -8.153   7.213  72.452  1.00  0.00    -0.101 SA 
HETATM   17  C   UNL     1      -9.733   7.873  71.977  1.00  0.00    -0.187 A  
HETATM   18  C   UNL     1     -10.540   8.303  73.050  1.00  0.00    -0.072 A  
HETATM   19  C   UNL     1     -11.752   8.946  72.822  1.00  0.00     0.290 A  
HETATM   20  C   UNL     1     -12.163   9.153  71.516  1.00  0.00    -0.422 A  
HETATM   21  C   UNL     1     -11.380   8.703  70.447  1.00  0.00    -0.203 A  
HETATM   22  C   UNL     1     -10.137   8.055  70.635  1.00  0.00    -0.194 A  
ENDBRANCH   8   9
ENDBRANCH   6   8
ENDBRANCH   3   6
ENDBRANCH   2   3
TORSDOF 5
ENDMDL
MODEL      253
REMARK 921   NORMALIZED FREE ENERGY PREDICTED BY IDOCK:   -0.91 KCAL/MOL
REMARK 922        TOTAL FREE ENERGY PREDICTED BY IDOCK:   -1.99 KCAL/MOL
REMARK 923 INTER-LIGAND FREE ENERGY PREDICTED BY IDOCK:   -1.96 KCAL/MOL
REMARK 924 INTRA-LIGAND FREE ENERGY PREDICTED BY IDOCK:   -0.03 KCAL/MOL
REMARK 927      BINDING AFFINITY PREDICTED BY RF-SCORE:    0.00 PKD
ROOT
HETATM    1  C   UNL     1     -14.381   9.561  70.486  1.00  0.00     1.001 C  
HETATM    2  C   UNL     1     -13.147  10.271  69.921  1.00  0.00     0.511 C  
ENDROOT
BRANCH   2   3
HETATM    3  N   UNL     1     -12.131  10.684  70.919  1.00  0.00    -0.361 NA 
BRANCH   3   4
HETATM    4  C   UNL     1     -12.751  11.409  72.040  1.00  0.00    -0.014 C  
HETATM    5  C   UNL     1     -13.286  12.803  71.740  1.00  0.00    -0.471 C  
ENDBRANCH   3   4
BRANCH   3   6
HETATM    6  C   UNL     1     -11.243   9.540  71.329  1.00  0.00    -0.382 C  
HETATM    7  C   UNL     1     -11.819   8.919  72.634  1.00  0.00    -0.002 C  
BRANCH   6   8
HETATM    8  C   UNL     1     -11.077   8.309  70.349  1.00  0.00    -0.235 C  
BRANCH   8   9
HETATM    9  N   UNL     1      -9.743   7.636  70.289  1.00  0.00    -0.179 NA 
HETATM   10  C   UNL     1      -9.595   6.438  71.051  1.00  0.00    -0.175 A  
HETATM   11  C   UNL     1     -10.419   6.137  72.158  1.00  0.00    -0.237 A  
HETATM   12  C   UNL     1     -10.445   4.870  72.751  1.00  0.00    -0.257 A  
HETATM   13  C   UNL     1      -9.614   3.869  72.279  1.00  0.00    -0.202 A  
HETATM   14  C   UNL     1      -8.700   4.170  71.277  1.00  0.00    -0.134 A  
HETATM   15  C   UNL     1      -8.654   5.451  70.694  1.00  0.00    -0.127 A  
HETATM   16  S   UNL     1      -7.377   5.696  69.490  1.00  0.00    -0.068 SA 
HETATM   17  C   UNL     1      -7.659   7.372  68.970  1.00  0.00    -0.102 A  
HETATM   18  C   UNL     1      -6.713   7.874  68.054  1.00  0.00    -0.067 A  
HETATM   19  C   UNL     1      -6.872   9.127  67.473  1.00  0.00    -0.077 A  
HETATM   20  C   UNL     1      -7.977   9.886  67.816  1.00  0.00    -0.105 A  
HETATM   21  C   UNL     1      -8.906   9.406  68.748  1.00  0.00    -0.132 A  
HETATM   22  C   UNL     1      -8.787   8.134  69.352  1.00  0.00    -0.143 A  
ENDBRANCH   8   9
ENDBRANCH   6   8
ENDBRANCH   3   6
ENDBRANCH   2   3
TORSDOF 5
ENDMDL
MODEL      254
REMARK 921   NORMALIZED FREE ENERGY PREDICTED BY IDOCK:   -0.71 KCAL/MOL
REMARK 922        TOTAL FREE ENERGY PREDICTED BY IDOCK:   -1.74 KCAL/MOL
REMARK 923 INTER-LIGAND FREE ENERGY PREDICTED BY IDOCK:   -3.76 KCAL/MOL
REMARK 924 INTRA-LIGAND FREE ENERGY PREDICTED BY IDOCK:    2.03 KCAL/MOL
REMARK 927      BINDING AFFINITY PREDICTED BY RF-SCORE:    0.00 PKD
ROOT
HETATM    1  C   UNL     1     -13.966   8.925  72.051  1.00  0.00    -0.497 C  
HETATM    2  C   UNL     1     -12.618   9.641  71.930  1.00  0.00    -0.396 C  
ENDROOT
BRANCH   2   3
HETATM    3  N   UNL     1     -11.421   8.805  72.187  1.00  0.00    -0.364 NA 
BRANCH   3   4
HETATM    4  C   UNL     1     -11.700   7.384  71.925  1.00  0.00    -0.288 C  
HETATM    5  C   UNL     1     -11.473   6.418  73.082  1.00  0.00     0.099 C  
ENDBRANCH   3   4
BRANCH   3   6
HETATM    6  C   UNL     1     -10.198   9.339  71.493  1.00  0.00    -0.268 C  
HETATM    7  C   UNL     1      -8.974   8.487  71.935  1.00  0.00    -0.301 C  
BRANCH   6   8
HETATM    8  C   UNL     1     -10.141   9.314  69.911  1.00  0.00    -0.209 C  
BRANCH   8   9
HETATM    9  N   UNL     1      -9.364  10.389  69.221  1.00  0.00    -0.200 NA 
HETATM   10  C   UNL     1      -7.975  10.479  69.537  1.00  0.00    -0.109 A  
HETATM   11  C   UNL     1      -7.435   9.962  70.735  1.00  0.00     0.170 A  
HETATM   12  C   UNL     1      -6.057   9.826  70.939  1.00  0.00    -0.089 A  
HETATM   13  C   UNL     1      -5.170  10.240  69.961  1.00  0.00    -0.039 A  
HETATM   14  C   UNL     1      -5.665  10.872  68.827  1.00  0.00    -0.040 A  
HETATM   15  C   UNL     1      -7.049  11.032  68.629  1.00  0.00    -0.080 A  
HETATM   16  S   UNL     1      -7.512  11.931  67.174  1.00  0.00    -0.128 SA 
HETATM   17  C   UNL     1      -9.287  11.893  67.250  1.00  0.00    -0.177 A  
HETATM   18  C   UNL     1      -9.938  12.623  66.235  1.00  0.00    -0.266 A  
HETATM   19  C   UNL     1     -11.322  12.588  66.102  1.00  0.00    -0.388 A  
HETATM   20  C   UNL     1     -12.059  11.827  66.992  1.00  0.00     0.347 A  
HETATM   21  C   UNL     1     -11.422  11.122  68.020  1.00  0.00    -0.366 A  
HETATM   22  C   UNL     1     -10.017  11.122  68.184  1.00  0.00    -0.178 A  
ENDBRANCH   8   9
ENDBRANCH   6   8
ENDBRANCH   3   6
ENDBRANCH   2   3
TORSDOF 5
ENDMDL
MODEL      255
REMARK 921   NORMALIZED FREE ENERGY PREDICTED BY IDOCK:   -0.56 KCAL/MOL
REMARK 922        TOTAL FREE ENERGY PREDICTED BY IDOCK:   -1.54 KCAL/MOL
REMARK 923 INTER-LIGAND FREE ENERGY PREDICTED BY IDOCK:   -2.92 KCAL/MOL
REMARK 924 INTRA-LIGAND FREE ENERGY PREDICTED BY IDOCK:    1.38 KCAL/MOL
REMARK 927      BINDING AFFINITY PREDICTED BY RF-SCORE:    0.00 PKD
ROOT
HETATM    1  C   UNL     1     -11.203  18.080  67.572  1.00  0.00     0.304 C  
HETATM    2  C   UNL     1     -10.189  18.222  66.434  1.00  0.00    -0.403 C  
ENDROOT
BRANCH   2   3
HETATM    3  N   UNL     1      -9.017  19.084  66.721  1.00  0.00    -0.302 NA 
BRANCH   3   4
HETATM    4  C   UNL     1      -9.338  20.091  67.746  1.00  0.00    -0.354 C  
HETATM    5  C   UNL     1      -8.342  21.232  67.919  1.00  0.00     0.588 C  
ENDBRANCH   3   4
BRANCH   3   6
HETATM    6  C   UNL     1      -7.777  18.279  67.003  1.00  0.00    -0.218 C  
HETATM    7  C   UNL     1      -7.770  17.906  68.513  1.00  0.00    -0.299 C  
BRANCH   6   8
HETATM    8  C   UNL     1      -7.573  16.899  66.257  1.00  0.00    -0.277 C  
BRANCH   8   9
HETATM    9  N   UNL     1      -8.031  15.654  66.948  1.00  0.00    -0.239 NA 
HETATM   10  C   UNL     1      -7.222  15.187  68.028  1.00  0.00    -0.127 A  
HETATM   11  C   UNL     1      -5.859  15.533  68.159  1.00  0.00    -0.136 A  
HETATM   12  C   UNL     1      -5.132  15.287  69.330  1.00  0.00    -0.092 A  
HETATM   13  C   UNL     1      -5.739  14.648  70.397  1.00  0.00    -0.146 A  
HETATM   14  C   UNL     1      -7.038  14.179  70.251  1.00  0.00     0.413 A  
HETATM   15  C   UNL     1      -7.765  14.404  69.067  1.00  0.00    -0.093 A  
HETATM   16  S   UNL     1      -9.377  13.670  69.009  1.00  0.00     0.419 SA 
HETATM   17  C   UNL     1      -9.978  14.192  67.421  1.00  0.00    -0.240 A  
HETATM   18  C   UNL     1     -11.238  13.671  67.065  1.00  0.00    -0.328 A  
HETATM   19  C   UNL     1     -11.883  14.084  65.904  1.00  0.00    -0.395 A  
HETATM   20  C   UNL     1     -11.262  15.015  65.091  1.00  0.00    -0.391 A  
HETATM   21  C   UNL     1      -9.997  15.515  65.423  1.00  0.00    -0.339 A  
HETATM   22  C   UNL     1      -9.313  15.131  66.599  1.00  0.00    -0.267 A  
ENDBRANCH   8   9
ENDBRANCH   6   8
ENDBRANCH   3   6
ENDBRANCH   2   3
TORSDOF 5
ENDMDL
MODEL      256
REMARK 921   NORMALIZED FREE ENERGY PREDICTED BY IDOCK:   -0.54 KCAL/MOL
REMARK 922        TOTAL FREE ENERGY PREDICTED BY IDOCK:   -1.51 KCAL/MOL
REMARK 923 INTER-LIGAND FREE ENERGY PREDICTED BY IDOCK:   -1.45 KCAL/MOL
REMARK 924 INTRA-LIGAND FREE ENERGY PREDICTED BY IDOCK:   -0.06 KCAL/MOL
REMARK 927      BINDING AFFINITY PREDICTED BY RF-SCORE:    0.00 PKD
ROOT
HETATM    1  C   UNL     1     -14.257   9.516  70.314  1.00  0.00     1.349 C  
HETATM    2  C   UNL     1     -12.776   9.470  69.929  1.00  0.00     1.007 C  
ENDROOT
BRANCH   2   3
HETATM    3  N   UNL     1     -11.828   9.955  70.962  1.00  0.00    -0.345 NA 
BRANCH   3   4
HETATM    4  C   UNL     1     -12.193  11.303  71.425  1.00  0.00    -0.080 C  
HETATM    5  C   UNL     1     -12.251  12.398  70.367  1.00  0.00    -0.370 C  
ENDBRANCH   3   4
BRANCH   3   6
HETATM    6  C   UNL     1     -11.627   8.949  72.063  1.00  0.00    -0.364 C  
HETATM    7  C   UNL     1     -12.919   8.906  72.928  1.00  0.00     0.040 C  
BRANCH   6   8
HETATM    8  C   UNL     1     -11.361   7.436  71.680  1.00  0.00    -0.256 C  
BRANCH   8   9
HETATM    9  N   UNL     1     -10.002   7.069  71.178  1.00  0.00    -0.184 NA 
HETATM   10  C   UNL     1      -9.869   6.880  69.769  1.00  0.00    -0.171 A  
HETATM   11  C   UNL     1     -10.968   6.569  68.939  1.00  0.00    -0.376 A  
HETATM   12  C   UNL     1     -10.893   6.625  67.542  1.00  0.00    -0.417 A  
HETATM   13  C   UNL     1      -9.698   6.959  66.928  1.00  0.00    -0.222 A  
HETATM   14  C   UNL     1      -8.567   7.143  67.712  1.00  0.00    -0.126 A  
HETATM   15  C   UNL     1      -8.633   7.064  69.116  1.00  0.00    -0.133 A  
HETATM   16  S   UNL     1      -7.087   7.240  69.964  1.00  0.00    -0.067 SA 
HETATM   17  C   UNL     1      -7.571   7.124  71.670  1.00  0.00    -0.087 A  
HETATM   18  C   UNL     1      -6.504   7.148  72.590  1.00  0.00    -0.052 A  
HETATM   19  C   UNL     1      -6.740   7.182  73.960  1.00  0.00    -0.080 A  
HETATM   20  C   UNL     1      -8.048   7.182  74.413  1.00  0.00    -0.185 A  
HETATM   21  C   UNL     1      -9.112   7.128  73.505  1.00  0.00    -0.206 A  
HETATM   22  C   UNL     1      -8.916   7.105  72.105  1.00  0.00    -0.129 A  
ENDBRANCH   8   9
ENDBRANCH   6   8
ENDBRANCH   3   6
ENDBRANCH   2   3
TORSDOF 5
ENDMDL
MODEL      257
REMARK 921   NORMALIZED FREE ENERGY PREDICTED BY IDOCK:   -0.35 KCAL/MOL
REMARK 922        TOTAL FREE ENERGY PREDICTED BY IDOCK:   -1.27 KCAL/MOL
REMARK 923 INTER-LIGAND FREE ENERGY PREDICTED BY IDOCK:   -2.49 KCAL/MOL
REMARK 924 INTRA-LIGAND FREE ENERGY PREDICTED BY IDOCK:    1.22 KCAL/MOL
REMARK 927      BINDING AFFINITY PREDICTED BY RF-SCORE:    0.00 PKD
ROOT
HETATM    1  C   UNL     1      -5.173  14.573  71.904  1.00  0.00    -0.157 C  
HETATM    2  C   UNL     1      -5.943  13.432  71.234  1.00  0.00     0.186 C  
ENDROOT
BRANCH   2   3
HETATM    3  N   UNL     1      -6.957  13.843  70.233  1.00  0.00     0.313 NA 
BRANCH   3   4
HETATM    4  C   UNL     1      -6.947  15.301  70.034  1.00  0.00    -0.054 C  
HETATM    5  C   UNL     1      -7.246  15.801  68.626  1.00  0.00    -0.135 C  
ENDBRANCH   3   4
BRANCH   3   6
HETATM    6  C   UNL     1      -6.860  13.039  68.965  1.00  0.00    -0.081 C  
HETATM    7  C   UNL     1      -5.399  13.131  68.438  1.00  0.00    -0.076 C  
BRANCH   6   8
HETATM    8  C   UNL     1      -7.160  11.485  69.017  1.00  0.00    -0.115 C  
BRANCH   8   9
HETATM    9  N   UNL     1      -8.323  10.970  68.232  1.00  0.00    -0.126 NA 
HETATM   10  C   UNL     1      -8.385   9.558  68.031  1.00  0.00    -0.118 A  
HETATM   11  C   UNL     1      -7.243   8.730  68.109  1.00  0.00    -0.083 A  
HETATM   12  C   UNL     1      -7.332   7.334  68.159  1.00  0.00    -0.100 A  
HETATM   13  C   UNL     1      -8.569   6.718  68.091  1.00  0.00    -0.120 A  
HETATM   14  C   UNL     1      -9.699   7.497  67.882  1.00  0.00    -0.170 A  
HETATM   15  C   UNL     1      -9.612   8.901  67.809  1.00  0.00    -0.147 A  
HETATM   16  S   UNL     1     -11.132   9.741  67.456  1.00  0.00     0.158 SA 
HETATM   17  C   UNL     1     -10.638  11.448  67.479  1.00  0.00    -0.213 A  
HETATM   18  C   UNL     1     -11.655  12.363  67.139  1.00  0.00    -0.435 A  
HETATM   19  C   UNL     1     -11.445  13.734  67.227  1.00  0.00    -0.367 A  
HETATM   20  C   UNL     1     -10.210  14.195  67.649  1.00  0.00    -0.241 A  
HETATM   21  C   UNL     1      -9.186  13.293  67.961  1.00  0.00    -0.217 A  
HETATM   22  C   UNL     1      -9.362  11.891  67.896  1.00  0.00    -0.187 A  
ENDBRANCH   8   9
ENDBRANCH   6   8
ENDBRANCH   3   6
ENDBRANCH   2   3
TORSDOF 5
ENDMDL
MODEL      258
REMARK 921   NORMALIZED FREE ENERGY PREDICTED BY IDOCK:    0.41 KCAL/MOL
REMARK 922        TOTAL FREE ENERGY PREDICTED BY IDOCK:   -0.29 KCAL/MOL
REMARK 923 INTER-LIGAND FREE ENERGY PREDICTED BY IDOCK:   -1.74 KCAL/MOL
REMARK 924 INTRA-LIGAND FREE ENERGY PREDICTED BY IDOCK:    1.45 KCAL/MOL
REMARK 927      BINDING AFFINITY PREDICTED BY RF-SCORE:    0.00 PKD
ROOT
HETATM    1  C   UNL     1     -11.292   8.542  67.652  1.00  0.00     0.992 C  
HETATM    2  C   UNL     1     -10.780   9.352  68.846  1.00  0.00    -0.178 C  
ENDROOT
BRANCH   2   3
HETATM    3  N   UNL     1      -9.884  10.486  68.516  1.00  0.00    -0.161 NA 
BRANCH   3   4
HETATM    4  C   UNL     1      -8.505  10.024  68.290  1.00  0.00    -0.111 C  
HETATM    5  C   UNL     1      -8.030   8.849  69.135  1.00  0.00    -0.105 C  
ENDBRANCH   3   4
BRANCH   3   6
HETATM    6  C   UNL     1     -10.442  11.348  67.416  1.00  0.00    -0.205 C  
HETATM    7  C   UNL     1     -11.640  12.158  67.990  1.00  0.00    -0.411 C  
BRANCH   6   8
HETATM    8  C   UNL     1      -9.511  12.442  66.751  1.00  0.00    -0.228 C  
BRANCH   8   9
HETATM    9  N   UNL     1      -8.056  12.129  66.607  1.00  0.00    -0.053 NA 
HETATM   10  C   UNL     1      -7.163  12.820  67.481  1.00  0.00    -0.154 A  
HETATM   11  C   UNL     1      -7.501  14.046  68.097  1.00  0.00    -0.131 A  
HETATM   12  C   UNL     1      -6.741  14.598  69.135  1.00  0.00    -0.117 A  
HETATM   13  C   UNL     1      -5.592  13.958  69.565  1.00  0.00    -0.089 A  
HETATM   14  C   UNL     1      -5.162  12.821  68.893  1.00  0.00    -0.067 A  
HETATM   15  C   UNL     1      -5.911  12.275  67.833  1.00  0.00    -0.083 A  
HETATM   16  S   UNL     1      -5.184  10.873  67.028  1.00  0.00    -0.058 SA 
HETATM   17  C   UNL     1      -6.406  10.458  65.807  1.00  0.00    -0.123 A  
HETATM   18  C   UNL     1      -6.045   9.404  64.944  1.00  0.00    -0.068 A  
HETATM   19  C   UNL     1      -6.948   8.896  64.016  1.00  0.00    -0.087 A  
HETATM   20  C   UNL     1      -8.214   9.450  63.944  1.00  0.00    -0.165 A  
HETATM   21  C   UNL     1      -8.570  10.516  64.779  1.00  0.00    -0.173 A  
HETATM   22  C   UNL     1      -7.687  11.054  65.743  1.00  0.00     0.037 A  
ENDBRANCH   8   9
ENDBRANCH   6   8
ENDBRANCH   3   6
ENDBRANCH   2   3
TORSDOF 5
ENDMDL
MODEL      259
REMARK 921   NORMALIZED FREE ENERGY PREDICTED BY IDOCK:    0.62 KCAL/MOL
REMARK 922        TOTAL FREE ENERGY PREDICTED BY IDOCK:   -0.01 KCAL/MOL
REMARK 923 INTER-LIGAND FREE ENERGY PREDICTED BY IDOCK:   -0.42 KCAL/MOL
REMARK 924 INTRA-LIGAND FREE ENERGY PREDICTED BY IDOCK:    0.41 KCAL/MOL
REMARK 927      BINDING AFFINITY PREDICTED BY RF-SCORE:    0.00 PKD
ROOT
HETATM    1  C   UNL     1     -10.263  17.470  66.434  1.00  0.00    -0.354 C  
HETATM    2  C   UNL     1      -8.949  17.404  67.218  1.00  0.00    -0.236 C  
ENDROOT
BRANCH   2   3
HETATM    3  N   UNL     1      -7.760  16.975  66.444  1.00  0.00    -0.290 NA 
BRANCH   3   4
HETATM    4  C   UNL     1      -6.874  18.114  66.157  1.00  0.00    -0.263 C  
HETATM    5  C   UNL     1      -7.534  19.373  65.609  1.00  0.00    -0.167 C  
ENDBRANCH   3   4
BRANCH   3   6
HETATM    6  C   UNL     1      -7.073  15.792  67.071  1.00  0.00    -0.134 C  
HETATM    7  C   UNL     1      -5.556  15.874  66.736  1.00  0.00     0.746 C  
BRANCH   6   8
HETATM    8  C   UNL     1      -7.118  15.624  68.644  1.00  0.00    -0.127 C  
BRANCH   8   9
HETATM    9  N   UNL     1      -6.971  14.246  69.206  1.00  0.00    -0.122 NA 
HETATM   10  C   UNL     1      -7.297  13.162  68.336  1.00  0.00    -0.116 A  
HETATM   11  C   UNL     1      -8.148  13.314  67.219  1.00  0.00    -0.150 A  
HETATM   12  C   UNL     1      -8.273  12.329  66.232  1.00  0.00     0.341 A  
HETATM   13  C   UNL     1      -7.578  11.139  66.353  1.00  0.00    -0.109 A  
HETATM   14  C   UNL     1      -6.835  10.906  67.503  1.00  0.00    -0.079 A  
HETATM   15  C   UNL     1      -6.725  11.884  68.509  1.00  0.00    -0.068 A  
HETATM   16  S   UNL     1      -5.811  11.399  69.948  1.00  0.00    -0.125 SA 
HETATM   17  C   UNL     1      -5.860  12.870  70.945  1.00  0.00    -0.006 A  
HETATM   18  C   UNL     1      -5.268  12.741  72.217  1.00  0.00     0.161 A  
HETATM   19  C   UNL     1      -5.130  13.840  73.058  1.00  0.00    -0.204 A  
HETATM   20  C   UNL     1      -5.595  15.071  72.630  1.00  0.00     0.344 A  
HETATM   21  C   UNL     1      -6.211  15.200  71.379  1.00  0.00     0.621 A  
HETATM   22  C   UNL     1      -6.360  14.111  70.489  1.00  0.00    -0.081 A  
ENDBRANCH   8   9
ENDBRANCH   6   8
ENDBRANCH   3   6
ENDBRANCH   2   3
TORSDOF 5
ENDMDL
MODEL      260
REMARK 921   NORMALIZED FREE ENERGY PREDICTED BY IDOCK:    1.13 KCAL/MOL
REMARK 922        TOTAL FREE ENERGY PREDICTED BY IDOCK:    0.65 KCAL/MOL
REMARK 923 INTER-LIGAND FREE ENERGY PREDICTED BY IDOCK:   -1.81 KCAL/MOL
REMARK 924 INTRA-LIGAND FREE ENERGY PREDICTED BY IDOCK:    2.46 KCAL/MOL
REMARK 927      BINDING AFFINITY PREDICTED BY RF-SCORE:    0.00 PKD
ROOT
HETATM    1  C   UNL     1      -5.762  13.031  66.503  1.00  0.00     2.090 C  
HETATM    2  C   UNL     1      -6.873  12.818  67.535  1.00  0.00    -0.153 C  
ENDROOT
BRANCH   2   3
HETATM    3  N   UNL     1      -7.096  13.939  68.479  1.00  0.00    -0.096 NA 
BRANCH   3   4
HETATM    4  C   UNL     1      -6.579  13.615  69.819  1.00  0.00    -0.009 C  
HETATM    5  C   UNL     1      -6.459  14.772  70.803  1.00  0.00     0.122 C  
ENDBRANCH   3   4
BRANCH   3   6
HETATM    6  C   UNL     1      -6.613  15.251  67.924  1.00  0.00    -0.157 C  
HETATM    7  C   UNL     1      -7.466  15.595  66.670  1.00  0.00     0.095 C  
BRANCH   6   8
HETATM    8  C   UNL     1      -6.707  16.547  68.829  1.00  0.00    -0.170 C  
BRANCH   8   9
HETATM    9  N   UNL     1      -7.943  17.382  68.732  1.00  0.00    -0.266 NA 
HETATM   10  C   UNL     1      -7.779  18.716  68.253  1.00  0.00    -0.298 A  
HETATM   11  C   UNL     1      -6.545  19.400  68.320  1.00  0.00    -0.283 A  
HETATM   12  C   UNL     1      -6.314  20.600  67.638  1.00  0.00    -0.331 A  
HETATM   13  C   UNL     1      -7.329  21.178  66.896  1.00  0.00    -0.103 A  
HETATM   14  C   UNL     1      -8.592  20.600  66.916  1.00  0.00    -0.201 A  
HETATM   15  C   UNL     1      -8.834  19.405  67.620  1.00  0.00    -0.308 A  
HETATM   16  S   UNL     1     -10.515  18.844  67.615  1.00  0.00    -0.437 SA 
HETATM   17  C   UNL     1     -10.417  17.334  68.547  1.00  0.00    -0.375 A  
HETATM   18  C   UNL     1     -11.654  16.701  68.779  1.00  0.00     0.086 A  
HETATM   19  C   UNL     1     -11.718  15.455  69.393  1.00  0.00    -0.369 A  
HETATM   20  C   UNL     1     -10.540  14.843  69.785  1.00  0.00    -0.189 A  
HETATM   21  C   UNL     1      -9.309  15.479  69.584  1.00  0.00    -0.224 A  
HETATM   22  C   UNL     1      -9.200  16.740  68.954  1.00  0.00    -0.234 A  
ENDBRANCH   8   9
ENDBRANCH   6   8
ENDBRANCH   3   6
ENDBRANCH   2   3
TORSDOF 5
ENDMDL
MODEL      261
REMARK 921   NORMALIZED FREE ENERGY PREDICTED BY IDOCK:    2.41 KCAL/MOL
REMARK 922        TOTAL FREE ENERGY PREDICTED BY IDOCK:    2.30 KCAL/MOL
REMARK 923 INTER-LIGAND FREE ENERGY PREDICTED BY IDOCK:    1.84 KCAL/MOL
REMARK 924 INTRA-LIGAND FREE ENERGY PREDICTED BY IDOCK:    0.47 KCAL/MOL
REMARK 927      BINDING AFFINITY PREDICTED BY RF-SCORE:    0.00 PKD
ROOT
HETATM    1  C   UNL     1     -13.491   9.761  70.029  1.00  0.00     1.065 C  
HETATM    2  C   UNL     1     -12.093  10.204  69.590  1.00  0.00     0.082 C  
ENDROOT
BRANCH   2   3
HETATM    3  N   UNL     1     -11.253  10.820  70.646  1.00  0.00    -0.139 NA 
BRANCH   3   4
HETATM    4  C   UNL     1     -11.893  12.024  71.198  1.00  0.00     0.700 C  
HETATM    5  C   UNL     1     -12.614  12.931  70.208  1.00  0.00    -0.084 C  
ENDBRANCH   3   4
BRANCH   3   6
HETATM    6  C   UNL     1     -10.815   9.816  71.678  1.00  0.00     0.189 C  
HETATM    7  C   UNL     1     -12.075   9.322  72.445  1.00  0.00    -0.139 C  
BRANCH   6   8
HETATM    8  C   UNL     1     -10.101   8.487  71.200  1.00  0.00    -0.205 C  
BRANCH   8   9
HETATM    9  N   UNL     1      -9.067   8.594  70.125  1.00  0.00    -0.153 NA 
HETATM   10  C   UNL     1      -9.456   8.173  68.818  1.00  0.00    -0.148 A  
HETATM   11  C   UNL     1     -10.523   7.275  68.596  1.00  0.00    -0.214 A  
HETATM   12  C   UNL     1     -11.064   7.052  67.325  1.00  0.00    -0.302 A  
HETATM   13  C   UNL     1     -10.525   7.693  66.223  1.00  0.00     0.494 A  
HETATM   14  C   UNL     1      -9.393   8.480  66.389  1.00  0.00    -0.273 A  
HETATM   15  C   UNL     1      -8.832   8.689  67.664  1.00  0.00    -0.136 A  
HETATM   16  S   UNL     1      -7.343   9.649  67.693  1.00  0.00    -0.090 SA 
HETATM   17  C   UNL     1      -6.970   9.723  69.429  1.00  0.00    -0.059 A  
HETATM   18  C   UNL     1      -5.760  10.371  69.747  1.00  0.00    -0.046 A  
HETATM   19  C   UNL     1      -5.398  10.605  71.069  1.00  0.00    -0.096 A  
HETATM   20  C   UNL     1      -6.244  10.180  72.078  1.00  0.00     0.797 A  
HETATM   21  C   UNL     1      -7.434   9.509  71.771  1.00  0.00     0.743 A  
HETATM   22  C   UNL     1      -7.845   9.262  70.440  1.00  0.00    -0.148 A  
ENDBRANCH   8   9
ENDBRANCH   6   8
ENDBRANCH   3   6
ENDBRANCH   2   3
TORSDOF 5
ENDMDL
MODEL      262
REMARK 921   NORMALIZED FREE ENERGY PREDICTED BY IDOCK:    2.96 KCAL/MOL
REMARK 922        TOTAL FREE ENERGY PREDICTED BY IDOCK:    3.01 KCAL/MOL
REMARK 923 INTER-LIGAND FREE ENERGY PREDICTED BY IDOCK:    0.88 KCAL/MOL
REMARK 924 INTRA-LIGAND FREE ENERGY PREDICTED BY IDOCK:    2.14 KCAL/MOL
REMARK 927      BINDING AFFINITY PREDICTED BY RF-SCORE:    0.00 PKD
ROOT
HETATM    1  C   UNL     1      -9.981  15.378  64.546  1.00  0.00     1.132 C  
HETATM    2  C   UNL     1      -8.705  15.760  65.301  1.00  0.00     1.970 C  
ENDROOT
BRANCH   2   3
HETATM    3  N   UNL     1      -8.853  16.839  66.306  1.00  0.00    -0.356 NA 
BRANCH   3   4
HETATM    4  C   UNL     1      -8.609  18.161  65.706  1.00  0.00     0.406 C  
HETATM    5  C   UNL     1      -7.161  18.512  65.390  1.00  0.00     0.005 C  
ENDBRANCH   3   4
BRANCH   3   6
HETATM    6  C   UNL     1     -10.145  16.729  67.070  1.00  0.00    -0.276 C  
HETATM    7  C   UNL     1     -11.244  16.209  66.100  1.00  0.00     0.225 C  
BRANCH   6   8
HETATM    8  C   UNL     1     -10.221  15.748  68.310  1.00  0.00    -0.225 C  
BRANCH   8   9
HETATM    9  N   UNL     1      -9.336  14.542  68.305  1.00  0.00    -0.197 NA 
HETATM   10  C   UNL     1      -8.006  14.722  68.789  1.00  0.00    -0.152 A  
HETATM   11  C   UNL     1      -7.373  15.984  68.819  1.00  0.00    -0.165 A  
HETATM   12  C   UNL     1      -6.178  16.208  69.512  1.00  0.00    -0.181 A  
HETATM   13  C   UNL     1      -5.554  15.161  70.168  1.00  0.00    -0.129 A  
HETATM   14  C   UNL     1      -6.081  13.882  70.049  1.00  0.00    -0.146 A  
HETATM   15  C   UNL     1      -7.271  13.648  69.333  1.00  0.00     0.149 A  
HETATM   16  S   UNL     1      -7.764  11.951  69.206  1.00  0.00     0.406 SA 
HETATM   17  C   UNL     1      -9.283  12.062  68.291  1.00  0.00    -0.192 A  
HETATM   18  C   UNL     1      -9.869  10.822  67.963  1.00  0.00    -0.180 A  
HETATM   19  C   UNL     1     -11.116  10.758  67.351  1.00  0.00    -0.363 A  
HETATM   20  C   UNL     1     -11.777  11.937  67.057  1.00  0.00    -0.304 A  
HETATM   21  C   UNL     1     -11.189  13.173  67.353  1.00  0.00    -0.319 A  
HETATM   22  C   UNL     1      -9.929  13.283  67.985  1.00  0.00    -0.233 A  
ENDBRANCH   8   9
ENDBRANCH   6   8
ENDBRANCH   3   6
ENDBRANCH   2   3
TORSDOF 5
ENDMDL
MODEL      263
REMARK 921   NORMALIZED FREE ENERGY PREDICTED BY IDOCK:    3.80 KCAL/MOL
REMARK 922        TOTAL FREE ENERGY PREDICTED BY IDOCK:    4.09 KCAL/MOL
REMARK 923 INTER-LIGAND FREE ENERGY PREDICTED BY IDOCK:    1.50 KCAL/MOL
REMARK 924 INTRA-LIGAND FREE ENERGY PREDICTED BY IDOCK:    2.59 KCAL/MOL
REMARK 927      BINDING AFFINITY PREDICTED BY RF-SCORE:    0.00 PKD
ROOT
HETATM    1  C   UNL     1     -10.562  10.182  69.915  1.00  0.00    -0.331 C  
HETATM    2  C   UNL     1     -11.400   8.904  70.004  1.00  0.00    -0.040 C  
ENDROOT
BRANCH   2   3
HETATM    3  N   UNL     1     -11.446   8.078  68.773  1.00  0.00     0.763 NA 
BRANCH   3   4
HETATM    4  C   UNL     1     -11.793   8.894  67.599  1.00  0.00     3.263 C  
HETATM    5  C   UNL     1     -10.640   9.325  66.700  1.00  0.00    -0.161 C  
ENDBRANCH   3   4
BRANCH   3   6
HETATM    6  C   UNL     1     -10.207   7.240  68.607  1.00  0.00    -0.182 C  
HETATM    7  C   UNL     1      -9.795   7.269  67.107  1.00  0.00    -0.242 C  
BRANCH   6   8
HETATM    8  C   UNL     1      -8.891   7.655  69.383  1.00  0.00    -0.139 C  
BRANCH   8   9
HETATM    9  N   UNL     1      -8.256   6.639  70.277  1.00  0.00    -0.124 NA 
HETATM   10  C   UNL     1      -7.487   5.618  69.642  1.00  0.00    -0.075 A  
HETATM   11  C   UNL     1      -7.677   5.256  68.290  1.00  0.00    -0.080 A  
HETATM   12  C   UNL     1      -6.774   4.441  67.598  1.00  0.00    -0.047 A  
HETATM   13  C   UNL     1      -5.668   3.926  68.251  1.00  0.00    -0.025 A  
HETATM   14  C   UNL     1      -5.523   4.156  69.613  1.00  0.00    -0.015 A  
HETATM   15  C   UNL     1      -6.442   4.957  70.318  1.00  0.00    -0.034 A  
HETATM   16  S   UNL     1      -6.162   5.082  72.064  1.00  0.00    -0.031 SA 
HETATM   17  C   UNL     1      -7.465   6.173  72.582  1.00  0.00    -0.094 A  
HETATM   18  C   UNL     1      -7.538   6.388  73.973  1.00  0.00    -0.084 A  
HETATM   19  C   UNL     1      -8.433   7.306  74.511  1.00  0.00    -0.234 A  
HETATM   20  C   UNL     1      -9.266   8.006  73.655  1.00  0.00    -0.269 A  
HETATM   21  C   UNL     1      -9.219   7.776  72.275  1.00  0.00    -0.207 A  
HETATM   22  C   UNL     1      -8.316   6.861  71.687  1.00  0.00    -0.109 A  
ENDBRANCH   8   9
ENDBRANCH   6   8
ENDBRANCH   3   6
ENDBRANCH   2   3
TORSDOF 5
ENDMDL
MODEL      264
REMARK 921   NORMALIZED FREE ENERGY PREDICTED BY IDOCK:    8.31 KCAL/MOL
REMARK 922        TOTAL FREE ENERGY PREDICTED BY IDOCK:    9.92 KCAL/MOL
REMARK 923 INTER-LIGAND FREE ENERGY PREDICTED BY IDOCK:    0.21 KCAL/MOL
REMARK 924 INTRA-LIGAND FREE ENERGY PREDICTED BY IDOCK:    9.71 KCAL/MOL
REMARK 927      BINDING AFFINITY PREDICTED BY RF-SCORE:    0.00 PKD
ROOT
HETATM    1  C   UNL     1      -9.310   8.974  68.499  1.00  0.00    -0.141 C  
HETATM    2  C   UNL     1      -7.858   9.151  68.047  1.00  0.00    -0.100 C  
ENDROOT
BRANCH   2   3
HETATM    3  N   UNL     1      -7.560   8.721  66.660  1.00  0.00    -0.089 NA 
BRANCH   3   4
HETATM    4  C   UNL     1      -6.442   9.493  66.093  1.00  0.00    -0.070 C  
HETATM    5  C   UNL     1      -5.906  10.642  66.939  1.00  0.00    -0.062 C  
ENDBRANCH   3   4
BRANCH   3   6
HETATM    6  C   UNL     1      -7.407   7.229  66.550  1.00  0.00    -0.080 C  
HETATM    7  C   UNL     1      -6.171   6.800  67.393  1.00  0.00    -0.040 C  
BRANCH   6   8
HETATM    8  C   UNL     1      -8.577   6.298  67.068  1.00  0.00    -0.104 C  
BRANCH   8   9
HETATM    9  N   UNL     1      -8.400   5.619  68.389  1.00  0.00    -0.106 NA 
HETATM   10  C   UNL     1      -8.880   4.279  68.490  1.00  0.00    -0.103 A  
HETATM   11  C   UNL     1      -9.874   3.762  67.629  1.00  0.00    -0.027 A  
HETATM   12  C   UNL     1     -10.169   2.396  67.560  1.00  0.00     1.936 A  
HETATM   13  C   UNL     1      -9.505   1.503  68.384  1.00  0.00    -0.239 A  
HETATM   14  C   UNL     1      -8.617   1.995  69.332  1.00  0.00    -0.099 A  
HETATM   15  C   UNL     1      -8.334   3.371  69.420  1.00  0.00    -0.059 A  
HETATM   16  S   UNL     1      -7.245   3.843  70.737  1.00  0.00    -0.037 SA 
HETATM   17  C   UNL     1      -7.104   5.599  70.504  1.00  0.00    -0.066 A  
HETATM   18  C   UNL     1      -6.344   6.266  71.486  1.00  0.00    -0.045 A  
HETATM   19  C   UNL     1      -6.053   7.621  71.370  1.00  0.00    -0.035 A  
HETATM   20  C   UNL     1      -6.531   8.314  70.272  1.00  0.00    -0.036 A  
HETATM   21  C   UNL     1      -7.311   7.665  69.307  1.00  0.00    -0.088 A  
HETATM   22  C   UNL     1      -7.620   6.287  69.382  1.00  0.00    -0.098 A  
ENDBRANCH   8   9
ENDBRANCH   6   8
ENDBRANCH   3   6
ENDBRANCH   2   3
TORSDOF 5
ENDMDL
MODEL      265
REMARK 921   NORMALIZED FREE ENERGY PREDICTED BY IDOCK:   19.01 KCAL/MOL
REMARK 922        TOTAL FREE ENERGY PREDICTED BY IDOCK:   23.75 KCAL/MOL
REMARK 923 INTER-LIGAND FREE ENERGY PREDICTED BY IDOCK:   22.65 KCAL/MOL
REMARK 924 INTRA-LIGAND FREE ENERGY PREDICTED BY IDOCK:    1.10 KCAL/MOL
REMARK 927      BINDING AFFINITY PREDICTED BY RF-SCORE:    0.00 PKD
ROOT
HETATM    1  C   UNL     1      -5.888  15.604  64.553  1.00  0.00    14.776 C  
HETATM    2  C   UNL     1      -6.182  15.893  66.028  1.00  0.00     3.198 C  
ENDROOT
BRANCH   2   3
HETATM    3  N   UNL     1      -7.578  15.649  66.464  1.00  0.00    -0.013 NA 
BRANCH   3   4
HETATM    4  C   UNL     1      -7.618  15.048  67.807  1.00  0.00    -0.160 C  
HETATM    5  C   UNL     1      -7.213  13.583  67.913  1.00  0.00    -0.139 C  
ENDBRANCH   3   4
BRANCH   3   6
HETATM    6  C   UNL     1      -8.444  16.869  66.300  1.00  0.00    -0.287 C  
HETATM    7  C   UNL     1      -8.262  17.406  64.851  1.00  0.00     4.270 C  
BRANCH   6   8
HETATM    8  C   UNL     1     -10.010  16.726  66.472  1.00  0.00    -0.298 C  
BRANCH   8   9
HETATM    9  N   UNL     1     -10.531  15.509  67.168  1.00  0.00    -0.281 NA 
HETATM   10  C   UNL     1     -11.148  15.713  68.439  1.00  0.00    -0.326 A  
HETATM   11  C   UNL     1     -10.884  16.848  69.237  1.00  0.00    -0.214 A  
HETATM   12  C   UNL     1     -11.660  17.175  70.355  1.00  0.00     1.568 A  
HETATM   13  C   UNL     1     -12.705  16.352  70.735  1.00  0.00     1.434 A  
HETATM   14  C   UNL     1     -12.909  15.162  70.049  1.00  0.00    -0.121 A  
HETATM   15  C   UNL     1     -12.115  14.817  68.938  1.00  0.00    -0.205 A  
HETATM   16  S   UNL     1     -12.448  13.228  68.226  1.00  0.00     0.698 SA 
HETATM   17  C   UNL     1     -11.306  13.172  66.866  1.00  0.00    -0.318 A  
HETATM   18  C   UNL     1     -11.293  11.955  66.156  1.00  0.00    -0.383 A  
HETATM   19  C   UNL     1     -10.534  11.809  64.999  1.00  0.00    -0.332 A  
HETATM   20  C   UNL     1      -9.779  12.880  64.556  1.00  0.00     0.115 A  
HETATM   21  C   UNL     1      -9.765  14.083  65.273  1.00  0.00    -0.054 A  
HETATM   22  C   UNL     1     -10.530  14.277  66.446  1.00  0.00    -0.282 A  
ENDBRANCH   8   9
ENDBRANCH   6   8
ENDBRANCH   3   6
ENDBRANCH   2   3
TORSDOF 5
ENDMDL
MODEL      266
REMARK 921   NORMALIZED FREE ENERGY PREDICTED BY IDOCK:   24.66 KCAL/MOL
REMARK 922        TOTAL FREE ENERGY PREDICTED BY IDOCK:   31.05 KCAL/MOL
REMARK 923 INTER-LIGAND FREE ENERGY PREDICTED BY IDOCK:   19.99 KCAL/MOL
REMARK 924 INTRA-LIGAND FREE ENERGY PREDICTED BY IDOCK:   11.06 KCAL/MOL
REMARK 927      BINDING AFFINITY PREDICTED BY RF-SCORE:    0.00 PKD
ROOT
HETATM    1  C   UNL     1      -5.776  15.514  64.342  1.00  0.00    16.176 C  
HETATM    2  C   UNL     1      -5.861  15.472  65.870  1.00  0.00     5.358 C  
ENDROOT
BRANCH   2   3
HETATM    3  N   UNL     1      -7.052  14.788  66.428  1.00  0.00     1.366 NA 
BRANCH   3   4
HETATM    4  C   UNL     1      -6.702  14.004  67.624  1.00  0.00    -0.173 C  
HETATM    5  C   UNL     1      -5.927  12.714  67.392  1.00  0.00    -0.132 C  
ENDBRANCH   3   4
BRANCH   3   6
HETATM    6  C   UNL     1      -8.210  15.730  66.616  1.00  0.00    -0.270 C  
HETATM    7  C   UNL     1      -9.522  14.893  66.642  1.00  0.00    -0.286 C  
BRANCH   6   8
HETATM    8  C   UNL     1      -8.279  16.608  67.931  1.00  0.00    -0.180 C  
BRANCH   8   9
HETATM    9  N   UNL     1      -7.071  16.647  68.812  1.00  0.00    -0.182 NA 
HETATM   10  C   UNL     1      -6.479  17.927  69.030  1.00  0.00    -0.236 A  
HETATM   11  C   UNL     1      -6.664  19.010  68.142  1.00  0.00    -0.256 A  
HETATM   12  C   UNL     1      -6.298  20.320  68.471  1.00  0.00    -0.347 A  
HETATM   13  C   UNL     1      -5.695  20.584  69.689  1.00  0.00    -0.400 A  
HETATM   14  C   UNL     1      -5.381  19.523  70.528  1.00  0.00    -0.252 A  
HETATM   15  C   UNL     1      -5.727  18.201  70.191  1.00  0.00    -0.225 A  
HETATM   16  S   UNL     1      -5.182  16.956  71.328  1.00  0.00     0.147 SA 
HETATM   17  C   UNL     1      -5.823  15.467  70.601  1.00  0.00    -0.025 A  
HETATM   18  C   UNL     1      -5.460  14.279  71.268  1.00  0.00    -0.188 A  
HETATM   19  C   UNL     1      -5.982  13.050  70.879  1.00  0.00     0.099 A  
HETATM   20  C   UNL     1      -6.865  13.007  69.814  1.00  0.00     0.258 A  
HETATM   21  C   UNL     1      -7.207  14.179  69.129  1.00  0.00    -0.086 A  
HETATM   22  C   UNL     1      -6.708  15.449  69.498  1.00  0.00    -0.174 A  
ENDBRANCH   8   9
ENDBRANCH   6   8
ENDBRANCH   3   6
ENDBRANCH   2   3
TORSDOF 5
ENDMDL
MODEL      267
REMARK 921   NORMALIZED FREE ENERGY PREDICTED BY IDOCK:   26.95 KCAL/MOL
REMARK 922        TOTAL FREE ENERGY PREDICTED BY IDOCK:   34.01 KCAL/MOL
REMARK 923 INTER-LIGAND FREE ENERGY PREDICTED BY IDOCK:   32.84 KCAL/MOL
REMARK 924 INTRA-LIGAND FREE ENERGY PREDICTED BY IDOCK:    1.17 KCAL/MOL
REMARK 927      BINDING AFFINITY PREDICTED BY RF-SCORE:    0.00 PKD
ROOT
HETATM    1  C   UNL     1      -8.946  15.824  62.764  1.00  0.00    22.380 C  
HETATM    2  C   UNL     1     -10.008  15.130  63.621  1.00  0.00     6.003 C  
ENDROOT
BRANCH   2   3
HETATM    3  N   UNL     1     -11.086  16.006  64.140  1.00  0.00    -0.480 NA 
BRANCH   3   4
HETATM    4  C   UNL     1     -12.220  15.212  64.641  1.00  0.00    -0.211 C  
HETATM    5  C   UNL     1     -12.647  14.020  63.793  1.00  0.00     0.089 C  
ENDBRANCH   3   4
BRANCH   3   6
HETATM    6  C   UNL     1     -10.565  17.031  65.110  1.00  0.00    -0.015 C  
HETATM    7  C   UNL     1     -11.390  16.924  66.425  1.00  0.00     0.796 C  
BRANCH   6   8
HETATM    8  C   UNL     1      -9.058  16.942  65.584  1.00  0.00     0.330 C  
BRANCH   8   9
HETATM    9  N   UNL     1      -8.623  17.829  66.707  1.00  0.00    -0.244 NA 
HETATM   10  C   UNL     1      -9.271  19.096  66.810  1.00  0.00    -0.320 A  
HETATM   11  C   UNL     1      -9.907  19.714  65.711  1.00  0.00    -0.229 A  
HETATM   12  C   UNL     1     -10.748  20.824  65.858  1.00  0.00     1.109 A  
HETATM   13  C   UNL     1     -10.947  21.378  67.110  1.00  0.00     3.961 A  
HETATM   14  C   UNL     1     -10.234  20.875  68.190  1.00  0.00     0.261 A  
HETATM   15  C   UNL     1      -9.370  19.773  68.043  1.00  0.00    -0.352 A  
HETATM   16  S   UNL     1      -8.472  19.307  69.498  1.00  0.00     0.489 SA 
HETATM   17  C   UNL     1      -7.545  17.898  68.940  1.00  0.00    -0.217 A  
HETATM   18  C   UNL     1      -6.656  17.360  69.893  1.00  0.00     0.164 A  
HETATM   19  C   UNL     1      -5.952  16.189  69.635  1.00  0.00    -0.171 A  
HETATM   20  C   UNL     1      -6.130  15.557  68.417  1.00  0.00    -0.105 A  
HETATM   21  C   UNL     1      -6.989  16.101  67.455  1.00  0.00    -0.215 A  
HETATM   22  C   UNL     1      -7.732  17.283  67.681  1.00  0.00    -0.184 A  
ENDBRANCH   8   9
ENDBRANCH   6   8
ENDBRANCH   3   6
ENDBRANCH   2   3
TORSDOF 5
ENDMDL
MODEL      268
REMARK 921   NORMALIZED FREE ENERGY PREDICTED BY IDOCK:   34.18 KCAL/MOL
REMARK 922        TOTAL FREE ENERGY PREDICTED BY IDOCK:   43.35 KCAL/MOL
REMARK 923 INTER-LIGAND FREE ENERGY PREDICTED BY IDOCK:   29.07 KCAL/MOL
REMARK 924 INTRA-LIGAND FREE ENERGY PREDICTED BY IDOCK:   14.28 KCAL/MOL
REMARK 927      BINDING AFFINITY PREDICTED BY RF-SCORE:    0.00 PKD
ROOT
HETATM    1  C   UNL     1      -6.674  14.676  66.044  1.00  0.00     5.630 C  
HETATM    2  C   UNL     1      -5.796  13.559  65.473  1.00  0.00     9.563 C  
ENDROOT
BRANCH   2   3
HETATM    3  N   UNL     1      -5.615  12.375  66.346  1.00  0.00     0.271 NA 
BRANCH   3   4
HETATM    4  C   UNL     1      -5.149  12.769  67.685  1.00  0.00    -0.094 C  
HETATM    5  C   UNL     1      -6.086  12.475  68.850  1.00  0.00    -0.075 C  
ENDBRANCH   3   4
BRANCH   3   6
HETATM    6  C   UNL     1      -6.825  11.480  66.345  1.00  0.00     0.061 C  
HETATM    7  C   UNL     1      -6.692  10.476  67.526  1.00  0.00    -0.070 C  
BRANCH   6   8
HETATM    8  C   UNL     1      -8.257  12.125  66.539  1.00  0.00     0.064 C  
BRANCH   8   9
HETATM    9  N   UNL     1      -8.588  12.707  67.876  1.00  0.00    -0.170 NA 
HETATM   10  C   UNL     1      -8.267  11.912  69.017  1.00  0.00     0.210 A  
HETATM   11  C   UNL     1      -8.110  10.510  68.945  1.00  0.00    -0.138 A  
HETATM   12  C   UNL     1      -7.559   9.762  69.993  1.00  0.00    -0.169 A  
HETATM   13  C   UNL     1      -7.182  10.392  71.166  1.00  0.00     1.457 A  
HETATM   14  C   UNL     1      -7.443  11.747  71.317  1.00  0.00     6.394 A  
HETATM   15  C   UNL     1      -8.019  12.499  70.275  1.00  0.00     3.737 A  
HETATM   16  S   UNL     1      -8.364  14.194  70.657  1.00  0.00     3.728 SA 
HETATM   17  C   UNL     1      -9.030  14.803  69.126  1.00  0.00    -0.078 A  
HETATM   18  C   UNL     1      -9.480  16.138  69.167  1.00  0.00    -0.251 A  
HETATM   19  C   UNL     1      -9.917  16.782  68.014  1.00  0.00    -0.272 A  
HETATM   20  C   UNL     1      -9.913  16.086  66.818  1.00  0.00    -0.265 A  
HETATM   21  C   UNL     1      -9.495  14.751  66.776  1.00  0.00    -0.271 A  
HETATM   22  C   UNL     1      -9.032  14.063  67.921  1.00  0.00    -0.188 A  
ENDBRANCH   8   9
ENDBRANCH   6   8
ENDBRANCH   3   6
ENDBRANCH   2   3
TORSDOF 5
ENDMDL
MODEL      269
REMARK 921   NORMALIZED FREE ENERGY PREDICTED BY IDOCK:   52.55 KCAL/MOL
REMARK 922        TOTAL FREE ENERGY PREDICTED BY IDOCK:   67.09 KCAL/MOL
REMARK 923 INTER-LIGAND FREE ENERGY PREDICTED BY IDOCK:   -3.44 KCAL/MOL
REMARK 924 INTRA-LIGAND FREE ENERGY PREDICTED BY IDOCK:   70.53 KCAL/MOL
REMARK 927      BINDING AFFINITY PREDICTED BY RF-SCORE:    0.00 PKD
ROOT
HETATM    1  C   UNL     1     -10.259   9.824  69.246  1.00  0.00    -0.216 C  
HETATM    2  C   UNL     1     -11.686  10.200  68.838  1.00  0.00     0.105 C  
ENDROOT
BRANCH   2   3
HETATM    3  N   UNL     1     -11.804  11.309  67.861  1.00  0.00    -0.634 NA 
BRANCH   3   4
HETATM    4  C   UNL     1     -11.586  12.613  68.509  1.00  0.00    -0.323 C  
HETATM    5  C   UNL     1     -10.180  12.894  69.024  1.00  0.00     0.100 C  
ENDBRANCH   3   4
BRANCH   3   6
HETATM    6  C   UNL     1     -10.965  11.074  66.633  1.00  0.00    -0.190 C  
HETATM    7  C   UNL     1     -10.819  12.425  65.875  1.00  0.00    -0.305 C  
BRANCH   6   8
HETATM    8  C   UNL     1      -9.479  10.559  66.807  1.00  0.00    -0.163 C  
BRANCH   8   9
HETATM    9  N   UNL     1      -9.094   9.962  68.123  1.00  0.00    -0.121 NA 
HETATM   10  C   UNL     1     -10.131   9.831  69.095  1.00  0.00    -0.192 A  
HETATM   11  C   UNL     1     -11.304  10.617  69.063  1.00  0.00    -0.340 A  
HETATM   12  C   UNL     1     -12.422  10.328  69.855  1.00  0.00    -0.042 A  
HETATM   13  C   UNL     1     -12.386   9.262  70.737  1.00  0.00    -0.144 A  
HETATM   14  C   UNL     1     -11.203   8.550  70.886  1.00  0.00    -0.304 A  
HETATM   15  C   UNL     1     -10.069   8.853  70.108  1.00  0.00    -0.190 A  
HETATM   16  S   UNL     1      -8.616   7.908  70.479  1.00  0.00    -0.133 SA 
HETATM   17  C   UNL     1      -7.443   8.533  69.299  1.00  0.00    -0.082 A  
HETATM   18  C   UNL     1      -6.141   8.006  69.424  1.00  0.00    -0.034 A  
HETATM   19  C   UNL     1      -5.151   8.316  68.498  1.00  0.00    -0.032 A  
HETATM   20  C   UNL     1      -5.460   9.164  67.449  1.00  0.00    -0.041 A  
HETATM   21  C   UNL     1      -6.742   9.715  67.336  1.00  0.00    -0.071 A  
HETATM   22  C   UNL     1      -7.780   9.416  68.248  1.00  0.00    -0.083 A  
ENDBRANCH   8   9
ENDBRANCH   6   8
ENDBRANCH   3   6
ENDBRANCH   2   3
TORSDOF 5
ENDMDL
