MODEL        1
REMARK 921   NORMALIZED FREE ENERGY PREDICTED BY IDOCK:   -6.36 KCAL/MOL
REMARK 922        TOTAL FREE ENERGY PREDICTED BY IDOCK:   -7.31 KCAL/MOL
REMARK 923 INTER-LIGAND FREE ENERGY PREDICTED BY IDOCK:   -7.10 KCAL/MOL
REMARK 924 INTRA-LIGAND FREE ENERGY PREDICTED BY IDOCK:   -0.21 KCAL/MOL
REMARK 927      BINDING AFFINITY PREDICTED BY RF-SCORE:    0.00 PKD
ROOT
HETATM    1  C   UNL     1     -10.620  17.955  67.657  1.00  0.00    -0.398 C  
HETATM    2  C   UNL     1     -10.047  17.470  66.331  1.00  0.00    -0.345 C  
HETATM    3  C   UNL     1      -8.526  17.332  66.429  1.00  0.00    -0.304 C  
ENDROOT
BRANCH   2   4
HETATM    4  N   UNL     1     -10.623  16.186  65.975  1.00  0.00    -0.315 NA 
HETATM    5  C   UNL     1     -11.072  15.791  64.757  1.00  0.00    -0.400 C  
HETATM    6  H   UNL     1     -10.699  15.501  66.727  1.00  0.00     0.000 HD 
HETATM    7  N   UNL     1     -11.533  16.577  63.848  1.00  0.00    -1.599 NA 
HETATM    8  N   UNL     1     -11.022  14.448  64.524  1.00  0.00    -0.600 NA 
HETATM    9  H1  UNL     1     -11.871  16.280  62.932  1.00  0.00     0.000 HD 
HETATM   10  H2  UNL     1     -11.562  17.575  64.060  1.00  0.00     0.000 HD 
HETATM   11  C   UNL     1     -10.295  13.438  65.084  1.00  0.00    -0.336 C  
HETATM   12  H   UNL     1     -11.651  14.136  63.784  1.00  0.00     0.000 HD 
HETATM   13  N   UNL     1     -10.783  12.174  64.861  1.00  0.00    -0.283 NA 
HETATM   14  N   UNL     1      -9.239  13.662  65.810  1.00  0.00    -0.413 NA 
HETATM   15  H1  UNL     1      -8.696  12.907  66.230  1.00  0.00     0.000 HD 
HETATM   16  H2  UNL     1      -8.943  14.625  65.966  1.00  0.00     0.000 HD 
HETATM   17  H   UNL     1     -11.251  11.953  63.983  1.00  0.00     0.000 HD 
BRANCH  13  18
HETATM   18  C   UNL     1     -10.633  11.177  65.860  1.00  0.00    -0.234 A  
HETATM   19  C   UNL     1      -9.882  10.016  65.618  1.00  0.00    -0.363 A  
HETATM   20  C   UNL     1      -9.794   9.004  66.574  1.00  0.00    -0.338 A  
HETATM   21  C   UNL     1     -10.431   9.165  67.798  1.00  0.00    -0.247 A  
HETATM   22  C   UNL     1     -11.112  10.347  68.089  1.00  0.00    -0.344 A  
HETATM   23 CL   UNL     1     -10.390   7.887  68.949  1.00  0.00    -0.222 Cl 
HETATM   24  C   UNL     1     -11.195  11.363  67.126  1.00  0.00    -0.363 A  
ENDBRANCH  13  18
ENDBRANCH   2   4
TORSDOF 2
ENDMDL
MODEL        2
REMARK 921   NORMALIZED FREE ENERGY PREDICTED BY IDOCK:   -6.26 KCAL/MOL
REMARK 922        TOTAL FREE ENERGY PREDICTED BY IDOCK:   -7.21 KCAL/MOL
REMARK 923 INTER-LIGAND FREE ENERGY PREDICTED BY IDOCK:   -6.94 KCAL/MOL
REMARK 924 INTRA-LIGAND FREE ENERGY PREDICTED BY IDOCK:   -0.27 KCAL/MOL
REMARK 927      BINDING AFFINITY PREDICTED BY RF-SCORE:    0.00 PKD
ROOT
HETATM    1  C   UNL     1     -10.483  17.977  67.636  1.00  0.00    -0.422 C  
HETATM    2  C   UNL     1      -9.979  17.445  66.300  1.00  0.00    -0.297 C  
HETATM    3  C   UNL     1      -8.458  17.288  66.330  1.00  0.00    -0.304 C  
ENDROOT
BRANCH   2   4
HETATM    4  N   UNL     1     -10.588  16.159  66.009  1.00  0.00    -0.315 NA 
HETATM    5  C   UNL     1     -11.028  15.706  64.808  1.00  0.00    -0.400 C  
HETATM    6  H   UNL     1     -10.698  15.523  66.799  1.00  0.00     0.000 HD 
HETATM    7  N   UNL     1     -11.449  16.450  63.846  1.00  0.00    -1.618 NA 
HETATM    8  N   UNL     1     -11.014  14.350  64.656  1.00  0.00    -0.551 NA 
HETATM    9  H1  UNL     1     -11.780  16.108  62.943  1.00  0.00     0.000 HD 
HETATM   10  H2  UNL     1     -11.452  17.459  63.998  1.00  0.00     0.000 HD 
HETATM   11  C   UNL     1     -10.329  13.355  65.289  1.00  0.00    -0.319 C  
HETATM   12  H   UNL     1     -11.640  14.014  63.924  1.00  0.00     0.000 HD 
HETATM   13  N   UNL     1     -10.850  12.095  65.132  1.00  0.00    -0.291 NA 
HETATM   14  N   UNL     1      -9.278  13.590  66.020  1.00  0.00    -0.483 NA 
HETATM   15  H1  UNL     1      -8.765  12.846  66.494  1.00  0.00     0.000 HD 
HETATM   16  H2  UNL     1      -8.956  14.553  66.124  1.00  0.00     0.000 HD 
HETATM   17  H   UNL     1     -11.310  11.836  64.259  1.00  0.00     0.000 HD 
BRANCH  13  18
HETATM   18  C   UNL     1     -10.747  11.155  66.190  1.00  0.00    -0.225 A  
HETATM   19  C   UNL     1     -11.399  11.368  67.415  1.00  0.00    -0.359 A  
HETATM   20  C   UNL     1     -11.239  10.479  68.478  1.00  0.00    -0.332 A  
HETATM   21  C   UNL     1     -10.452   9.348  68.309  1.00  0.00    -0.217 A  
HETATM   22  C   UNL     1      -9.863   9.075  67.073  1.00  0.00    -0.270 A  
HETATM   23 CL   UNL     1     -10.190   8.290  69.641  1.00  0.00    -0.204 Cl 
HETATM   24  C   UNL     1     -10.029   9.970  66.006  1.00  0.00    -0.334 A  
ENDBRANCH  13  18
ENDBRANCH   2   4
TORSDOF 2
ENDMDL
MODEL        3
REMARK 921   NORMALIZED FREE ENERGY PREDICTED BY IDOCK:   -6.07 KCAL/MOL
REMARK 922        TOTAL FREE ENERGY PREDICTED BY IDOCK:   -6.99 KCAL/MOL
REMARK 923 INTER-LIGAND FREE ENERGY PREDICTED BY IDOCK:   -6.72 KCAL/MOL
REMARK 924 INTRA-LIGAND FREE ENERGY PREDICTED BY IDOCK:   -0.27 KCAL/MOL
REMARK 927      BINDING AFFINITY PREDICTED BY RF-SCORE:    0.00 PKD
ROOT
HETATM    1  C   UNL     1     -10.424  18.672  66.750  1.00  0.00    -0.454 C  
HETATM    2  C   UNL     1      -9.711  17.557  65.995  1.00  0.00    -0.141 C  
HETATM    3  C   UNL     1      -8.336  17.292  66.611  1.00  0.00    -0.291 C  
ENDROOT
BRANCH   2   4
HETATM    4  N   UNL     1     -10.499  16.338  66.037  1.00  0.00    -0.336 NA 
HETATM    5  C   UNL     1     -11.102  15.708  64.998  1.00  0.00    -0.389 C  
HETATM    6  H   UNL     1     -10.612  15.906  66.954  1.00  0.00     0.000 HD 
HETATM    7  N   UNL     1     -11.516  16.282  63.923  1.00  0.00    -1.539 NA 
HETATM    8  N   UNL     1     -11.270  14.362  65.150  1.00  0.00    -0.341 NA 
HETATM    9  H1  UNL     1     -11.970  15.808  63.142  1.00  0.00     0.000 HD 
HETATM   10  H2  UNL     1     -11.379  17.291  63.847  1.00  0.00     0.000 HD 
HETATM   11  C   UNL     1     -10.656  13.438  65.943  1.00  0.00    -0.283 C  
HETATM   12  H   UNL     1     -11.998  13.970  64.553  1.00  0.00     0.000 HD 
HETATM   13  N   UNL     1     -11.342  12.259  66.105  1.00  0.00    -0.336 NA 
HETATM   14  N   UNL     1      -9.521  13.672  66.535  1.00  0.00    -0.324 NA 
HETATM   15  H1  UNL     1      -9.062  12.980  67.128  1.00  0.00     0.000 HD 
HETATM   16  H2  UNL     1      -9.074  14.579  66.401  1.00  0.00     0.000 HD 
HETATM   17  H   UNL     1     -11.910  11.888  65.343  1.00  0.00     0.000 HD 
BRANCH  13  18
HETATM   18  C   UNL     1     -11.258  11.560  67.337  1.00  0.00    -0.304 A  
HETATM   19  C   UNL     1     -10.551  10.350  67.437  1.00  0.00    -0.321 A  
HETATM   20  C   UNL     1     -10.529   9.628  68.630  1.00  0.00    -0.235 A  
HETATM   21  C   UNL     1     -11.186  10.132  69.745  1.00  0.00    -0.272 A  
HETATM   22  C   UNL     1     -11.823  11.373  69.689  1.00  0.00    -0.431 A  
HETATM   23 CL   UNL     1     -11.226   9.207  71.196  1.00  0.00    -0.364 Cl 
HETATM   24  C   UNL     1     -11.841  12.097  68.488  1.00  0.00    -0.365 A  
ENDBRANCH  13  18
ENDBRANCH   2   4
TORSDOF 2
ENDMDL
MODEL        4
REMARK 921   NORMALIZED FREE ENERGY PREDICTED BY IDOCK:   -6.07 KCAL/MOL
REMARK 922        TOTAL FREE ENERGY PREDICTED BY IDOCK:   -6.99 KCAL/MOL
REMARK 923 INTER-LIGAND FREE ENERGY PREDICTED BY IDOCK:   -6.73 KCAL/MOL
REMARK 924 INTRA-LIGAND FREE ENERGY PREDICTED BY IDOCK:   -0.26 KCAL/MOL
REMARK 927      BINDING AFFINITY PREDICTED BY RF-SCORE:    0.00 PKD
ROOT
HETATM    1  C   UNL     1     -11.412  15.380  70.758  1.00  0.00    -0.385 C  
HETATM    2  C   UNL     1     -12.323  14.301  70.185  1.00  0.00    -0.353 C  
HETATM    3  C   UNL     1     -11.820  13.856  68.811  1.00  0.00    -0.396 C  
ENDROOT
BRANCH   2   4
HETATM    4  N   UNL     1     -12.366  13.155  71.075  1.00  0.00    -0.393 NA 
HETATM    5  C   UNL     1     -13.331  12.843  71.976  1.00  0.00    -0.482 C  
HETATM    6  H   UNL     1     -11.579  12.508  71.015  1.00  0.00     0.000 HD 
HETATM    7  N   UNL     1     -14.096  13.695  72.564  1.00  0.00    -0.754 NA 
HETATM    8  N   UNL     1     -13.461  11.514  72.256  1.00  0.00    -0.521 NA 
HETATM    9  H1  UNL     1     -14.822  13.460  73.242  1.00  0.00     0.000 HD 
HETATM   10  H2  UNL     1     -13.966  14.681  72.335  1.00  0.00     0.000 HD 
HETATM   11  C   UNL     1     -13.094  10.387  71.582  1.00  0.00    -0.448 C  
HETATM   12  H   UNL     1     -13.924  11.327  73.146  1.00  0.00     0.000 HD 
HETATM   13  N   UNL     1     -13.042   9.243  72.341  1.00  0.00    -0.423 NA 
HETATM   14  N   UNL     1     -12.779  10.402  70.320  1.00  0.00    -0.526 NA 
HETATM   15  H1  UNL     1     -12.504   9.559  69.815  1.00  0.00     0.000 HD 
HETATM   16  H2  UNL     1     -12.807  11.289  69.816  1.00  0.00     0.000 HD 
HETATM   17  H   UNL     1     -13.696   9.110  73.112  1.00  0.00     0.000 HD 
BRANCH  13  18
HETATM   18  C   UNL     1     -12.073   8.248  72.047  1.00  0.00    -0.348 A  
HETATM   19  C   UNL     1     -10.774   8.323  72.573  1.00  0.00    -0.411 A  
HETATM   20  C   UNL     1      -9.803   7.384  72.226  1.00  0.00    -0.203 A  
HETATM   21  C   UNL     1     -10.138   6.339  71.376  1.00  0.00    -0.191 A  
HETATM   22  C   UNL     1     -11.446   6.199  70.909  1.00  0.00    -0.317 A  
HETATM   23 CL   UNL     1      -8.924   5.223  70.884  1.00  0.00    -0.150 Cl 
HETATM   24  C   UNL     1     -12.420   7.144  71.263  1.00  0.00    -0.425 A  
ENDBRANCH  13  18
ENDBRANCH   2   4
TORSDOF 2
ENDMDL
MODEL        5
REMARK 921   NORMALIZED FREE ENERGY PREDICTED BY IDOCK:   -6.06 KCAL/MOL
REMARK 922        TOTAL FREE ENERGY PREDICTED BY IDOCK:   -6.98 KCAL/MOL
REMARK 923 INTER-LIGAND FREE ENERGY PREDICTED BY IDOCK:   -6.68 KCAL/MOL
REMARK 924 INTRA-LIGAND FREE ENERGY PREDICTED BY IDOCK:   -0.29 KCAL/MOL
REMARK 927      BINDING AFFINITY PREDICTED BY RF-SCORE:    0.00 PKD
ROOT
HETATM    1  C   UNL     1     -10.582  10.977  64.687  1.00  0.00    -0.369 C  
HETATM    2  C   UNL     1     -11.370  11.998  65.498  1.00  0.00    -0.328 C  
HETATM    3  C   UNL     1     -11.206  11.728  66.995  1.00  0.00    -0.382 C  
ENDROOT
BRANCH   2   4
HETATM    4  N   UNL     1     -10.909  13.342  65.199  1.00  0.00    -0.299 NA 
HETATM    5  C   UNL     1     -11.473  14.240  64.353  1.00  0.00    -0.310 C  
HETATM    6  H   UNL     1     -10.063  13.646  65.681  1.00  0.00     0.000 HD 
HETATM    7  N   UNL     1     -12.180  13.941  63.321  1.00  0.00    -1.111 NA 
HETATM    8  N   UNL     1     -11.239  15.550  64.654  1.00  0.00    -0.647 NA 
HETATM    9  H1  UNL     1     -12.604  14.617  62.684  1.00  0.00     0.000 HD 
HETATM   10  H2  UNL     1     -12.328  12.951  63.123  1.00  0.00     0.000 HD 
HETATM   11  C   UNL     1     -10.873  16.184  65.805  1.00  0.00    -0.201 C  
HETATM   12  H   UNL     1     -11.364  16.181  63.862  1.00  0.00     0.000 HD 
HETATM   13  N   UNL     1     -10.363  17.449  65.638  1.00  0.00    -0.624 NA 
HETATM   14  N   UNL     1     -10.963  15.616  66.972  1.00  0.00    -0.301 NA 
HETATM   15  H1  UNL     1     -10.689  16.089  67.832  1.00  0.00     0.000 HD 
HETATM   16  H2  UNL     1     -11.322  14.662  67.028  1.00  0.00     0.000 HD 
HETATM   17  H   UNL     1     -10.712  18.047  64.890  1.00  0.00     0.000 HD 
BRANCH  13  18
HETATM   18  C   UNL     1      -9.348  17.918  66.512  1.00  0.00    -0.280 A  
HETATM   19  C   UNL     1      -8.014  17.508  66.361  1.00  0.00    -0.320 A  
HETATM   20  C   UNL     1      -7.031  17.913  67.263  1.00  0.00    -0.204 A  
HETATM   21  C   UNL     1      -7.371  18.764  68.306  1.00  0.00    -0.271 A  
HETATM   22  C   UNL     1      -8.674  19.250  68.425  1.00  0.00    -0.395 A  
HETATM   23 CL   UNL     1      -6.178  19.204  69.466  1.00  0.00    -0.298 Cl 
HETATM   24  C   UNL     1      -9.659  18.842  67.514  1.00  0.00    -0.347 A  
ENDBRANCH  13  18
ENDBRANCH   2   4
TORSDOF 2
ENDMDL
MODEL        6
REMARK 921   NORMALIZED FREE ENERGY PREDICTED BY IDOCK:   -6.00 KCAL/MOL
REMARK 922        TOTAL FREE ENERGY PREDICTED BY IDOCK:   -6.91 KCAL/MOL
REMARK 923 INTER-LIGAND FREE ENERGY PREDICTED BY IDOCK:   -7.00 KCAL/MOL
REMARK 924 INTRA-LIGAND FREE ENERGY PREDICTED BY IDOCK:    0.09 KCAL/MOL
REMARK 927      BINDING AFFINITY PREDICTED BY RF-SCORE:    0.00 PKD
ROOT
HETATM    1  C   UNL     1     -11.661   6.342  70.297  1.00  0.00    -0.451 C  
HETATM    2  C   UNL     1     -12.257   7.062  71.501  1.00  0.00    -0.368 C  
HETATM    3  C   UNL     1     -11.243   7.112  72.646  1.00  0.00    -0.331 C  
ENDROOT
BRANCH   2   4
HETATM    4  N   UNL     1     -12.639   8.416  71.139  1.00  0.00    -0.478 NA 
HETATM    5  C   UNL     1     -13.189   9.361  71.941  1.00  0.00    -0.429 C  
HETATM    6  H   UNL     1     -12.474   8.687  70.170  1.00  0.00     0.000 HD 
HETATM    7  N   UNL     1     -13.918   9.121  72.975  1.00  0.00    -1.110 NA 
HETATM    8  N   UNL     1     -12.932  10.652  71.583  1.00  0.00    -0.454 NA 
HETATM    9  H1  UNL     1     -14.332   9.833  73.578  1.00  0.00     0.000 HD 
HETATM   10  H2  UNL     1     -14.094   8.144  73.209  1.00  0.00     0.000 HD 
HETATM   11  C   UNL     1     -11.958  11.223  70.817  1.00  0.00    -0.279 C  
HETATM   12  H   UNL     1     -13.600  11.323  71.962  1.00  0.00     0.000 HD 
HETATM   13  N   UNL     1     -12.237  12.489  70.366  1.00  0.00    -0.347 NA 
HETATM   14  N   UNL     1     -10.861  10.596  70.505  1.00  0.00    -0.394 NA 
HETATM   15  H1  UNL     1     -10.133  11.022  69.932  1.00  0.00     0.000 HD 
HETATM   16  H2  UNL     1     -10.725   9.644  70.845  1.00  0.00     0.000 HD 
HETATM   17  H   UNL     1     -12.786  13.129  70.941  1.00  0.00     0.000 HD 
BRANCH  13  18
HETATM   18  C   UNL     1     -11.758  12.904  69.096  1.00  0.00    -0.324 A  
HETATM   19  C   UNL     1     -11.114  14.141  68.933  1.00  0.00    -0.288 A  
HETATM   20  C   UNL     1     -10.708  14.579  67.672  1.00  0.00    -0.254 A  
HETATM   21  C   UNL     1     -10.912  13.762  66.568  1.00  0.00    -0.299 A  
HETATM   22  C   UNL     1     -11.475  12.494  66.721  1.00  0.00    -0.422 A  
HETATM   23 CL   UNL     1     -10.483  14.331  65.001  1.00  0.00    -0.433 Cl 
HETATM   24  C   UNL     1     -11.879  12.057  67.991  1.00  0.00    -0.338 A  
ENDBRANCH  13  18
ENDBRANCH   2   4
TORSDOF 2
ENDMDL
MODEL        7
REMARK 921   NORMALIZED FREE ENERGY PREDICTED BY IDOCK:   -5.98 KCAL/MOL
REMARK 922        TOTAL FREE ENERGY PREDICTED BY IDOCK:   -6.89 KCAL/MOL
REMARK 923 INTER-LIGAND FREE ENERGY PREDICTED BY IDOCK:   -6.58 KCAL/MOL
REMARK 924 INTRA-LIGAND FREE ENERGY PREDICTED BY IDOCK:   -0.30 KCAL/MOL
REMARK 927      BINDING AFFINITY PREDICTED BY RF-SCORE:    0.00 PKD
ROOT
HETATM    1  C   UNL     1      -9.969  10.947  63.326  1.00  0.00    -0.399 C  
HETATM    2  C   UNL     1     -10.380  12.317  63.848  1.00  0.00    -0.429 C  
HETATM    3  C   UNL     1     -11.852  12.588  63.528  1.00  0.00    -0.616 C  
ENDROOT
BRANCH   2   4
HETATM    4  N   UNL     1     -10.181  12.388  65.285  1.00  0.00    -0.280 NA 
HETATM    5  C   UNL     1      -9.976  13.499  66.037  1.00  0.00    -0.299 C  
HETATM    6  H   UNL     1     -10.197  11.501  65.787  1.00  0.00     0.000 HD 
HETATM    7  N   UNL     1      -9.435  14.588  65.615  1.00  0.00    -0.534 NA 
HETATM    8  N   UNL     1     -10.382  13.407  67.336  1.00  0.00    -0.239 NA 
HETATM    9  H1  UNL     1      -9.281  15.423  66.181  1.00  0.00     0.000 HD 
HETATM   10  H2  UNL     1      -9.137  14.618  64.640  1.00  0.00     0.000 HD 
HETATM   11  C   UNL     1     -11.272  12.591  67.971  1.00  0.00    -0.270 C  
HETATM   12  H   UNL     1      -9.933  14.082  67.955  1.00  0.00     0.000 HD 
HETATM   13  N   UNL     1     -11.139  12.533  69.337  1.00  0.00    -0.452 NA 
HETATM   14  N   UNL     1     -12.157  11.889  67.325  1.00  0.00    -0.522 NA 
HETATM   15  H1  UNL     1     -12.822  11.279  67.800  1.00  0.00     0.000 HD 
HETATM   16  H2  UNL     1     -12.187  11.951  66.307  1.00  0.00     0.000 HD 
HETATM   17  H   UNL     1     -10.837  13.356  69.857  1.00  0.00     0.000 HD 
BRANCH  13  18
HETATM   18  C   UNL     1     -11.424  11.322  70.020  1.00  0.00    -0.275 A  
HETATM   19  C   UNL     1     -10.590  10.201  69.887  1.00  0.00    -0.331 A  
HETATM   20  C   UNL     1     -10.910   8.990  70.501  1.00  0.00    -0.296 A  
HETATM   21  C   UNL     1     -12.053   8.904  71.285  1.00  0.00    -0.306 A  
HETATM   22  C   UNL     1     -12.850  10.030  71.498  1.00  0.00    -0.537 A  
HETATM   23 CL   UNL     1     -12.492   7.393  71.981  1.00  0.00    -0.305 Cl 
HETATM   24  C   UNL     1     -12.523  11.246  70.881  1.00  0.00    -0.493 A  
ENDBRANCH  13  18
ENDBRANCH   2   4
TORSDOF 2
ENDMDL
MODEL        8
REMARK 921   NORMALIZED FREE ENERGY PREDICTED BY IDOCK:   -5.97 KCAL/MOL
REMARK 922        TOTAL FREE ENERGY PREDICTED BY IDOCK:   -6.88 KCAL/MOL
REMARK 923 INTER-LIGAND FREE ENERGY PREDICTED BY IDOCK:   -6.69 KCAL/MOL
REMARK 924 INTRA-LIGAND FREE ENERGY PREDICTED BY IDOCK:   -0.18 KCAL/MOL
REMARK 927      BINDING AFFINITY PREDICTED BY RF-SCORE:    0.00 PKD
ROOT
HETATM    1  C   UNL     1     -12.058  12.835  64.763  1.00  0.00    -0.488 C  
HETATM    2  C   UNL     1     -12.266  13.939  65.793  1.00  0.00    -0.460 C  
HETATM    3  C   UNL     1     -12.152  13.372  67.209  1.00  0.00    -0.352 C  
ENDROOT
BRANCH   2   4
HETATM    4  N   UNL     1     -11.278  14.987  65.614  1.00  0.00    -0.341 NA 
HETATM    5  C   UNL     1     -11.336  16.042  64.763  1.00  0.00    -0.280 C  
HETATM    6  H   UNL     1     -10.442  14.922  66.195  1.00  0.00     0.000 HD 
HETATM    7  N   UNL     1     -11.981  16.059  63.650  1.00  0.00    -1.119 NA 
HETATM    8  N   UNL     1     -10.637  17.146  65.155  1.00  0.00    -0.682 NA 
HETATM    9  H1  UNL     1     -12.025  16.853  63.010  1.00  0.00     0.000 HD 
HETATM   10  H2  UNL     1     -12.487  15.213  63.386  1.00  0.00     0.000 HD 
HETATM   11  C   UNL     1     -10.183  17.571  66.369  1.00  0.00    -0.354 C  
HETATM   12  H   UNL     1     -10.409  17.779  64.388  1.00  0.00     0.000 HD 
HETATM   13  N   UNL     1      -9.197  18.526  66.322  1.00  0.00    -0.453 NA 
HETATM   14  N   UNL     1     -10.625  17.078  67.489  1.00  0.00    -0.331 NA 
HETATM   15  H1  UNL     1     -10.285  17.395  68.397  1.00  0.00     0.000 HD 
HETATM   16  H2  UNL     1     -11.337  16.348  67.458  1.00  0.00     0.000 HD 
HETATM   17  H   UNL     1      -9.191  19.220  65.575  1.00  0.00     0.000 HD 
BRANCH  13  18
HETATM   18  C   UNL     1      -8.186  18.542  67.318  1.00  0.00    -0.249 A  
HETATM   19  C   UNL     1      -7.230  17.517  67.398  1.00  0.00    -0.188 A  
HETATM   20  C   UNL     1      -6.282  17.497  68.421  1.00  0.00    -0.175 A  
HETATM   21  C   UNL     1      -6.262  18.526  69.353  1.00  0.00    -0.261 A  
HETATM   22  C   UNL     1      -7.150  19.597  69.242  1.00  0.00    -0.366 A  
HETATM   23 CL   UNL     1      -5.145  18.465  70.660  1.00  0.00    -0.237 Cl 
HETATM   24  C   UNL     1      -8.100  19.615  68.211  1.00  0.00    -0.357 A  
ENDBRANCH  13  18
ENDBRANCH   2   4
TORSDOF 2
ENDMDL
MODEL        9
REMARK 921   NORMALIZED FREE ENERGY PREDICTED BY IDOCK:   -5.97 KCAL/MOL
REMARK 922        TOTAL FREE ENERGY PREDICTED BY IDOCK:   -6.88 KCAL/MOL
REMARK 923 INTER-LIGAND FREE ENERGY PREDICTED BY IDOCK:   -6.93 KCAL/MOL
REMARK 924 INTRA-LIGAND FREE ENERGY PREDICTED BY IDOCK:    0.05 KCAL/MOL
REMARK 927      BINDING AFFINITY PREDICTED BY RF-SCORE:    0.00 PKD
ROOT
HETATM    1  C   UNL     1     -11.640   6.353  70.135  1.00  0.00    -0.449 C  
HETATM    2  C   UNL     1     -12.218   6.996  71.390  1.00  0.00    -0.366 C  
HETATM    3  C   UNL     1     -11.180   6.994  72.514  1.00  0.00    -0.312 C  
ENDROOT
BRANCH   2   4
HETATM    4  N   UNL     1     -12.623   8.363  71.114  1.00  0.00    -0.478 NA 
HETATM    5  C   UNL     1     -13.153   9.259  71.984  1.00  0.00    -0.436 C  
HETATM    6  H   UNL     1     -12.495   8.686  70.155  1.00  0.00     0.000 HD 
HETATM    7  N   UNL     1     -13.842   8.958  73.029  1.00  0.00    -1.107 NA 
HETATM    8  N   UNL     1     -12.919  10.570  71.685  1.00  0.00    -0.447 NA 
HETATM    9  H1  UNL     1     -14.240   9.633  73.682  1.00  0.00     0.000 HD 
HETATM   10  H2  UNL     1     -14.002   7.968  73.217  1.00  0.00     0.000 HD 
HETATM   11  C   UNL     1     -11.978  11.189  70.917  1.00  0.00    -0.257 C  
HETATM   12  H   UNL     1     -13.579  11.213  72.123  1.00  0.00     0.000 HD 
HETATM   13  N   UNL     1     -12.283  12.475  70.544  1.00  0.00    -0.404 NA 
HETATM   14  N   UNL     1     -10.888  10.591  70.534  1.00  0.00    -0.419 NA 
HETATM   15  H1  UNL     1     -10.184  11.054  69.959  1.00  0.00     0.000 HD 
HETATM   16  H2  UNL     1     -10.731   9.624  70.819  1.00  0.00     0.000 HD 
HETATM   17  H   UNL     1     -12.816  13.078  71.170  1.00  0.00     0.000 HD 
BRANCH  13  18
HETATM   18  C   UNL     1     -11.853  12.962  69.281  1.00  0.00    -0.309 A  
HETATM   19  C   UNL     1     -12.031  12.203  68.114  1.00  0.00    -0.242 A  
HETATM   20  C   UNL     1     -11.544  12.650  66.885  1.00  0.00    -0.438 A  
HETATM   21  C   UNL     1     -10.906  13.881  66.812  1.00  0.00    -0.286 A  
HETATM   22  C   UNL     1     -10.793  14.688  67.945  1.00  0.00    -0.261 A  
HETATM   23 CL   UNL     1     -10.236  14.401  65.315  1.00  0.00    -0.404 Cl 
HETATM   24  C   UNL     1     -11.287  14.235  69.178  1.00  0.00    -0.312 A  
ENDBRANCH  13  18
ENDBRANCH   2   4
TORSDOF 2
ENDMDL
MODEL       10
REMARK 921   NORMALIZED FREE ENERGY PREDICTED BY IDOCK:   -5.97 KCAL/MOL
REMARK 922        TOTAL FREE ENERGY PREDICTED BY IDOCK:   -6.87 KCAL/MOL
REMARK 923 INTER-LIGAND FREE ENERGY PREDICTED BY IDOCK:   -6.61 KCAL/MOL
REMARK 924 INTRA-LIGAND FREE ENERGY PREDICTED BY IDOCK:   -0.27 KCAL/MOL
REMARK 927      BINDING AFFINITY PREDICTED BY RF-SCORE:    0.00 PKD
ROOT
HETATM    1  C   UNL     1      -9.796  10.151  65.107  1.00  0.00    -0.394 C  
HETATM    2  C   UNL     1     -10.884  11.103  65.588  1.00  0.00    -0.138 C  
HETATM    3  C   UNL     1     -11.040  11.008  67.107  1.00  0.00    -0.333 C  
ENDROOT
BRANCH   2   4
HETATM    4  N   UNL     1     -10.553  12.469  65.224  1.00  0.00    -0.283 NA 
HETATM    5  C   UNL     1     -11.076  13.204  64.211  1.00  0.00    -0.396 C  
HETATM    6  H   UNL     1      -9.846  12.930  65.797  1.00  0.00     0.000 HD 
HETATM    7  N   UNL     1     -11.556  12.723  63.118  1.00  0.00    -0.817 NA 
HETATM    8  N   UNL     1     -11.065  14.555  64.404  1.00  0.00    -0.621 NA 
HETATM    9  H1  UNL     1     -11.949  13.276  62.357  1.00  0.00     0.000 HD 
HETATM   10  H2  UNL     1     -11.542  11.708  63.006  1.00  0.00     0.000 HD 
HETATM   11  C   UNL     1     -10.980  15.328  65.525  1.00  0.00    -0.359 C  
HETATM   12  H   UNL     1     -11.134  15.093  63.540  1.00  0.00     0.000 HD 
HETATM   13  N   UNL     1     -10.615  16.634  65.307  1.00  0.00    -0.633 NA 
HETATM   14  N   UNL     1     -11.193  14.852  66.717  1.00  0.00    -0.340 NA 
HETATM   15  H1  UNL     1     -11.129  15.430  67.555  1.00  0.00     0.000 HD 
HETATM   16  H2  UNL     1     -11.432  13.865  66.817  1.00  0.00     0.000 HD 
HETATM   17  H   UNL     1     -10.907  17.112  64.455  1.00  0.00     0.000 HD 
BRANCH  13  18
HETATM   18  C   UNL     1      -9.829  17.315  66.273  1.00  0.00    -0.285 A  
HETATM   19  C   UNL     1     -10.420  18.172  67.215  1.00  0.00    -0.407 A  
HETATM   20  C   UNL     1      -9.641  18.895  68.117  1.00  0.00    -0.386 A  
HETATM   21  C   UNL     1      -8.261  18.736  68.108  1.00  0.00    -0.304 A  
HETATM   22  C   UNL     1      -7.661  17.825  67.236  1.00  0.00    -0.222 A  
HETATM   23 CL   UNL     1      -7.290  19.683  69.166  1.00  0.00    -0.381 Cl 
HETATM   24  C   UNL     1      -8.449  17.098  66.332  1.00  0.00    -0.307 A  
ENDBRANCH  13  18
ENDBRANCH   2   4
TORSDOF 2
ENDMDL
MODEL       11
REMARK 921   NORMALIZED FREE ENERGY PREDICTED BY IDOCK:   -5.75 KCAL/MOL
REMARK 922        TOTAL FREE ENERGY PREDICTED BY IDOCK:   -6.63 KCAL/MOL
REMARK 923 INTER-LIGAND FREE ENERGY PREDICTED BY IDOCK:   -6.66 KCAL/MOL
REMARK 924 INTRA-LIGAND FREE ENERGY PREDICTED BY IDOCK:    0.03 KCAL/MOL
REMARK 927      BINDING AFFINITY PREDICTED BY RF-SCORE:    0.00 PKD
ROOT
HETATM    1  C   UNL     1     -10.755   5.913  72.976  1.00  0.00    -0.286 C  
HETATM    2  C   UNL     1     -10.786   7.427  73.140  1.00  0.00    -0.387 C  
HETATM    3  C   UNL     1      -9.364   7.975  73.279  1.00  0.00    -0.344 C  
ENDROOT
BRANCH   2   4
HETATM    4  N   UNL     1     -11.427   8.044  71.993  1.00  0.00    -0.288 NA 
HETATM    5  C   UNL     1     -12.509   8.862  71.992  1.00  0.00    -0.392 C  
HETATM    6  H   UNL     1     -11.016   7.839  71.082  1.00  0.00     0.000 HD 
HETATM    7  N   UNL     1     -13.445   8.852  72.876  1.00  0.00    -0.889 NA 
HETATM    8  N   UNL     1     -12.575   9.742  70.951  1.00  0.00    -0.454 NA 
HETATM    9  H1  UNL     1     -14.259   9.467  72.875  1.00  0.00     0.000 HD 
HETATM   10  H2  UNL     1     -13.366   8.176  73.636  1.00  0.00     0.000 HD 
HETATM   11  C   UNL     1     -11.632  10.243  70.103  1.00  0.00    -0.299 C  
HETATM   12  H   UNL     1     -13.515  10.096  70.772  1.00  0.00     0.000 HD 
HETATM   13  N   UNL     1     -12.123  10.802  68.948  1.00  0.00    -0.749 NA 
HETATM   14  N   UNL     1     -10.357  10.161  70.352  1.00  0.00    -0.416 NA 
HETATM   15  H1  UNL     1      -9.652  10.535  69.717  1.00  0.00     0.000 HD 
HETATM   16  H2  UNL     1     -10.052   9.706  71.213  1.00  0.00     0.000 HD 
HETATM   17  H   UNL     1     -13.020  11.287  68.955  1.00  0.00     0.000 HD 
BRANCH  13  18
HETATM   18  C   UNL     1     -11.375  10.703  67.746  1.00  0.00    -0.244 A  
HETATM   19  C   UNL     1     -11.217  11.809  66.897  1.00  0.00    -0.387 A  
HETATM   20  C   UNL     1     -10.543  11.692  65.681  1.00  0.00    -0.324 A  
HETATM   21  C   UNL     1      -9.989  10.470  65.324  1.00  0.00    -0.299 A  
HETATM   22  C   UNL     1     -10.063   9.379  66.192  1.00  0.00    -0.324 A  
HETATM   23 CL   UNL     1      -9.225  10.301  63.791  1.00  0.00    -0.283 Cl 
HETATM   24  C   UNL     1     -10.740   9.503  67.414  1.00  0.00    -0.297 A  
ENDBRANCH  13  18
ENDBRANCH   2   4
TORSDOF 2
ENDMDL
MODEL       12
REMARK 921   NORMALIZED FREE ENERGY PREDICTED BY IDOCK:   -5.72 KCAL/MOL
REMARK 922        TOTAL FREE ENERGY PREDICTED BY IDOCK:   -6.59 KCAL/MOL
REMARK 923 INTER-LIGAND FREE ENERGY PREDICTED BY IDOCK:   -6.32 KCAL/MOL
REMARK 924 INTRA-LIGAND FREE ENERGY PREDICTED BY IDOCK:   -0.27 KCAL/MOL
REMARK 927      BINDING AFFINITY PREDICTED BY RF-SCORE:    0.00 PKD
ROOT
HETATM    1  C   UNL     1     -12.551  15.240  73.674  1.00  0.00    -0.712 C  
HETATM    2  C   UNL     1     -12.998  14.330  72.537  1.00  0.00    -0.419 C  
HETATM    3  C   UNL     1     -14.407  14.709  72.076  1.00  0.00    -0.642 C  
ENDROOT
BRANCH   2   4
HETATM    4  N   UNL     1     -12.082  14.437  71.416  1.00  0.00    -0.355 NA 
HETATM    5  C   UNL     1     -11.913  13.556  70.399  1.00  0.00    -0.295 C  
HETATM    6  H   UNL     1     -11.496  15.272  71.391  1.00  0.00     0.000 HD 
HETATM    7  N   UNL     1     -12.132  12.290  70.473  1.00  0.00    -0.474 NA 
HETATM    8  N   UNL     1     -11.469  14.096  69.227  1.00  0.00    -0.275 NA 
HETATM    9  H1  UNL     1     -12.006  11.628  69.707  1.00  0.00     0.000 HD 
HETATM   10  H2  UNL     1     -12.458  11.921  71.366  1.00  0.00     0.000 HD 
HETATM   11  C   UNL     1     -11.492  15.364  68.725  1.00  0.00    -0.341 C  
HETATM   12  H   UNL     1     -11.032  13.417  68.603  1.00  0.00     0.000 HD 
HETATM   13  N   UNL     1     -10.617  15.600  67.693  1.00  0.00    -0.288 NA 
HETATM   14  N   UNL     1     -12.260  16.293  69.216  1.00  0.00    -0.293 NA 
HETATM   15  H1  UNL     1     -12.278  17.241  68.841  1.00  0.00     0.000 HD 
HETATM   16  H2  UNL     1     -12.867  16.064  70.004  1.00  0.00     0.000 HD 
HETATM   17  H   UNL     1     -10.400  14.860  67.027  1.00  0.00     0.000 HD 
BRANCH  13  18
HETATM   18  C   UNL     1     -10.017  16.879  67.559  1.00  0.00    -0.268 A  
HETATM   19  C   UNL     1     -10.364  17.735  66.502  1.00  0.00    -0.345 A  
HETATM   20  C   UNL     1      -9.723  18.962  66.330  1.00  0.00    -0.395 A  
HETATM   21  C   UNL     1      -8.751  19.357  67.241  1.00  0.00    -0.296 A  
HETATM   22  C   UNL     1      -8.451  18.558  68.345  1.00  0.00    -0.352 A  
HETATM   23 CL   UNL     1      -7.903  20.833  66.989  1.00  0.00    -0.303 Cl 
HETATM   24  C   UNL     1      -9.101  17.327  68.515  1.00  0.00    -0.269 A  
ENDBRANCH  13  18
ENDBRANCH   2   4
TORSDOF 2
ENDMDL
MODEL       13
REMARK 921   NORMALIZED FREE ENERGY PREDICTED BY IDOCK:   -5.71 KCAL/MOL
REMARK 922        TOTAL FREE ENERGY PREDICTED BY IDOCK:   -6.59 KCAL/MOL
REMARK 923 INTER-LIGAND FREE ENERGY PREDICTED BY IDOCK:   -6.30 KCAL/MOL
REMARK 924 INTRA-LIGAND FREE ENERGY PREDICTED BY IDOCK:   -0.28 KCAL/MOL
REMARK 927      BINDING AFFINITY PREDICTED BY RF-SCORE:    0.00 PKD
ROOT
HETATM    1  C   UNL     1      -9.975  19.615  68.929  1.00  0.00    -0.524 C  
HETATM    2  C   UNL     1      -9.192  19.057  67.748  1.00  0.00    -0.298 C  
HETATM    3  C   UNL     1      -7.907  18.383  68.233  1.00  0.00    -0.314 C  
ENDROOT
BRANCH   2   4
HETATM    4  N   UNL     1      -9.996  18.090  67.022  1.00  0.00    -0.314 NA 
HETATM    5  C   UNL     1     -10.519  18.219  65.777  1.00  0.00    -0.213 C  
HETATM    6  H   UNL     1     -10.191  17.213  67.505  1.00  0.00     0.000 HD 
HETATM    7  N   UNL     1     -10.835  19.334  65.219  1.00  0.00    -0.414 NA 
HETATM    8  N   UNL     1     -10.717  17.048  65.104  1.00  0.00    -0.664 NA 
HETATM    9  H1  UNL     1     -11.229  19.430  64.282  1.00  0.00     0.000 HD 
HETATM   10  H2  UNL     1     -10.679  20.189  65.754  1.00  0.00     0.000 HD 
HETATM   11  C   UNL     1     -10.184  15.801  65.242  1.00  0.00    -0.289 C  
HETATM   12  H   UNL     1     -11.398  17.120  64.348  1.00  0.00     0.000 HD 
HETATM   13  N   UNL     1     -10.897  14.791  64.643  1.00  0.00    -0.608 NA 
HETATM   14  N   UNL     1      -9.098  15.579  65.925  1.00  0.00    -0.398 NA 
HETATM   15  H1  UNL     1      -8.700  14.646  66.029  1.00  0.00     0.000 HD 
HETATM   16  H2  UNL     1      -8.630  16.366  66.374  1.00  0.00     0.000 HD 
HETATM   17  H   UNL     1     -11.404  14.967  63.776  1.00  0.00     0.000 HD 
BRANCH  13  18
HETATM   18  C   UNL     1     -10.924  13.502  65.236  1.00  0.00    -0.295 A  
HETATM   19  C   UNL     1     -11.583  13.279  66.456  1.00  0.00    -0.392 A  
HETATM   20  C   UNL     1     -11.548  12.029  67.073  1.00  0.00    -0.387 A  
HETATM   21  C   UNL     1     -10.882  10.980  66.453  1.00  0.00    -0.191 A  
HETATM   22  C   UNL     1     -10.292  11.160  65.201  1.00  0.00    -0.354 A  
HETATM   23 CL   UNL     1     -10.771   9.458  67.248  1.00  0.00    -0.314 Cl 
HETATM   24  C   UNL     1     -10.331  12.418  64.583  1.00  0.00    -0.332 A  
ENDBRANCH  13  18
ENDBRANCH   2   4
TORSDOF 2
ENDMDL
MODEL       14
REMARK 921   NORMALIZED FREE ENERGY PREDICTED BY IDOCK:   -5.69 KCAL/MOL
REMARK 922        TOTAL FREE ENERGY PREDICTED BY IDOCK:   -6.56 KCAL/MOL
REMARK 923 INTER-LIGAND FREE ENERGY PREDICTED BY IDOCK:   -6.56 KCAL/MOL
REMARK 924 INTRA-LIGAND FREE ENERGY PREDICTED BY IDOCK:   -0.00 KCAL/MOL
REMARK 927      BINDING AFFINITY PREDICTED BY RF-SCORE:    0.00 PKD
ROOT
HETATM    1  C   UNL     1     -10.868   5.931  73.017  1.00  0.00    -0.300 C  
HETATM    2  C   UNL     1     -10.860   7.447  73.162  1.00  0.00    -0.386 C  
HETATM    3  C   UNL     1      -9.425   7.960  73.299  1.00  0.00    -0.350 C  
ENDROOT
BRANCH   2   4
HETATM    4  N   UNL     1     -11.483   8.067  72.006  1.00  0.00    -0.288 NA 
HETATM    5  C   UNL     1     -12.551   8.902  71.991  1.00  0.00    -0.394 C  
HETATM    6  H   UNL     1     -11.068   7.848  71.099  1.00  0.00     0.000 HD 
HETATM    7  N   UNL     1     -13.494   8.913  72.868  1.00  0.00    -0.889 NA 
HETATM    8  N   UNL     1     -12.595   9.775  70.944  1.00  0.00    -0.454 NA 
HETATM    9  H1  UNL     1     -14.297   9.542  72.856  1.00  0.00     0.000 HD 
HETATM   10  H2  UNL     1     -13.431   8.242  73.633  1.00  0.00     0.000 HD 
HETATM   11  C   UNL     1     -11.637  10.254  70.099  1.00  0.00    -0.299 C  
HETATM   12  H   UNL     1     -13.527  10.143  70.755  1.00  0.00     0.000 HD 
HETATM   13  N   UNL     1     -12.110  10.813  68.937  1.00  0.00    -0.749 NA 
HETATM   14  N   UNL     1     -10.366  10.153  70.358  1.00  0.00    -0.416 NA 
HETATM   15  H1  UNL     1      -9.650  10.511  69.726  1.00  0.00     0.000 HD 
HETATM   16  H2  UNL     1     -10.075   9.700  71.225  1.00  0.00     0.000 HD 
HETATM   17  H   UNL     1     -12.999  11.312  68.933  1.00  0.00     0.000 HD 
BRANCH  13  18
HETATM   18  C   UNL     1     -11.355  10.693  67.741  1.00  0.00    -0.244 A  
HETATM   19  C   UNL     1     -10.738   9.481  67.392  1.00  0.00    -0.297 A  
HETATM   20  C   UNL     1      -9.938   9.384  66.254  1.00  0.00    -0.353 A  
HETATM   21  C   UNL     1      -9.779  10.494  65.435  1.00  0.00    -0.257 A  
HETATM   22  C   UNL     1     -10.451  11.684  65.719  1.00  0.00    -0.308 A  
HETATM   23 CL   UNL     1      -8.731  10.400  64.073  1.00  0.00    -0.190 Cl 
HETATM   24  C   UNL     1     -11.257  11.776  66.863  1.00  0.00    -0.387 A  
ENDBRANCH  13  18
ENDBRANCH   2   4
TORSDOF 2
ENDMDL
MODEL       15
REMARK 921   NORMALIZED FREE ENERGY PREDICTED BY IDOCK:   -5.65 KCAL/MOL
REMARK 922        TOTAL FREE ENERGY PREDICTED BY IDOCK:   -6.52 KCAL/MOL
REMARK 923 INTER-LIGAND FREE ENERGY PREDICTED BY IDOCK:   -6.26 KCAL/MOL
REMARK 924 INTRA-LIGAND FREE ENERGY PREDICTED BY IDOCK:   -0.27 KCAL/MOL
REMARK 927      BINDING AFFINITY PREDICTED BY RF-SCORE:    0.00 PKD
ROOT
HETATM    1  C   UNL     1      -8.629  17.793  68.547  1.00  0.00    -0.291 C  
HETATM    2  C   UNL     1     -10.145  17.721  68.681  1.00  0.00    -0.384 C  
HETATM    3  C   UNL     1     -10.813  18.643  67.659  1.00  0.00    -0.347 C  
ENDROOT
BRANCH   2   4
HETATM    4  N   UNL     1     -10.605  16.360  68.473  1.00  0.00    -0.286 NA 
HETATM    5  C   UNL     1     -11.780  15.814  68.875  1.00  0.00    -0.394 C  
HETATM    6  H   UNL     1      -9.971  15.743  67.965  1.00  0.00     0.000 HD 
HETATM    7  N   UNL     1     -12.461  16.195  69.898  1.00  0.00    -0.462 NA 
HETATM    8  N   UNL     1     -12.232  14.777  68.112  1.00  0.00    -0.589 NA 
HETATM    9  H1  UNL     1     -13.345  15.784  70.200  1.00  0.00     0.000 HD 
HETATM   10  H2  UNL     1     -12.089  16.970  70.448  1.00  0.00     0.000 HD 
HETATM   11  C   UNL     1     -11.969  14.387  66.832  1.00  0.00    -0.399 C  
HETATM   12  H   UNL     1     -12.899  14.174  68.595  1.00  0.00     0.000 HD 
HETATM   13  N   UNL     1     -12.310  13.090  66.535  1.00  0.00    -0.401 NA 
HETATM   14  N   UNL     1     -11.401  15.175  65.967  1.00  0.00    -0.278 NA 
HETATM   15  H1  UNL     1     -11.204  14.884  65.009  1.00  0.00     0.000 HD 
HETATM   16  H2  UNL     1     -11.143  16.119  66.256  1.00  0.00     0.000 HD 
HETATM   17  H   UNL     1     -13.124  12.661  66.975  1.00  0.00     0.000 HD 
BRANCH  13  18
HETATM   18  C   UNL     1     -11.525  12.350  65.612  1.00  0.00    -0.367 A  
HETATM   19  C   UNL     1     -11.876  12.278  64.255  1.00  0.00    -0.482 A  
HETATM   20  C   UNL     1     -11.145  11.493  63.364  1.00  0.00    -0.370 A  
HETATM   21  C   UNL     1     -10.030  10.802  63.821  1.00  0.00    -0.351 A  
HETATM   22  C   UNL     1      -9.615  10.927  65.148  1.00  0.00    -0.291 A  
HETATM   23 CL   UNL     1      -9.171   9.772  62.743  1.00  0.00    -0.290 Cl 
HETATM   24  C   UNL     1     -10.353  11.720  66.039  1.00  0.00    -0.276 A  
ENDBRANCH  13  18
ENDBRANCH   2   4
TORSDOF 2
ENDMDL
MODEL       16
REMARK 921   NORMALIZED FREE ENERGY PREDICTED BY IDOCK:   -5.59 KCAL/MOL
REMARK 922        TOTAL FREE ENERGY PREDICTED BY IDOCK:   -6.45 KCAL/MOL
REMARK 923 INTER-LIGAND FREE ENERGY PREDICTED BY IDOCK:   -6.16 KCAL/MOL
REMARK 924 INTRA-LIGAND FREE ENERGY PREDICTED BY IDOCK:   -0.28 KCAL/MOL
REMARK 927      BINDING AFFINITY PREDICTED BY RF-SCORE:    0.00 PKD
ROOT
HETATM    1  C   UNL     1     -10.802  14.501  65.183  1.00  0.00    -0.407 C  
HETATM    2  C   UNL     1     -11.970  13.841  65.907  1.00  0.00    -0.406 C  
HETATM    3  C   UNL     1     -12.513  12.673  65.083  1.00  0.00    -0.531 C  
ENDROOT
BRANCH   2   4
HETATM    4  N   UNL     1     -11.545  13.355  67.208  1.00  0.00    -0.339 NA 
HETATM    5  C   UNL     1     -11.907  13.829  68.426  1.00  0.00    -0.376 C  
HETATM    6  H   UNL     1     -10.899  12.565  67.205  1.00  0.00     0.000 HD 
HETATM    7  N   UNL     1     -12.262  15.041  68.673  1.00  0.00    -0.593 NA 
HETATM    8  N   UNL     1     -11.870  12.918  69.441  1.00  0.00    -0.316 NA 
HETATM    9  H1  UNL     1     -12.535  15.397  69.589  1.00  0.00     0.000 HD 
HETATM   10  H2  UNL     1     -12.272  15.696  67.890  1.00  0.00     0.000 HD 
HETATM   11  C   UNL     1     -11.900  11.554  69.461  1.00  0.00    -0.351 C  
HETATM   12  H   UNL     1     -11.809  13.339  70.368  1.00  0.00     0.000 HD 
HETATM   13  N   UNL     1     -11.461  10.977  70.628  1.00  0.00    -0.413 NA 
HETATM   14  N   UNL     1     -12.280  10.851  68.434  1.00  0.00    -0.810 NA 
HETATM   15  H1  UNL     1     -12.301   9.831  68.449  1.00  0.00     0.000 HD 
HETATM   16  H2  UNL     1     -12.566  11.336  67.583  1.00  0.00     0.000 HD 
HETATM   17  H   UNL     1     -11.624  11.441  71.521  1.00  0.00     0.000 HD 
BRANCH  13  18
HETATM   18  C   UNL     1     -10.780   9.733  70.584  1.00  0.00    -0.326 A  
HETATM   19  C   UNL     1      -9.402   9.670  70.321  1.00  0.00    -0.292 A  
HETATM   20  C   UNL     1      -8.748   8.443  70.208  1.00  0.00    -0.140 A  
HETATM   21  C   UNL     1      -9.464   7.268  70.393  1.00  0.00    -0.165 A  
HETATM   22  C   UNL     1     -10.816   7.312  70.738  1.00  0.00    -0.260 A  
HETATM   23 CL   UNL     1      -8.678   5.753  70.178  1.00  0.00    -0.137 Cl 
HETATM   24  C   UNL     1     -11.469   8.548  70.854  1.00  0.00    -0.302 A  
ENDBRANCH  13  18
ENDBRANCH   2   4
TORSDOF 2
ENDMDL
MODEL       17
REMARK 921   NORMALIZED FREE ENERGY PREDICTED BY IDOCK:   -5.56 KCAL/MOL
REMARK 922        TOTAL FREE ENERGY PREDICTED BY IDOCK:   -6.42 KCAL/MOL
REMARK 923 INTER-LIGAND FREE ENERGY PREDICTED BY IDOCK:   -6.12 KCAL/MOL
REMARK 924 INTRA-LIGAND FREE ENERGY PREDICTED BY IDOCK:   -0.30 KCAL/MOL
REMARK 927      BINDING AFFINITY PREDICTED BY RF-SCORE:    0.00 PKD
ROOT
HETATM    1  C   UNL     1      -9.730  13.635  66.344  1.00  0.00    -0.300 C  
HETATM    2  C   UNL     1     -11.106  13.752  66.988  1.00  0.00    -0.302 C  
HETATM    3  C   UNL     1     -12.155  13.040  66.132  1.00  0.00    -0.473 C  
ENDROOT
BRANCH   2   4
HETATM    4  N   UNL     1     -11.092  13.165  68.316  1.00  0.00    -0.253 NA 
HETATM    5  C   UNL     1     -11.663  13.657  69.444  1.00  0.00    -0.324 C  
HETATM    6  H   UNL     1     -10.594  12.280  68.412  1.00  0.00     0.000 HD 
HETATM    7  N   UNL     1     -11.876  14.904  69.681  1.00  0.00    -0.300 NA 
HETATM    8  N   UNL     1     -12.015  12.724  70.375  1.00  0.00    -0.523 NA 
HETATM    9  H1  UNL     1     -12.305  15.274  70.530  1.00  0.00     0.000 HD 
HETATM   10  H2  UNL     1     -11.593  15.574  68.965  1.00  0.00     0.000 HD 
HETATM   11  C   UNL     1     -12.258  11.385  70.295  1.00  0.00    -0.349 C  
HETATM   12  H   UNL     1     -12.117  13.103  71.316  1.00  0.00     0.000 HD 
HETATM   13  N   UNL     1     -12.211  10.710  71.491  1.00  0.00    -0.302 NA 
HETATM   14  N   UNL     1     -12.480  10.783  69.162  1.00  0.00    -0.717 NA 
HETATM   15  H1  UNL     1     -12.661   9.781  69.103  1.00  0.00     0.000 HD 
HETATM   16  H2  UNL     1     -12.472  11.334  68.303  1.00  0.00     0.000 HD 
HETATM   17  H   UNL     1     -12.514  11.169  72.350  1.00  0.00     0.000 HD 
BRANCH  13  18
HETATM   18  C   UNL     1     -11.740   9.372  71.525  1.00  0.00    -0.394 A  
HETATM   19  C   UNL     1     -10.365   9.088  71.552  1.00  0.00    -0.412 A  
HETATM   20  C   UNL     1      -9.902   7.773  71.513  1.00  0.00    -0.200 A  
HETATM   21  C   UNL     1     -10.817   6.728  71.484  1.00  0.00    -0.234 A  
HETATM   22  C   UNL     1     -12.187   6.987  71.541  1.00  0.00    -0.407 A  
HETATM   23 CL   UNL     1     -10.250   5.108  71.358  1.00  0.00    -0.274 Cl 
HETATM   24  C   UNL     1     -12.648   8.311  71.583  1.00  0.00    -0.355 A  
ENDBRANCH  13  18
ENDBRANCH   2   4
TORSDOF 2
ENDMDL
MODEL       18
REMARK 921   NORMALIZED FREE ENERGY PREDICTED BY IDOCK:   -5.54 KCAL/MOL
REMARK 922        TOTAL FREE ENERGY PREDICTED BY IDOCK:   -6.40 KCAL/MOL
REMARK 923 INTER-LIGAND FREE ENERGY PREDICTED BY IDOCK:   -6.13 KCAL/MOL
REMARK 924 INTRA-LIGAND FREE ENERGY PREDICTED BY IDOCK:   -0.27 KCAL/MOL
REMARK 927      BINDING AFFINITY PREDICTED BY RF-SCORE:    0.00 PKD
ROOT
HETATM    1  C   UNL     1      -9.467  13.438  66.618  1.00  0.00    -0.264 C  
HETATM    2  C   UNL     1     -10.894  13.599  67.127  1.00  0.00    -0.285 C  
HETATM    3  C   UNL     1     -11.875  12.895  66.188  1.00  0.00    -0.487 C  
ENDROOT
BRANCH   2   4
HETATM    4  N   UNL     1     -11.019  13.039  68.460  1.00  0.00    -0.252 NA 
HETATM    5  C   UNL     1     -11.707  13.551  69.511  1.00  0.00    -0.322 C  
HETATM    6  H   UNL     1     -10.533  12.157  68.626  1.00  0.00     0.000 HD 
HETATM    7  N   UNL     1     -11.946  14.801  69.700  1.00  0.00    -0.305 NA 
HETATM    8  N   UNL     1     -12.154  12.635  70.418  1.00  0.00    -0.469 NA 
HETATM    9  H1  UNL     1     -12.463  15.186  70.490  1.00  0.00     0.000 HD 
HETATM   10  H2  UNL     1     -11.590  15.458  69.004  1.00  0.00     0.000 HD 
HETATM   11  C   UNL     1     -12.385  11.293  70.340  1.00  0.00    -0.329 C  
HETATM   12  H   UNL     1     -12.356  13.032  71.336  1.00  0.00     0.000 HD 
HETATM   13  N   UNL     1     -12.464  10.643  71.547  1.00  0.00    -0.380 NA 
HETATM   14  N   UNL     1     -12.485  10.669  69.202  1.00  0.00    -0.737 NA 
HETATM   15  H1  UNL     1     -12.657   9.665  69.143  1.00  0.00     0.000 HD 
HETATM   16  H2  UNL     1     -12.387  11.202  68.338  1.00  0.00     0.000 HD 
HETATM   17  H   UNL     1     -12.856  11.117  72.360  1.00  0.00     0.000 HD 
BRANCH  13  18
HETATM   18  C   UNL     1     -11.996   9.307  71.657  1.00  0.00    -0.378 A  
HETATM   19  C   UNL     1     -12.878   8.219  71.552  1.00  0.00    -0.312 A  
HETATM   20  C   UNL     1     -12.429   6.911  71.732  1.00  0.00    -0.397 A  
HETATM   21  C   UNL     1     -11.083   6.680  71.983  1.00  0.00    -0.255 A  
HETATM   22  C   UNL     1     -10.177   7.741  72.009  1.00  0.00    -0.253 A  
HETATM   23 CL   UNL     1     -10.540   5.075  72.282  1.00  0.00    -0.276 Cl 
HETATM   24  C   UNL     1     -10.632   9.055  71.824  1.00  0.00    -0.426 A  
ENDBRANCH  13  18
ENDBRANCH   2   4
TORSDOF 2
ENDMDL
MODEL       19
REMARK 921   NORMALIZED FREE ENERGY PREDICTED BY IDOCK:   -5.54 KCAL/MOL
REMARK 922        TOTAL FREE ENERGY PREDICTED BY IDOCK:   -6.40 KCAL/MOL
REMARK 923 INTER-LIGAND FREE ENERGY PREDICTED BY IDOCK:   -6.12 KCAL/MOL
REMARK 924 INTRA-LIGAND FREE ENERGY PREDICTED BY IDOCK:   -0.27 KCAL/MOL
REMARK 927      BINDING AFFINITY PREDICTED BY RF-SCORE:    0.00 PKD
ROOT
HETATM    1  C   UNL     1     -10.332  10.957  64.403  1.00  0.00    -0.430 C  
HETATM    2  C   UNL     1     -10.828  12.219  65.097  1.00  0.00    -0.301 C  
HETATM    3  C   UNL     1     -12.319  12.424  64.824  1.00  0.00    -0.497 C  
ENDROOT
BRANCH   2   4
HETATM    4  N   UNL     1     -10.611  12.125  66.529  1.00  0.00    -0.231 NA 
HETATM    5  C   UNL     1     -10.652  13.129  67.440  1.00  0.00    -0.242 C  
HETATM    6  H   UNL     1     -10.403  11.194  66.893  1.00  0.00     0.000 HD 
HETATM    7  N   UNL     1     -10.395  14.365  67.190  1.00  0.00    -0.261 NA 
HETATM    8  N   UNL     1     -10.989  12.754  68.708  1.00  0.00    -0.247 NA 
HETATM    9  H1  UNL     1     -10.427  15.121  67.875  1.00  0.00     0.000 HD 
HETATM   10  H2  UNL     1     -10.141  14.608  66.232  1.00  0.00     0.000 HD 
HETATM   11  C   UNL     1     -11.643  11.667  69.207  1.00  0.00    -0.320 C  
HETATM   12  H   UNL     1     -10.694  13.418  69.423  1.00  0.00     0.000 HD 
HETATM   13  N   UNL     1     -11.462  11.442  70.550  1.00  0.00    -0.436 NA 
HETATM   14  N   UNL     1     -12.355  10.877  68.457  1.00  0.00    -0.744 NA 
HETATM   15  H1  UNL     1     -12.844  10.063  68.831  1.00  0.00     0.000 HD 
HETATM   16  H2  UNL     1     -12.427  11.079  67.460  1.00  0.00     0.000 HD 
HETATM   17  H   UNL     1     -11.348  12.228  71.190  1.00  0.00     0.000 HD 
BRANCH  13  18
HETATM   18  C   UNL     1     -11.434  10.111  71.043  1.00  0.00    -0.354 A  
HETATM   19  C   UNL     1     -12.575   9.526  71.614  1.00  0.00    -0.476 A  
HETATM   20  C   UNL     1     -12.527   8.244  72.163  1.00  0.00    -0.398 A  
HETATM   21  C   UNL     1     -11.342   7.523  72.109  1.00  0.00    -0.283 A  
HETATM   22  C   UNL     1     -10.220   8.055  71.471  1.00  0.00    -0.243 A  
HETATM   23 CL   UNL     1     -11.257   5.974  72.852  1.00  0.00    -0.288 Cl 
HETATM   24  C   UNL     1     -10.273   9.343  70.918  1.00  0.00    -0.373 A  
ENDBRANCH  13  18
ENDBRANCH   2   4
TORSDOF 2
ENDMDL
MODEL       20
REMARK 921   NORMALIZED FREE ENERGY PREDICTED BY IDOCK:   -5.53 KCAL/MOL
REMARK 922        TOTAL FREE ENERGY PREDICTED BY IDOCK:   -6.39 KCAL/MOL
REMARK 923 INTER-LIGAND FREE ENERGY PREDICTED BY IDOCK:   -6.21 KCAL/MOL
REMARK 924 INTRA-LIGAND FREE ENERGY PREDICTED BY IDOCK:   -0.17 KCAL/MOL
REMARK 927      BINDING AFFINITY PREDICTED BY RF-SCORE:    0.00 PKD
ROOT
HETATM    1  C   UNL     1     -14.123   8.759  71.996  1.00  0.00    -0.508 C  
HETATM    2  C   UNL     1     -12.957   9.707  72.249  1.00  0.00    -0.356 C  
HETATM    3  C   UNL     1     -11.627   8.986  72.020  1.00  0.00    -0.413 C  
ENDROOT
BRANCH   2   4
HETATM    4  N   UNL     1     -13.039  10.853  71.361  1.00  0.00    -0.388 NA 
HETATM    5  C   UNL     1     -13.135  12.161  71.708  1.00  0.00    -0.352 C  
HETATM    6  H   UNL     1     -13.024  10.651  70.361  1.00  0.00     0.000 HD 
HETATM    7  N   UNL     1     -13.657  12.601  72.798  1.00  0.00    -0.642 NA 
HETATM    8  N   UNL     1     -12.633  13.044  70.797  1.00  0.00    -0.286 NA 
HETATM    9  H1  UNL     1     -13.729  13.585  73.059  1.00  0.00     0.000 HD 
HETATM   10  H2  UNL     1     -14.029  11.912  73.453  1.00  0.00     0.000 HD 
HETATM   11  C   UNL     1     -11.734  12.912  69.779  1.00  0.00    -0.281 C  
HETATM   12  H   UNL     1     -13.002  13.990  70.896  1.00  0.00     0.000 HD 
HETATM   13  N   UNL     1     -11.762  13.915  68.841  1.00  0.00    -0.314 NA 
HETATM   14  N   UNL     1     -10.935  11.889  69.685  1.00  0.00    -0.467 NA 
HETATM   15  H1  UNL     1     -10.263  11.790  68.923  1.00  0.00     0.000 HD 
HETATM   16  H2  UNL     1     -10.982  11.160  70.397  1.00  0.00     0.000 HD 
HETATM   17  H   UNL     1     -11.985  14.870  69.120  1.00  0.00     0.000 HD 
BRANCH  13  18
HETATM   18  C   UNL     1     -11.479  13.615  67.483  1.00  0.00    -0.329 A  
HETATM   19  C   UNL     1     -12.512  13.363  66.566  1.00  0.00    -0.255 A  
HETATM   20  C   UNL     1     -12.231  12.998  65.250  1.00  0.00    -0.513 A  
HETATM   21  C   UNL     1     -10.909  12.919  64.831  1.00  0.00    -0.308 A  
HETATM   22  C   UNL     1      -9.870  13.247  65.704  1.00  0.00    -0.177 A  
HETATM   23 CL   UNL     1     -10.556  12.395  63.231  1.00  0.00    -0.373 Cl 
HETATM   24  C   UNL     1     -10.158  13.616  67.027  1.00  0.00    -0.248 A  
ENDBRANCH  13  18
ENDBRANCH   2   4
TORSDOF 2
ENDMDL
MODEL       21
REMARK 921   NORMALIZED FREE ENERGY PREDICTED BY IDOCK:   -5.52 KCAL/MOL
REMARK 922        TOTAL FREE ENERGY PREDICTED BY IDOCK:   -6.37 KCAL/MOL
REMARK 923 INTER-LIGAND FREE ENERGY PREDICTED BY IDOCK:   -6.09 KCAL/MOL
REMARK 924 INTRA-LIGAND FREE ENERGY PREDICTED BY IDOCK:   -0.28 KCAL/MOL
REMARK 927      BINDING AFFINITY PREDICTED BY RF-SCORE:    0.00 PKD
ROOT
HETATM    1  C   UNL     1     -10.587  16.473  68.077  1.00  0.00    -0.328 C  
HETATM    2  C   UNL     1     -10.904  15.709  66.797  1.00  0.00    -0.277 C  
HETATM    3  C   UNL     1      -9.641  15.544  65.951  1.00  0.00    -0.383 C  
ENDROOT
BRANCH   2   4
HETATM    4  N   UNL     1     -11.445  14.400  67.113  1.00  0.00    -0.346 NA 
HETATM    5  C   UNL     1     -12.129  13.567  66.289  1.00  0.00    -0.428 C  
HETATM    6  H   UNL     1     -11.293  14.067  68.066  1.00  0.00     0.000 HD 
HETATM    7  N   UNL     1     -12.845  13.941  65.288  1.00  0.00    -0.749 NA 
HETATM    8  N   UNL     1     -12.028  12.239  66.587  1.00  0.00    -0.622 NA 
HETATM    9  H1  UNL     1     -13.359  13.315  64.668  1.00  0.00     0.000 HD 
HETATM   10  H2  UNL     1     -12.902  14.943  65.099  1.00  0.00     0.000 HD 
HETATM   11  C   UNL     1     -11.117  11.518  67.301  1.00  0.00    -0.293 C  
HETATM   12  H   UNL     1     -12.784  11.674  66.200  1.00  0.00     0.000 HD 
HETATM   13  N   UNL     1     -11.543  10.277  67.707  1.00  0.00    -0.620 NA 
HETATM   14  N   UNL     1      -9.942  11.988  67.606  1.00  0.00    -0.188 NA 
HETATM   15  H1  UNL     1      -9.261  11.449  68.141  1.00  0.00     0.000 HD 
HETATM   16  H2  UNL     1      -9.695  12.930  67.302  1.00  0.00     0.000 HD 
HETATM   17  H   UNL     1     -12.180   9.738  67.122  1.00  0.00     0.000 HD 
BRANCH  13  18
HETATM   18  C   UNL     1     -11.091   9.749  68.945  1.00  0.00    -0.099 A  
HETATM   19  C   UNL     1     -10.132   8.725  68.989  1.00  0.00    -0.206 A  
HETATM   20  C   UNL     1      -9.742   8.158  70.202  1.00  0.00    -0.175 A  
HETATM   21  C   UNL     1     -10.284   8.640  71.386  1.00  0.00    -0.254 A  
HETATM   22  C   UNL     1     -11.175   9.714  71.369  1.00  0.00    -0.426 A  
HETATM   23 CL   UNL     1      -9.864   7.893  72.878  1.00  0.00    -0.320 Cl 
HETATM   24  C   UNL     1     -11.563  10.283  70.147  1.00  0.00    -0.376 A  
ENDBRANCH  13  18
ENDBRANCH   2   4
TORSDOF 2
ENDMDL
MODEL       22
REMARK 921   NORMALIZED FREE ENERGY PREDICTED BY IDOCK:   -5.51 KCAL/MOL
REMARK 922        TOTAL FREE ENERGY PREDICTED BY IDOCK:   -6.36 KCAL/MOL
REMARK 923 INTER-LIGAND FREE ENERGY PREDICTED BY IDOCK:   -6.24 KCAL/MOL
REMARK 924 INTRA-LIGAND FREE ENERGY PREDICTED BY IDOCK:   -0.12 KCAL/MOL
REMARK 927      BINDING AFFINITY PREDICTED BY RF-SCORE:    0.00 PKD
ROOT
HETATM    1  C   UNL     1      -9.053  10.585  66.742  1.00  0.00    -0.167 C  
HETATM    2  C   UNL     1      -9.484  11.620  65.710  1.00  0.00    -0.226 C  
HETATM    3  C   UNL     1     -10.651  11.085  64.878  1.00  0.00    -0.328 C  
ENDROOT
BRANCH   2   4
HETATM    4  N   UNL     1      -9.888  12.849  66.369  1.00  0.00    -0.263 NA 
HETATM    5  C   UNL     1     -10.427  13.954  65.797  1.00  0.00    -0.307 C  
HETATM    6  H   UNL     1      -9.751  12.885  67.379  1.00  0.00     0.000 HD 
HETATM    7  N   UNL     1     -10.230  14.329  64.581  1.00  0.00    -0.622 NA 
HETATM    8  N   UNL     1     -11.226  14.702  66.611  1.00  0.00    -0.342 NA 
HETATM    9  H1  UNL     1     -10.636  15.161  64.151  1.00  0.00     0.000 HD 
HETATM   10  H2  UNL     1      -9.621  13.748  64.003  1.00  0.00     0.000 HD 
HETATM   11  C   UNL     1     -11.902  14.415  67.760  1.00  0.00    -0.368 C  
HETATM   12  H   UNL     1     -11.341  15.667  66.299  1.00  0.00     0.000 HD 
HETATM   13  N   UNL     1     -12.286  15.506  68.501  1.00  0.00    -0.506 NA 
HETATM   14  N   UNL     1     -12.133  13.193  68.146  1.00  0.00    -0.269 NA 
HETATM   15  H1  UNL     1     -12.638  12.979  69.006  1.00  0.00     0.000 HD 
HETATM   16  H2  UNL     1     -11.796  12.423  67.568  1.00  0.00     0.000 HD 
HETATM   17  H   UNL     1     -12.545  16.376  68.035  1.00  0.00     0.000 HD 
BRANCH  13  18
HETATM   18  C   UNL     1     -12.320  15.418  69.917  1.00  0.00    -0.293 A  
HETATM   19  C   UNL     1     -13.536  15.289  70.607  1.00  0.00    -0.257 A  
HETATM   20  C   UNL     1     -13.573  15.274  72.001  1.00  0.00    -0.571 A  
HETATM   21  C   UNL     1     -12.385  15.353  72.716  1.00  0.00    -0.407 A  
HETATM   22  C   UNL     1     -11.160  15.397  72.049  1.00  0.00    -0.199 A  
HETATM   23 CL   UNL     1     -12.433  15.413  74.435  1.00  0.00    -0.753 Cl 
HETATM   24  C   UNL     1     -11.127  15.409  70.646  1.00  0.00    -0.364 A  
ENDBRANCH  13  18
ENDBRANCH   2   4
TORSDOF 2
ENDMDL
MODEL       23
REMARK 921   NORMALIZED FREE ENERGY PREDICTED BY IDOCK:   -5.48 KCAL/MOL
REMARK 922        TOTAL FREE ENERGY PREDICTED BY IDOCK:   -6.33 KCAL/MOL
REMARK 923 INTER-LIGAND FREE ENERGY PREDICTED BY IDOCK:   -6.14 KCAL/MOL
REMARK 924 INTRA-LIGAND FREE ENERGY PREDICTED BY IDOCK:   -0.18 KCAL/MOL
REMARK 927      BINDING AFFINITY PREDICTED BY RF-SCORE:    0.00 PKD
ROOT
HETATM    1  C   UNL     1      -7.454  18.966  69.051  1.00  0.00    -0.303 C  
HETATM    2  C   UNL     1      -8.106  19.658  67.861  1.00  0.00    -0.304 C  
HETATM    3  C   UNL     1      -7.083  19.865  66.741  1.00  0.00    -0.247 C  
ENDROOT
BRANCH   2   4
HETATM    4  N   UNL     1      -9.212  18.863  67.360  1.00  0.00    -0.284 NA 
HETATM    5  C   UNL     1     -10.054  19.168  66.341  1.00  0.00    -0.419 C  
HETATM    6  H   UNL     1      -9.374  17.971  67.828  1.00  0.00     0.000 HD 
HETATM    7  N   UNL     1     -10.364  20.360  65.969  1.00  0.00    -0.431 NA 
HETATM    8  N   UNL     1     -10.599  18.097  65.694  1.00  0.00    -0.595 NA 
HETATM    9  H1  UNL     1     -10.998  20.589  65.203  1.00  0.00     0.000 HD 
HETATM   10  H2  UNL     1      -9.942  21.137  66.480  1.00  0.00     0.000 HD 
HETATM   11  C   UNL     1     -10.225  16.789  65.593  1.00  0.00    -0.236 C  
HETATM   12  H   UNL     1     -11.455  18.318  65.186  1.00  0.00     0.000 HD 
HETATM   13  N   UNL     1     -11.213  15.929  65.182  1.00  0.00    -0.272 NA 
HETATM   14  N   UNL     1      -9.028  16.382  65.902  1.00  0.00    -0.466 NA 
HETATM   15  H1  UNL     1      -8.748  15.404  65.826  1.00  0.00     0.000 HD 
HETATM   16  H2  UNL     1      -8.345  17.065  66.231  1.00  0.00     0.000 HD 
HETATM   17  H   UNL     1     -11.923  16.243  64.521  1.00  0.00     0.000 HD 
BRANCH  13  18
HETATM   18  C   UNL     1     -11.242  14.601  65.681  1.00  0.00    -0.342 A  
HETATM   19  C   UNL     1     -11.892  14.294  66.887  1.00  0.00    -0.458 A  
HETATM   20  C   UNL     1     -11.858  13.002  67.413  1.00  0.00    -0.411 A  
HETATM   21  C   UNL     1     -11.201  11.998  66.714  1.00  0.00    -0.322 A  
HETATM   22  C   UNL     1     -10.620  12.265  65.473  1.00  0.00    -0.304 A  
HETATM   23 CL   UNL     1     -11.091  10.422  67.396  1.00  0.00    -0.342 Cl 
HETATM   24  C   UNL     1     -10.659  13.564  64.946  1.00  0.00    -0.409 A  
ENDBRANCH  13  18
ENDBRANCH   2   4
TORSDOF 2
ENDMDL
MODEL       24
REMARK 921   NORMALIZED FREE ENERGY PREDICTED BY IDOCK:   -5.43 KCAL/MOL
REMARK 922        TOTAL FREE ENERGY PREDICTED BY IDOCK:   -6.28 KCAL/MOL
REMARK 923 INTER-LIGAND FREE ENERGY PREDICTED BY IDOCK:   -5.97 KCAL/MOL
REMARK 924 INTRA-LIGAND FREE ENERGY PREDICTED BY IDOCK:   -0.31 KCAL/MOL
REMARK 927      BINDING AFFINITY PREDICTED BY RF-SCORE:    0.00 PKD
ROOT
HETATM    1  C   UNL     1     -12.580  12.169  63.462  1.00  0.00    -0.621 C  
HETATM    2  C   UNL     1     -11.400  11.729  64.321  1.00  0.00    -0.325 C  
HETATM    3  C   UNL     1     -10.092  11.880  63.543  1.00  0.00    -0.464 C  
ENDROOT
BRANCH   2   4
HETATM    4  N   UNL     1     -11.333  12.528  65.531  1.00  0.00    -0.317 NA 
HETATM    5  C   UNL     1     -11.162  12.089  66.803  1.00  0.00    -0.322 C  
HETATM    6  H   UNL     1     -11.426  13.537  65.411  1.00  0.00     0.000 HD 
HETATM    7  N   UNL     1     -11.518  10.932  67.240  1.00  0.00    -0.451 NA 
HETATM    8  N   UNL     1     -10.572  12.979  67.653  1.00  0.00    -0.222 NA 
HETATM    9  H1  UNL     1     -11.389  10.602  68.197  1.00  0.00     0.000 HD 
HETATM   10  H2  UNL     1     -11.962  10.295  66.578  1.00  0.00     0.000 HD 
HETATM   11  C   UNL     1      -9.787  14.074  67.446  1.00  0.00    -0.240 C  
HETATM   12  H   UNL     1     -10.754  12.786  68.638  1.00  0.00     0.000 HD 
HETATM   13  N   UNL     1      -9.696  14.938  68.510  1.00  0.00    -0.208 NA 
HETATM   14  N   UNL     1      -9.197  14.303  66.308  1.00  0.00    -0.487 NA 
HETATM   15  H1  UNL     1      -8.610  15.123  66.153  1.00  0.00     0.000 HD 
HETATM   16  H2  UNL     1      -9.327  13.640  65.544  1.00  0.00     0.000 HD 
HETATM   17  H   UNL     1      -9.720  14.580  69.464  1.00  0.00     0.000 HD 
BRANCH  13  18
HETATM   18  C   UNL     1      -9.570  16.332  68.274  1.00  0.00    -0.218 A  
HETATM   19  C   UNL     1     -10.682  17.111  67.919  1.00  0.00    -0.355 A  
HETATM   20  C   UNL     1     -10.544  18.466  67.618  1.00  0.00    -0.437 A  
HETATM   21  C   UNL     1      -9.291  19.060  67.707  1.00  0.00    -0.302 A  
HETATM   22  C   UNL     1      -8.188  18.323  68.140  1.00  0.00    -0.295 A  
HETATM   23 CL   UNL     1      -9.103  20.712  67.263  1.00  0.00    -0.467 Cl 
HETATM   24  C   UNL     1      -8.333  16.961  68.444  1.00  0.00    -0.238 A  
ENDBRANCH  13  18
ENDBRANCH   2   4
TORSDOF 2
ENDMDL
MODEL       25
REMARK 921   NORMALIZED FREE ENERGY PREDICTED BY IDOCK:   -5.42 KCAL/MOL
REMARK 922        TOTAL FREE ENERGY PREDICTED BY IDOCK:   -6.26 KCAL/MOL
REMARK 923 INTER-LIGAND FREE ENERGY PREDICTED BY IDOCK:   -5.99 KCAL/MOL
REMARK 924 INTRA-LIGAND FREE ENERGY PREDICTED BY IDOCK:   -0.28 KCAL/MOL
REMARK 927      BINDING AFFINITY PREDICTED BY RF-SCORE:    0.00 PKD
ROOT
HETATM    1  C   UNL     1     -13.487   9.121  72.375  1.00  0.00    -0.535 C  
HETATM    2  C   UNL     1     -12.227   8.361  71.978  1.00  0.00    -0.362 C  
HETATM    3  C   UNL     1     -12.595   7.050  71.282  1.00  0.00    -0.418 C  
ENDROOT
BRANCH   2   4
HETATM    4  N   UNL     1     -11.414   9.168  71.085  1.00  0.00    -0.293 NA 
HETATM    5  C   UNL     1     -10.061   9.210  71.012  1.00  0.00    -0.303 C  
HETATM    6  H   UNL     1     -11.920   9.772  70.438  1.00  0.00     0.000 HD 
HETATM    7  N   UNL     1      -9.259   8.962  71.988  1.00  0.00    -0.386 NA 
HETATM    8  N   UNL     1      -9.553   9.554  69.793  1.00  0.00    -0.201 NA 
HETATM    9  H1  UNL     1      -8.240   8.993  71.932  1.00  0.00     0.000 HD 
HETATM   10  H2  UNL     1      -9.674   8.713  72.886  1.00  0.00     0.000 HD 
HETATM   11  C   UNL     1     -10.071   9.520  68.532  1.00  0.00    -0.178 C  
HETATM   12  H   UNL     1      -8.596   9.907  69.833  1.00  0.00     0.000 HD 
HETATM   13  N   UNL     1      -9.414  10.296  67.609  1.00  0.00    -0.151 NA 
HETATM   14  N   UNL     1     -11.134   8.830  68.235  1.00  0.00    -0.409 NA 
HETATM   15  H1  UNL     1     -11.522   8.805  67.292  1.00  0.00     0.000 HD 
HETATM   16  H2  UNL     1     -11.597   8.297  68.971  1.00  0.00     0.000 HD 
HETATM   17  H   UNL     1      -8.405  10.426  67.674  1.00  0.00     0.000 HD 
BRANCH  13  18
HETATM   18  C   UNL     1     -10.147  10.918  66.565  1.00  0.00    -0.222 A  
HETATM   19  C   UNL     1     -10.031  10.478  65.236  1.00  0.00    -0.364 A  
HETATM   20  C   UNL     1     -10.696  11.135  64.201  1.00  0.00    -0.415 A  
HETATM   21  C   UNL     1     -11.515  12.218  64.495  1.00  0.00    -0.341 A  
HETATM   22  C   UNL     1     -11.710  12.618  65.819  1.00  0.00    -0.466 A  
HETATM   23 CL   UNL     1     -12.276  13.079  63.214  1.00  0.00    -0.589 Cl 
HETATM   24  C   UNL     1     -11.041  11.953  66.856  1.00  0.00    -0.356 A  
ENDBRANCH  13  18
ENDBRANCH   2   4
TORSDOF 2
ENDMDL
MODEL       26
REMARK 921   NORMALIZED FREE ENERGY PREDICTED BY IDOCK:   -5.41 KCAL/MOL
REMARK 922        TOTAL FREE ENERGY PREDICTED BY IDOCK:   -6.25 KCAL/MOL
REMARK 923 INTER-LIGAND FREE ENERGY PREDICTED BY IDOCK:   -6.01 KCAL/MOL
REMARK 924 INTRA-LIGAND FREE ENERGY PREDICTED BY IDOCK:   -0.24 KCAL/MOL
REMARK 927      BINDING AFFINITY PREDICTED BY RF-SCORE:    0.00 PKD
ROOT
HETATM    1  C   UNL     1     -12.502  15.364  73.842  1.00  0.00    -0.763 C  
HETATM    2  C   UNL     1     -13.334  14.589  72.827  1.00  0.00    -0.507 C  
HETATM    3  C   UNL     1     -14.391  15.500  72.200  1.00  0.00    -0.598 C  
ENDROOT
BRANCH   2   4
HETATM    4  N   UNL     1     -12.481  14.053  71.781  1.00  0.00    -0.285 NA 
HETATM    5  C   UNL     1     -12.644  12.896  71.093  1.00  0.00    -0.281 C  
HETATM    6  H   UNL     1     -11.663  14.612  71.536  1.00  0.00     0.000 HD 
HETATM    7  N   UNL     1     -13.248  11.850  71.538  1.00  0.00    -0.291 NA 
HETATM    8  N   UNL     1     -12.104  12.881  69.840  1.00  0.00    -0.296 NA 
HETATM    9  H1  UNL     1     -13.371  10.979  71.020  1.00  0.00     0.000 HD 
HETATM   10  H2  UNL     1     -13.634  11.895  72.481  1.00  0.00     0.000 HD 
HETATM   11  C   UNL     1     -11.748  13.873  68.975  1.00  0.00    -0.338 C  
HETATM   12  H   UNL     1     -11.933  11.942  69.479  1.00  0.00     0.000 HD 
HETATM   13  N   UNL     1     -10.890  13.493  67.972  1.00  0.00    -0.244 NA 
HETATM   14  N   UNL     1     -12.162  15.099  69.113  1.00  0.00    -0.574 NA 
HETATM   15  H1  UNL     1     -11.895  15.841  68.466  1.00  0.00     0.000 HD 
HETATM   16  H2  UNL     1     -12.774  15.326  69.897  1.00  0.00     0.000 HD 
HETATM   17  H   UNL     1     -10.948  12.555  67.577  1.00  0.00     0.000 HD 
BRANCH  13  18
HETATM   18  C   UNL     1      -9.924  14.413  67.488  1.00  0.00    -0.224 A  
HETATM   19  C   UNL     1      -8.645  14.490  68.062  1.00  0.00    -0.162 A  
HETATM   20  C   UNL     1      -7.721  15.443  67.633  1.00  0.00    -0.180 A  
HETATM   21  C   UNL     1      -8.060  16.304  66.597  1.00  0.00    -0.288 A  
HETATM   22  C   UNL     1      -9.295  16.188  65.958  1.00  0.00    -0.368 A  
HETATM   23 CL   UNL     1      -6.953  17.531  66.118  1.00  0.00    -0.322 Cl 
HETATM   24  C   UNL     1     -10.220  15.227  66.390  1.00  0.00    -0.287 A  
ENDBRANCH  13  18
ENDBRANCH   2   4
TORSDOF 2
ENDMDL
MODEL       27
REMARK 921   NORMALIZED FREE ENERGY PREDICTED BY IDOCK:   -5.34 KCAL/MOL
REMARK 922        TOTAL FREE ENERGY PREDICTED BY IDOCK:   -6.18 KCAL/MOL
REMARK 923 INTER-LIGAND FREE ENERGY PREDICTED BY IDOCK:   -6.55 KCAL/MOL
REMARK 924 INTRA-LIGAND FREE ENERGY PREDICTED BY IDOCK:    0.38 KCAL/MOL
REMARK 927      BINDING AFFINITY PREDICTED BY RF-SCORE:    0.00 PKD
ROOT
HETATM    1  C   UNL     1     -10.927   6.093  68.840  1.00  0.00    -0.424 C  
HETATM    2  C   UNL     1     -11.462   6.020  70.264  1.00  0.00    -0.175 C  
HETATM    3  C   UNL     1     -10.306   5.936  71.262  1.00  0.00    -0.276 C  
ENDROOT
BRANCH   2   4
HETATM    4  N   UNL     1     -12.267   7.192  70.560  1.00  0.00    -0.593 NA 
HETATM    5  C   UNL     1     -13.158   7.349  71.571  1.00  0.00    -0.374 C  
HETATM    6  H   UNL     1     -12.148   7.989  69.935  1.00  0.00     0.000 HD 
HETATM    7  N   UNL     1     -13.819   6.396  72.129  1.00  0.00    -0.319 NA 
HETATM    8  N   UNL     1     -13.343   8.634  71.991  1.00  0.00    -0.368 NA 
HETATM    9  H1  UNL     1     -14.489   6.515  72.889  1.00  0.00     0.000 HD 
HETATM   10  H2  UNL     1     -13.659   5.449  71.785  1.00  0.00     0.000 HD 
HETATM   11  C   UNL     1     -12.583   9.761  71.881  1.00  0.00    -0.391 C  
HETATM   12  H   UNL     1     -14.223   8.781  72.484  1.00  0.00     0.000 HD 
HETATM   13  N   UNL     1     -13.256  10.941  72.083  1.00  0.00    -0.586 NA 
HETATM   14  N   UNL     1     -11.320   9.721  71.569  1.00  0.00    -0.345 NA 
HETATM   15  H1  UNL     1     -10.752  10.565  71.487  1.00  0.00     0.000 HD 
HETATM   16  H2  UNL     1     -10.883   8.815  71.400  1.00  0.00     0.000 HD 
HETATM   17  H   UNL     1     -14.025  10.984  72.751  1.00  0.00     0.000 HD 
BRANCH  13  18
HETATM   18  C   UNL     1     -12.875  12.100  71.358  1.00  0.00    -0.276 A  
HETATM   19  C   UNL     1     -13.175  13.385  71.837  1.00  0.00    -0.522 A  
HETATM   20  C   UNL     1     -12.864  14.521  71.089  1.00  0.00    -0.408 A  
HETATM   21  C   UNL     1     -12.215  14.379  69.870  1.00  0.00    -0.340 A  
HETATM   22  C   UNL     1     -11.833  13.115  69.416  1.00  0.00    -0.383 A  
HETATM   23 CL   UNL     1     -11.899  15.771  68.909  1.00  0.00    -0.398 Cl 
HETATM   24  C   UNL     1     -12.146  11.976  70.172  1.00  0.00    -0.377 A  
ENDBRANCH  13  18
ENDBRANCH   2   4
TORSDOF 2
ENDMDL
MODEL       28
REMARK 921   NORMALIZED FREE ENERGY PREDICTED BY IDOCK:   -5.32 KCAL/MOL
REMARK 922        TOTAL FREE ENERGY PREDICTED BY IDOCK:   -6.15 KCAL/MOL
REMARK 923 INTER-LIGAND FREE ENERGY PREDICTED BY IDOCK:   -6.13 KCAL/MOL
REMARK 924 INTRA-LIGAND FREE ENERGY PREDICTED BY IDOCK:   -0.02 KCAL/MOL
REMARK 927      BINDING AFFINITY PREDICTED BY RF-SCORE:    0.00 PKD
ROOT
HETATM    1  C   UNL     1     -11.932  10.372  71.391  1.00  0.00    -0.379 C  
HETATM    2  C   UNL     1     -12.653  11.546  70.741  1.00  0.00    -0.298 C  
HETATM    3  C   UNL     1     -12.963  12.622  71.785  1.00  0.00    -0.417 C  
ENDROOT
BRANCH   2   4
HETATM    4  N   UNL     1     -11.833  12.120  69.690  1.00  0.00    -0.322 NA 
HETATM    5  C   UNL     1     -11.643  11.641  68.435  1.00  0.00    -0.312 C  
HETATM    6  H   UNL     1     -11.343  12.985  69.921  1.00  0.00     0.000 HD 
HETATM    7  N   UNL     1     -11.720  10.401  68.098  1.00  0.00    -0.743 NA 
HETATM    8  N   UNL     1     -11.340  12.579  67.492  1.00  0.00    -0.291 NA 
HETATM    9  H1  UNL     1     -11.576  10.041  67.154  1.00  0.00     0.000 HD 
HETATM   10  H2  UNL     1     -11.941   9.727  68.831  1.00  0.00     0.000 HD 
HETATM   11  C   UNL     1     -11.533  13.928  67.434  1.00  0.00    -0.348 C  
HETATM   12  H   UNL     1     -10.878  12.196  66.667  1.00  0.00     0.000 HD 
HETATM   13  N   UNL     1     -10.762  14.589  66.509  1.00  0.00    -0.307 NA 
HETATM   14  N   UNL     1     -12.361  14.547  68.224  1.00  0.00    -0.595 NA 
HETATM   15  H1  UNL     1     -12.505  15.556  68.181  1.00  0.00     0.000 HD 
HETATM   16  H2  UNL     1     -12.883  14.005  68.912  1.00  0.00     0.000 HD 
HETATM   17  H   UNL     1     -10.514  14.135  65.631  1.00  0.00     0.000 HD 
BRANCH  13  18
HETATM   18  C   UNL     1     -10.313  15.907  66.782  1.00  0.00    -0.298 A  
HETATM   19  C   UNL     1      -9.535  16.188  67.917  1.00  0.00    -0.214 A  
HETATM   20  C   UNL     1      -9.155  17.494  68.223  1.00  0.00    -0.274 A  
HETATM   21  C   UNL     1      -9.522  18.528  67.371  1.00  0.00    -0.283 A  
HETATM   22  C   UNL     1     -10.223  18.260  66.195  1.00  0.00    -0.393 A  
HETATM   23 CL   UNL     1      -9.121  20.150  67.785  1.00  0.00    -0.419 Cl 
HETATM   24  C   UNL     1     -10.601  16.944  65.890  1.00  0.00    -0.239 A  
ENDBRANCH  13  18
ENDBRANCH   2   4
TORSDOF 2
ENDMDL
MODEL       29
REMARK 921   NORMALIZED FREE ENERGY PREDICTED BY IDOCK:   -5.23 KCAL/MOL
REMARK 922        TOTAL FREE ENERGY PREDICTED BY IDOCK:   -6.05 KCAL/MOL
REMARK 923 INTER-LIGAND FREE ENERGY PREDICTED BY IDOCK:   -6.21 KCAL/MOL
REMARK 924 INTRA-LIGAND FREE ENERGY PREDICTED BY IDOCK:    0.15 KCAL/MOL
REMARK 927      BINDING AFFINITY PREDICTED BY RF-SCORE:    0.00 PKD
ROOT
HETATM    1  C   UNL     1     -12.898  14.064  65.270  1.00  0.00    -0.418 C  
HETATM    2  C   UNL     1     -12.641  12.608  64.902  1.00  0.00    -0.450 C  
HETATM    3  C   UNL     1     -12.075  12.512  63.484  1.00  0.00    -0.653 C  
ENDROOT
BRANCH   2   4
HETATM    4  N   UNL     1     -11.702  12.012  65.835  1.00  0.00    -0.473 NA 
HETATM    5  C   UNL     1     -10.557  12.557  66.317  1.00  0.00    -0.248 C  
HETATM    6  H   UNL     1     -11.929  11.074  66.166  1.00  0.00     0.000 HD 
HETATM    7  N   UNL     1      -9.840  13.433  65.705  1.00  0.00    -0.454 NA 
HETATM    8  N   UNL     1     -10.169  12.107  67.545  1.00  0.00    -0.197 NA 
HETATM    9  H1  UNL     1      -8.979  13.843  66.068  1.00  0.00     0.000 HD 
HETATM   10  H2  UNL     1     -10.157  13.742  64.785  1.00  0.00     0.000 HD 
HETATM   11  C   UNL     1     -10.844  11.503  68.564  1.00  0.00    -0.215 C  
HETATM   12  H   UNL     1      -9.178  12.251  67.740  1.00  0.00     0.000 HD 
HETATM   13  N   UNL     1     -10.056  10.852  69.482  1.00  0.00    -0.437 NA 
HETATM   14  N   UNL     1     -12.143  11.511  68.640  1.00  0.00    -0.505 NA 
HETATM   15  H1  UNL     1     -12.648  11.058  69.402  1.00  0.00     0.000 HD 
HETATM   16  H2  UNL     1     -12.676  11.985  67.911  1.00  0.00     0.000 HD 
HETATM   17  H   UNL     1      -9.131  11.214  69.712  1.00  0.00     0.000 HD 
BRANCH  13  18
HETATM   18  C   UNL     1     -10.536   9.672  70.109  1.00  0.00    -0.273 A  
HETATM   19  C   UNL     1     -11.083   9.709  71.401  1.00  0.00    -0.397 A  
HETATM   20  C   UNL     1     -11.487   8.539  72.044  1.00  0.00    -0.431 A  
HETATM   21  C   UNL     1     -11.381   7.324  71.380  1.00  0.00    -0.255 A  
HETATM   22  C   UNL     1     -10.918   7.277  70.064  1.00  0.00    -0.273 A  
HETATM   23 CL   UNL     1     -11.807   5.871  72.197  1.00  0.00    -0.306 Cl 
HETATM   24  C   UNL     1     -10.514   8.456  69.421  1.00  0.00    -0.222 A  
ENDBRANCH  13  18
ENDBRANCH   2   4
TORSDOF 2
ENDMDL
MODEL       30
REMARK 921   NORMALIZED FREE ENERGY PREDICTED BY IDOCK:   -5.20 KCAL/MOL
REMARK 922        TOTAL FREE ENERGY PREDICTED BY IDOCK:   -6.01 KCAL/MOL
REMARK 923 INTER-LIGAND FREE ENERGY PREDICTED BY IDOCK:   -5.75 KCAL/MOL
REMARK 924 INTRA-LIGAND FREE ENERGY PREDICTED BY IDOCK:   -0.26 KCAL/MOL
REMARK 927      BINDING AFFINITY PREDICTED BY RF-SCORE:    0.00 PKD
ROOT
HETATM    1  C   UNL     1     -11.023   8.343  72.369  1.00  0.00    -0.425 C  
HETATM    2  C   UNL     1     -11.950   8.713  71.218  1.00  0.00    -0.293 C  
HETATM    3  C   UNL     1     -12.881   9.854  71.631  1.00  0.00    -0.537 C  
ENDROOT
BRANCH   2   4
HETATM    4  N   UNL     1     -11.176   9.121  70.059  1.00  0.00    -0.383 NA 
HETATM    5  C   UNL     1     -10.885   8.383  68.959  1.00  0.00     0.009 C  
HETATM    6  H   UNL     1     -10.808  10.072  70.075  1.00  0.00     0.000 HD 
HETATM    7  N   UNL     1     -10.791   7.100  68.931  1.00  0.00    -0.381 NA 
HETATM    8  N   UNL     1     -10.673   9.099  67.816  1.00  0.00    -0.436 NA 
HETATM    9  H1  UNL     1     -10.572   6.546  68.103  1.00  0.00     0.000 HD 
HETATM   10  H2  UNL     1     -10.949   6.598  69.806  1.00  0.00     0.000 HD 
HETATM   11  C   UNL     1     -11.035  10.357  67.433  1.00  0.00    -0.270 C  
HETATM   12  H   UNL     1     -10.140   8.593  67.109  1.00  0.00     0.000 HD 
HETATM   13  N   UNL     1     -10.325  10.872  66.376  1.00  0.00    -0.245 NA 
HETATM   14  N   UNL     1     -11.961  11.033  68.049  1.00  0.00    -0.761 NA 
HETATM   15  H1  UNL     1     -12.231  11.974  67.762  1.00  0.00     0.000 HD 
HETATM   16  H2  UNL     1     -12.432  10.608  68.847  1.00  0.00     0.000 HD 
HETATM   17  H   UNL     1      -9.992  10.257  65.634  1.00  0.00     0.000 HD 
BRANCH  13  18
HETATM   18  C   UNL     1     -10.058  12.265  66.322  1.00  0.00    -0.234 A  
HETATM   19  C   UNL     1     -10.716  13.095  65.401  1.00  0.00    -0.308 A  
HETATM   20  C   UNL     1     -10.400  14.450  65.300  1.00  0.00    -0.427 A  
HETATM   21  C   UNL     1      -9.445  14.992  66.150  1.00  0.00    -0.313 A  
HETATM   22  C   UNL     1      -8.840  14.203  67.129  1.00  0.00    -0.241 A  
HETATM   23 CL   UNL     1      -8.997  16.645  65.978  1.00  0.00    -0.304 Cl 
HETATM   24  C   UNL     1      -9.163  12.841  67.228  1.00  0.00    -0.203 A  
ENDBRANCH  13  18
ENDBRANCH   2   4
TORSDOF 2
ENDMDL
MODEL       31
REMARK 921   NORMALIZED FREE ENERGY PREDICTED BY IDOCK:   -5.19 KCAL/MOL
REMARK 922        TOTAL FREE ENERGY PREDICTED BY IDOCK:   -6.00 KCAL/MOL
REMARK 923 INTER-LIGAND FREE ENERGY PREDICTED BY IDOCK:   -5.75 KCAL/MOL
REMARK 924 INTRA-LIGAND FREE ENERGY PREDICTED BY IDOCK:   -0.25 KCAL/MOL
REMARK 927      BINDING AFFINITY PREDICTED BY RF-SCORE:    0.00 PKD
ROOT
HETATM    1  C   UNL     1     -10.882   9.316  71.572  1.00  0.00    -0.442 C  
HETATM    2  C   UNL     1     -11.870   9.935  70.591  1.00  0.00    -0.303 C  
HETATM    3  C   UNL     1     -12.640  11.074  71.261  1.00  0.00    -0.517 C  
ENDROOT
BRANCH   2   4
HETATM    4  N   UNL     1     -11.168  10.449  69.428  1.00  0.00    -0.246 NA 
HETATM    5  C   UNL     1     -10.908   9.799  68.266  1.00  0.00    -0.210 C  
HETATM    6  H   UNL     1     -10.832  11.410  69.493  1.00  0.00     0.000 HD 
HETATM    7  N   UNL     1     -10.774   8.525  68.145  1.00  0.00    -0.439 NA 
HETATM    8  N   UNL     1     -10.778  10.598  67.168  1.00  0.00    -0.268 NA 
HETATM    9  H1  UNL     1     -10.578   8.037  67.271  1.00  0.00     0.000 HD 
HETATM   10  H2  UNL     1     -10.871   7.960  68.989  1.00  0.00     0.000 HD 
HETATM   11  C   UNL     1     -11.201  11.865  66.891  1.00  0.00    -0.325 C  
HETATM   12  H   UNL     1     -10.264  10.162  66.402  1.00  0.00     0.000 HD 
HETATM   13  N   UNL     1     -10.562  12.477  65.840  1.00  0.00    -0.259 NA 
HETATM   14  N   UNL     1     -12.116  12.464  67.596  1.00  0.00    -0.449 NA 
HETATM   15  H1  UNL     1     -12.432  13.411  67.389  1.00  0.00     0.000 HD 
HETATM   16  H2  UNL     1     -12.533  11.968  68.384  1.00  0.00     0.000 HD 
HETATM   17  H   UNL     1     -10.246  11.927  65.042  1.00  0.00     0.000 HD 
BRANCH  13  18
HETATM   18  C   UNL     1     -10.344  13.879  65.871  1.00  0.00    -0.311 A  
HETATM   19  C   UNL     1      -9.386  14.445  66.726  1.00  0.00    -0.285 A  
HETATM   20  C   UNL     1      -9.223  15.828  66.808  1.00  0.00    -0.268 A  
HETATM   21  C   UNL     1      -9.995  16.655  66.003  1.00  0.00    -0.324 A  
HETATM   22  C   UNL     1     -10.894  16.108  65.086  1.00  0.00    -0.376 A  
HETATM   23 CL   UNL     1      -9.852  18.363  66.156  1.00  0.00    -0.315 Cl 
HETATM   24  C   UNL     1     -11.053  14.717  65.005  1.00  0.00    -0.412 A  
ENDBRANCH  13  18
ENDBRANCH   2   4
TORSDOF 2
ENDMDL
MODEL       32
REMARK 921   NORMALIZED FREE ENERGY PREDICTED BY IDOCK:   -5.17 KCAL/MOL
REMARK 922        TOTAL FREE ENERGY PREDICTED BY IDOCK:   -5.98 KCAL/MOL
REMARK 923 INTER-LIGAND FREE ENERGY PREDICTED BY IDOCK:   -5.70 KCAL/MOL
REMARK 924 INTRA-LIGAND FREE ENERGY PREDICTED BY IDOCK:   -0.28 KCAL/MOL
REMARK 927      BINDING AFFINITY PREDICTED BY RF-SCORE:    0.00 PKD
ROOT
HETATM    1  C   UNL     1     -10.988  10.355  68.728  1.00  0.00    -0.287 C  
HETATM    2  C   UNL     1     -11.899  11.575  68.767  1.00  0.00    -0.330 C  
HETATM    3  C   UNL     1     -12.124  12.025  70.211  1.00  0.00    -0.395 C  
ENDROOT
BRANCH   2   4
HETATM    4  N   UNL     1     -11.312  12.667  68.010  1.00  0.00    -0.269 NA 
HETATM    5  C   UNL     1     -11.719  13.155  66.813  1.00  0.00    -0.385 C  
HETATM    6  H   UNL     1     -10.498  13.118  68.429  1.00  0.00     0.000 HD 
HETATM    7  N   UNL     1     -12.339  12.480  65.910  1.00  0.00    -0.603 NA 
HETATM    8  N   UNL     1     -11.420  14.467  66.585  1.00  0.00    -0.357 NA 
HETATM    9  H1  UNL     1     -12.646  12.848  65.009  1.00  0.00     0.000 HD 
HETATM   10  H2  UNL     1     -12.540  11.500  66.112  1.00  0.00     0.000 HD 
HETATM   11  C   UNL     1     -11.124  15.506  67.419  1.00  0.00    -0.285 C  
HETATM   12  H   UNL     1     -11.417  14.722  65.598  1.00  0.00     0.000 HD 
HETATM   13  N   UNL     1     -10.508  16.578  66.820  1.00  0.00    -0.292 NA 
HETATM   14  N   UNL     1     -11.374  15.467  68.695  1.00  0.00    -0.324 NA 
HETATM   15  H1  UNL     1     -11.153  16.244  69.319  1.00  0.00     0.000 HD 
HETATM   16  H2  UNL     1     -11.806  14.630  69.087  1.00  0.00     0.000 HD 
HETATM   17  H   UNL     1     -10.735  16.827  65.858  1.00  0.00     0.000 HD 
BRANCH  13  18
HETATM   18  C   UNL     1      -9.554  17.336  67.548  1.00  0.00    -0.259 A  
HETATM   19  C   UNL     1      -9.866  18.612  68.042  1.00  0.00    -0.378 A  
HETATM   20  C   UNL     1      -8.906  19.385  68.694  1.00  0.00    -0.417 A  
HETATM   21  C   UNL     1      -7.632  18.868  68.889  1.00  0.00    -0.302 A  
HETATM   22  C   UNL     1      -7.326  17.569  68.480  1.00  0.00    -0.243 A  
HETATM   23 CL   UNL     1      -6.422  19.847  69.624  1.00  0.00    -0.386 Cl 
HETATM   24  C   UNL     1      -8.295  16.794  67.827  1.00  0.00    -0.193 A  
ENDBRANCH  13  18
ENDBRANCH   2   4
TORSDOF 2
ENDMDL
MODEL       33
REMARK 921   NORMALIZED FREE ENERGY PREDICTED BY IDOCK:   -5.16 KCAL/MOL
REMARK 922        TOTAL FREE ENERGY PREDICTED BY IDOCK:   -5.97 KCAL/MOL
REMARK 923 INTER-LIGAND FREE ENERGY PREDICTED BY IDOCK:   -5.72 KCAL/MOL
REMARK 924 INTRA-LIGAND FREE ENERGY PREDICTED BY IDOCK:   -0.25 KCAL/MOL
REMARK 927      BINDING AFFINITY PREDICTED BY RF-SCORE:    0.00 PKD
ROOT
HETATM    1  C   UNL     1      -7.364  20.596  66.903  1.00  0.00    -0.339 C  
HETATM    2  C   UNL     1      -8.528  19.951  67.645  1.00  0.00    -0.326 C  
HETATM    3  C   UNL     1      -9.859  20.416  67.052  1.00  0.00    -0.594 C  
ENDROOT
BRANCH   2   4
HETATM    4  N   UNL     1      -8.442  18.504  67.555  1.00  0.00    -0.259 NA 
HETATM    5  C   UNL     1      -7.917  17.649  68.467  1.00  0.00    -0.283 C  
HETATM    6  H   UNL     1      -8.820  18.082  66.706  1.00  0.00     0.000 HD 
HETATM    7  N   UNL     1      -6.986  17.942  69.306  1.00  0.00    -0.198 NA 
HETATM    8  N   UNL     1      -8.440  16.389  68.455  1.00  0.00    -0.195 NA 
HETATM    9  H1  UNL     1      -6.591  17.299  69.993  1.00  0.00     0.000 HD 
HETATM   10  H2  UNL     1      -6.614  18.892  69.283  1.00  0.00     0.000 HD 
HETATM   11  C   UNL     1      -9.615  15.880  67.984  1.00  0.00    -0.211 C  
HETATM   12  H   UNL     1      -7.833  15.689  68.881  1.00  0.00     0.000 HD 
HETATM   13  N   UNL     1      -9.631  14.519  67.802  1.00  0.00    -0.212 NA 
HETATM   14  N   UNL     1     -10.634  16.636  67.693  1.00  0.00    -0.324 NA 
HETATM   15  H1  UNL     1     -11.512  16.255  67.341  1.00  0.00     0.000 HD 
HETATM   16  H2  UNL     1     -10.551  17.644  67.821  1.00  0.00     0.000 HD 
HETATM   17  H   UNL     1      -9.099  13.912  68.426  1.00  0.00     0.000 HD 
BRANCH  13  18
HETATM   18  C   UNL     1     -10.391  13.961  66.741  1.00  0.00    -0.272 A  
HETATM   19  C   UNL     1     -11.578  13.255  66.993  1.00  0.00    -0.404 A  
HETATM   20  C   UNL     1     -12.285  12.646  65.957  1.00  0.00    -0.329 A  
HETATM   21  C   UNL     1     -11.826  12.771  64.652  1.00  0.00    -0.374 A  
HETATM   22  C   UNL     1     -10.695  13.538  64.371  1.00  0.00    -0.402 A  
HETATM   23 CL   UNL     1     -12.653  11.957  63.381  1.00  0.00    -0.674 Cl 
HETATM   24  C   UNL     1      -9.988  14.151  65.416  1.00  0.00    -0.321 A  
ENDBRANCH  13  18
ENDBRANCH   2   4
TORSDOF 2
ENDMDL
MODEL       34
REMARK 921   NORMALIZED FREE ENERGY PREDICTED BY IDOCK:   -5.15 KCAL/MOL
REMARK 922        TOTAL FREE ENERGY PREDICTED BY IDOCK:   -5.97 KCAL/MOL
REMARK 923 INTER-LIGAND FREE ENERGY PREDICTED BY IDOCK:   -5.69 KCAL/MOL
REMARK 924 INTRA-LIGAND FREE ENERGY PREDICTED BY IDOCK:   -0.28 KCAL/MOL
REMARK 927      BINDING AFFINITY PREDICTED BY RF-SCORE:    0.00 PKD
ROOT
HETATM    1  C   UNL     1      -6.620  19.120  68.239  1.00  0.00    -0.269 C  
HETATM    2  C   UNL     1      -7.748  19.160  67.215  1.00  0.00    -0.234 C  
HETATM    3  C   UNL     1      -7.177  19.164  65.796  1.00  0.00    -0.277 C  
ENDROOT
BRANCH   2   4
HETATM    4  N   UNL     1      -8.617  18.009  67.379  1.00  0.00    -0.241 NA 
HETATM    5  C   UNL     1      -9.807  17.957  68.029  1.00  0.00    -0.320 C  
HETATM    6  H   UNL     1      -8.296  17.137  66.957  1.00  0.00     0.000 HD 
HETATM    7  N   UNL     1     -10.148  18.719  69.009  1.00  0.00    -0.487 NA 
HETATM    8  N   UNL     1     -10.675  17.004  67.583  1.00  0.00    -0.328 NA 
HETATM    9  H1  UNL     1     -11.043  18.680  69.498  1.00  0.00     0.000 HD 
HETATM   10  H2  UNL     1      -9.471  19.416  69.320  1.00  0.00     0.000 HD 
HETATM   11  C   UNL     1     -10.775  16.324  66.405  1.00  0.00    -0.182 C  
HETATM   12  H   UNL     1     -11.389  16.749  68.264  1.00  0.00     0.000 HD 
HETATM   13  N   UNL     1     -11.530  15.177  66.455  1.00  0.00    -0.231 NA 
HETATM   14  N   UNL     1     -10.168  16.713  65.322  1.00  0.00    -0.605 NA 
HETATM   15  H1  UNL     1     -10.243  16.205  64.441  1.00  0.00     0.000 HD 
HETATM   16  H2  UNL     1      -9.596  17.557  65.355  1.00  0.00     0.000 HD 
HETATM   17  H   UNL     1     -12.340  15.124  67.072  1.00  0.00     0.000 HD 
BRANCH  13  18
HETATM   18  C   UNL     1     -11.178  14.068  65.642  1.00  0.00    -0.310 A  
HETATM   19  C   UNL     1     -10.188  13.159  66.047  1.00  0.00    -0.287 A  
HETATM   20  C   UNL     1      -9.792  12.110  65.216  1.00  0.00    -0.216 A  
HETATM   21  C   UNL     1     -10.413  11.943  63.986  1.00  0.00    -0.373 A  
HETATM   22  C   UNL     1     -11.458  12.786  63.601  1.00  0.00    -0.544 A  
HETATM   23 CL   UNL     1      -9.876  10.699  62.926  1.00  0.00    -0.327 Cl 
HETATM   24  C   UNL     1     -11.854  13.837  64.441  1.00  0.00    -0.458 A  
ENDBRANCH  13  18
ENDBRANCH   2   4
TORSDOF 2
ENDMDL
MODEL       35
REMARK 921   NORMALIZED FREE ENERGY PREDICTED BY IDOCK:   -5.14 KCAL/MOL
REMARK 922        TOTAL FREE ENERGY PREDICTED BY IDOCK:   -5.95 KCAL/MOL
REMARK 923 INTER-LIGAND FREE ENERGY PREDICTED BY IDOCK:   -5.74 KCAL/MOL
REMARK 924 INTRA-LIGAND FREE ENERGY PREDICTED BY IDOCK:   -0.21 KCAL/MOL
REMARK 927      BINDING AFFINITY PREDICTED BY RF-SCORE:    0.00 PKD
ROOT
HETATM    1  C   UNL     1      -8.832  19.705  67.875  1.00  0.00    -0.379 C  
HETATM    2  C   UNL     1      -8.435  18.321  67.375  1.00  0.00    -0.249 C  
HETATM    3  C   UNL     1      -7.363  17.716  68.282  1.00  0.00    -0.234 C  
ENDROOT
BRANCH   2   4
HETATM    4  N   UNL     1      -9.592  17.444  67.349  1.00  0.00    -0.253 NA 
HETATM    5  C   UNL     1     -10.405  17.180  66.296  1.00  0.00    -0.313 C  
HETATM    6  H   UNL     1      -9.820  16.972  68.224  1.00  0.00     0.000 HD 
HETATM    7  N   UNL     1     -10.628  17.981  65.313  1.00  0.00    -0.513 NA 
HETATM    8  N   UNL     1     -11.021  15.963  66.325  1.00  0.00    -0.186 NA 
HETATM    9  H1  UNL     1     -11.239  17.782  64.521  1.00  0.00     0.000 HD 
HETATM   10  H2  UNL     1     -10.155  18.885  65.328  1.00  0.00     0.000 HD 
HETATM   11  C   UNL     1     -10.739  14.800  66.980  1.00  0.00    -0.300 C  
HETATM   12  H   UNL     1     -11.856  15.912  65.743  1.00  0.00     0.000 HD 
HETATM   13  N   UNL     1     -11.784  13.912  67.070  1.00  0.00    -0.374 NA 
HETATM   14  N   UNL     1      -9.576  14.565  67.514  1.00  0.00    -0.208 NA 
HETATM   15  H1  UNL     1      -9.365  13.696  68.004  1.00  0.00     0.000 HD 
HETATM   16  H2  UNL     1      -8.849  15.277  67.441  1.00  0.00     0.000 HD 
HETATM   17  H   UNL     1     -12.466  13.846  66.315  1.00  0.00     0.000 HD 
BRANCH  13  18
HETATM   18  C   UNL     1     -11.909  13.088  68.218  1.00  0.00    -0.343 A  
HETATM   19  C   UNL     1     -11.760  11.694  68.130  1.00  0.00    -0.365 A  
HETATM   20  C   UNL     1     -11.954  10.879  69.245  1.00  0.00    -0.382 A  
HETATM   21  C   UNL     1     -12.263  11.459  70.468  1.00  0.00    -0.386 A  
HETATM   22  C   UNL     1     -12.333  12.847  70.595  1.00  0.00    -0.385 A  
HETATM   23 CL   UNL     1     -12.579  10.453  71.828  1.00  0.00    -0.502 Cl 
HETATM   24  C   UNL     1     -12.134  13.663  69.472  1.00  0.00    -0.368 A  
ENDBRANCH  13  18
ENDBRANCH   2   4
TORSDOF 2
ENDMDL
MODEL       36
REMARK 921   NORMALIZED FREE ENERGY PREDICTED BY IDOCK:   -5.13 KCAL/MOL
REMARK 922        TOTAL FREE ENERGY PREDICTED BY IDOCK:   -5.94 KCAL/MOL
REMARK 923 INTER-LIGAND FREE ENERGY PREDICTED BY IDOCK:   -5.68 KCAL/MOL
REMARK 924 INTRA-LIGAND FREE ENERGY PREDICTED BY IDOCK:   -0.27 KCAL/MOL
REMARK 927      BINDING AFFINITY PREDICTED BY RF-SCORE:    0.00 PKD
ROOT
HETATM    1  C   UNL     1      -7.315   6.430  69.409  1.00  0.00    -0.092 C  
HETATM    2  C   UNL     1      -8.222   6.629  70.617  1.00  0.00    -0.124 C  
HETATM    3  C   UNL     1      -7.480   7.387  71.720  1.00  0.00    -0.083 C  
ENDROOT
BRANCH   2   4
HETATM    4  N   UNL     1      -9.408   7.375  70.238  1.00  0.00    -0.162 NA 
HETATM    5  C   UNL     1     -10.636   6.881  69.943  1.00  0.00    -0.228 C  
HETATM    6  H   UNL     1      -9.306   8.389  70.187  1.00  0.00     0.000 HD 
HETATM    7  N   UNL     1     -10.866   5.709  69.463  1.00  0.00    -0.321 NA 
HETATM    8  N   UNL     1     -11.679   7.728  70.180  1.00  0.00    -0.474 NA 
HETATM    9  H1  UNL     1     -11.790   5.337  69.241  1.00  0.00     0.000 HD 
HETATM   10  H2  UNL     1     -10.062   5.105  69.292  1.00  0.00     0.000 HD 
HETATM   11  C   UNL     1     -11.816   8.825  70.979  1.00  0.00    -0.271 C  
HETATM   12  H   UNL     1     -12.524   7.495  69.658  1.00  0.00     0.000 HD 
HETATM   13  N   UNL     1     -12.877   9.641  70.674  1.00  0.00    -0.538 NA 
HETATM   14  N   UNL     1     -10.978   9.097  71.937  1.00  0.00    -0.359 NA 
HETATM   15  H1  UNL     1     -11.079   9.918  72.534  1.00  0.00     0.000 HD 
HETATM   16  H2  UNL     1     -10.190   8.468  72.096  1.00  0.00     0.000 HD 
HETATM   17  H   UNL     1     -13.742   9.242  70.311  1.00  0.00     0.000 HD 
BRANCH  13  18
HETATM   18  C   UNL     1     -12.763  11.043  70.866  1.00  0.00    -0.358 A  
HETATM   19  C   UNL     1     -13.341  11.671  71.980  1.00  0.00    -0.405 A  
HETATM   20  C   UNL     1     -13.290  13.057  72.131  1.00  0.00    -0.622 A  
HETATM   21  C   UNL     1     -12.626  13.822  71.181  1.00  0.00    -0.373 A  
HETATM   22  C   UNL     1     -11.973  13.209  70.110  1.00  0.00    -0.381 A  
HETATM   23 CL   UNL     1     -12.627  15.537  71.322  1.00  0.00    -0.466 Cl 
HETATM   24  C   UNL     1     -12.025  11.815  69.965  1.00  0.00    -0.421 A  
ENDBRANCH  13  18
ENDBRANCH   2   4
TORSDOF 2
ENDMDL
MODEL       37
REMARK 921   NORMALIZED FREE ENERGY PREDICTED BY IDOCK:   -5.13 KCAL/MOL
REMARK 922        TOTAL FREE ENERGY PREDICTED BY IDOCK:   -5.94 KCAL/MOL
REMARK 923 INTER-LIGAND FREE ENERGY PREDICTED BY IDOCK:   -5.65 KCAL/MOL
REMARK 924 INTRA-LIGAND FREE ENERGY PREDICTED BY IDOCK:   -0.29 KCAL/MOL
REMARK 927      BINDING AFFINITY PREDICTED BY RF-SCORE:    0.00 PKD
ROOT
HETATM    1  C   UNL     1     -12.278  12.890  63.368  1.00  0.00    -0.574 C  
HETATM    2  C   UNL     1     -11.762  12.097  64.563  1.00  0.00    -0.338 C  
HETATM    3  C   UNL     1     -10.465  11.372  64.199  1.00  0.00    -0.421 C  
ENDROOT
BRANCH   2   4
HETATM    4  N   UNL     1     -11.517  12.984  65.686  1.00  0.00    -0.321 NA 
HETATM    5  C   UNL     1     -11.432  12.651  66.998  1.00  0.00    -0.346 C  
HETATM    6  H   UNL     1     -11.395  13.972  65.463  1.00  0.00     0.000 HD 
HETATM    7  N   UNL     1     -12.020  11.646  67.546  1.00  0.00    -0.621 NA 
HETATM    8  N   UNL     1     -10.660  13.477  67.761  1.00  0.00    -0.243 NA 
HETATM    9  H1  UNL     1     -11.956  11.395  68.533  1.00  0.00     0.000 HD 
HETATM   10  H2  UNL     1     -12.595  11.053  66.946  1.00  0.00     0.000 HD 
HETATM   11  C   UNL     1      -9.662  14.355  67.453  1.00  0.00    -0.220 C  
HETATM   12  H   UNL     1     -10.869  13.430  68.758  1.00  0.00     0.000 HD 
HETATM   13  N   UNL     1      -9.382  15.285  68.425  1.00  0.00    -0.190 NA 
HETATM   14  N   UNL     1      -9.048  14.337  66.306  1.00  0.00    -0.494 NA 
HETATM   15  H1  UNL     1      -8.302  14.994  66.076  1.00  0.00     0.000 HD 
HETATM   16  H2  UNL     1      -9.322  13.641  65.612  1.00  0.00     0.000 HD 
HETATM   17  H   UNL     1      -9.472  15.039  69.411  1.00  0.00     0.000 HD 
BRANCH  13  18
HETATM   18  C   UNL     1      -8.965  16.589  68.051  1.00  0.00    -0.204 A  
HETATM   19  C   UNL     1      -7.620  16.978  68.154  1.00  0.00    -0.194 A  
HETATM   20  C   UNL     1      -7.224  18.281  67.854  1.00  0.00    -0.230 A  
HETATM   21  C   UNL     1      -8.169  19.197  67.412  1.00  0.00    -0.276 A  
HETATM   22  C   UNL     1      -9.496  18.807  67.223  1.00  0.00    -0.326 A  
HETATM   23 CL   UNL     1      -7.699  20.825  67.115  1.00  0.00    -0.359 Cl 
HETATM   24  C   UNL     1      -9.890  17.495  67.523  1.00  0.00    -0.293 A  
ENDBRANCH  13  18
ENDBRANCH   2   4
TORSDOF 2
ENDMDL
MODEL       38
REMARK 921   NORMALIZED FREE ENERGY PREDICTED BY IDOCK:   -5.12 KCAL/MOL
REMARK 922        TOTAL FREE ENERGY PREDICTED BY IDOCK:   -5.93 KCAL/MOL
REMARK 923 INTER-LIGAND FREE ENERGY PREDICTED BY IDOCK:   -5.62 KCAL/MOL
REMARK 924 INTRA-LIGAND FREE ENERGY PREDICTED BY IDOCK:   -0.31 KCAL/MOL
REMARK 927      BINDING AFFINITY PREDICTED BY RF-SCORE:    0.00 PKD
ROOT
HETATM    1  C   UNL     1     -10.373   4.927  71.707  1.00  0.00    -0.249 C  
HETATM    2  C   UNL     1     -11.266   5.873  72.500  1.00  0.00    -0.294 C  
HETATM    3  C   UNL     1     -10.449   6.606  73.565  1.00  0.00    -0.335 C  
ENDROOT
BRANCH   2   4
HETATM    4  N   UNL     1     -11.882   6.844  71.614  1.00  0.00    -0.304 NA 
HETATM    5  C   UNL     1     -13.158   7.303  71.649  1.00  0.00    -0.369 C  
HETATM    6  H   UNL     1     -11.285   7.226  70.880  1.00  0.00     0.000 HD 
HETATM    7  N   UNL     1     -14.167   6.648  72.106  1.00  0.00    -0.512 NA 
HETATM    8  N   UNL     1     -13.341   8.557  71.145  1.00  0.00    -0.536 NA 
HETATM    9  H1  UNL     1     -15.127   6.993  72.132  1.00  0.00     0.000 HD 
HETATM   10  H2  UNL     1     -13.993   5.710  72.469  1.00  0.00     0.000 HD 
HETATM   11  C   UNL     1     -12.492   9.605  70.939  1.00  0.00    -0.238 C  
HETATM   12  H   UNL     1     -14.303   8.751  70.866  1.00  0.00     0.000 HD 
HETATM   13  N   UNL     1     -12.947  10.563  70.067  1.00  0.00    -0.451 NA 
HETATM   14  N   UNL     1     -11.319   9.670  71.499  1.00  0.00    -0.380 NA 
HETATM   15  H1  UNL     1     -10.683  10.453  71.344  1.00  0.00     0.000 HD 
HETATM   16  H2  UNL     1     -11.024   8.912  72.114  1.00  0.00     0.000 HD 
HETATM   17  H   UNL     1     -13.942  10.778  70.016  1.00  0.00     0.000 HD 
BRANCH  13  18
HETATM   18  C   UNL     1     -12.025  11.252  69.236  1.00  0.00    -0.342 A  
HETATM   19  C   UNL     1     -11.417  10.614  68.143  1.00  0.00    -0.303 A  
HETATM   20  C   UNL     1     -10.457  11.270  67.371  1.00  0.00    -0.247 A  
HETATM   21  C   UNL     1     -10.127  12.586  67.667  1.00  0.00    -0.217 A  
HETATM   22  C   UNL     1     -10.781  13.264  68.697  1.00  0.00    -0.281 A  
HETATM   23 CL   UNL     1      -8.889  13.372  66.767  1.00  0.00    -0.191 Cl 
HETATM   24  C   UNL     1     -11.746  12.602  69.469  1.00  0.00    -0.374 A  
ENDBRANCH  13  18
ENDBRANCH   2   4
TORSDOF 2
ENDMDL
MODEL       39
REMARK 921   NORMALIZED FREE ENERGY PREDICTED BY IDOCK:   -5.11 KCAL/MOL
REMARK 922        TOTAL FREE ENERGY PREDICTED BY IDOCK:   -5.91 KCAL/MOL
REMARK 923 INTER-LIGAND FREE ENERGY PREDICTED BY IDOCK:   -5.65 KCAL/MOL
REMARK 924 INTRA-LIGAND FREE ENERGY PREDICTED BY IDOCK:   -0.26 KCAL/MOL
REMARK 927      BINDING AFFINITY PREDICTED BY RF-SCORE:    0.00 PKD
ROOT
HETATM    1  C   UNL     1      -6.390  19.942  69.916  1.00  0.00    -0.395 C  
HETATM    2  C   UNL     1      -6.972  20.069  68.514  1.00  0.00    -0.289 C  
HETATM    3  C   UNL     1      -6.077  19.354  67.500  1.00  0.00    -0.206 C  
ENDROOT
BRANCH   2   4
HETATM    4  N   UNL     1      -8.304  19.491  68.469  1.00  0.00    -0.349 NA 
HETATM    5  C   UNL     1      -9.325  19.831  67.643  1.00  0.00    -0.344 C  
HETATM    6  H   UNL     1      -8.494  18.743  69.135  1.00  0.00     0.000 HD 
HETATM    7  N   UNL     1      -9.496  20.994  67.119  1.00  0.00    -0.662 NA 
HETATM    8  N   UNL     1     -10.220  18.836  67.381  1.00  0.00    -0.371 NA 
HETATM    9  H1  UNL     1     -10.264  21.250  66.497  1.00  0.00     0.000 HD 
HETATM   10  H2  UNL     1      -8.810  21.716  67.342  1.00  0.00     0.000 HD 
HETATM   11  C   UNL     1     -10.142  17.477  67.464  1.00  0.00    -0.326 C  
HETATM   12  H   UNL     1     -11.127  19.174  67.059  1.00  0.00     0.000 HD 
HETATM   13  N   UNL     1     -11.349  16.823  67.488  1.00  0.00     0.097 NA 
HETATM   14  N   UNL     1      -9.005  16.849  67.552  1.00  0.00    -0.205 NA 
HETATM   15  H1  UNL     1      -8.947  15.832  67.614  1.00  0.00     0.000 HD 
HETATM   16  H2  UNL     1      -8.142  17.392  67.559  1.00  0.00     0.000 HD 
HETATM   17  H   UNL     1     -12.144  17.194  66.968  1.00  0.00     0.000 HD 
BRANCH  13  18
HETATM   18  C   UNL     1     -11.486  15.628  68.242  1.00  0.00    -0.350 A  
HETATM   19  C   UNL     1     -11.302  14.370  67.647  1.00  0.00    -0.348 A  
HETATM   20  C   UNL     1     -11.507  13.195  68.371  1.00  0.00    -0.350 A  
HETATM   21  C   UNL     1     -11.863  13.273  69.711  1.00  0.00    -0.325 A  
HETATM   22  C   UNL     1     -11.970  14.514  70.343  1.00  0.00    -0.386 A  
HETATM   23 CL   UNL     1     -12.192  11.829  70.586  1.00  0.00    -0.471 Cl 
HETATM   24  C   UNL     1     -11.760  15.692  69.611  1.00  0.00    -0.373 A  
ENDBRANCH  13  18
ENDBRANCH   2   4
TORSDOF 2
ENDMDL
MODEL       40
REMARK 921   NORMALIZED FREE ENERGY PREDICTED BY IDOCK:   -5.09 KCAL/MOL
REMARK 922        TOTAL FREE ENERGY PREDICTED BY IDOCK:   -5.89 KCAL/MOL
REMARK 923 INTER-LIGAND FREE ENERGY PREDICTED BY IDOCK:   -5.98 KCAL/MOL
REMARK 924 INTRA-LIGAND FREE ENERGY PREDICTED BY IDOCK:    0.09 KCAL/MOL
REMARK 927      BINDING AFFINITY PREDICTED BY RF-SCORE:    0.00 PKD
ROOT
HETATM    1  C   UNL     1      -7.980  10.212  64.717  1.00  0.00    -0.146 C  
HETATM    2  C   UNL     1      -7.890  10.078  66.232  1.00  0.00    -0.111 C  
HETATM    3  C   UNL     1      -6.991  11.173  66.809  1.00  0.00    -0.137 C  
ENDROOT
BRANCH   2   4
HETATM    4  N   UNL     1      -9.211  10.179  66.826  1.00  0.00    -0.149 NA 
HETATM    5  C   UNL     1     -10.096   9.175  67.046  1.00  0.00    -0.249 C  
HETATM    6  H   UNL     1      -9.507  11.112  67.110  1.00  0.00     0.000 HD 
HETATM    7  N   UNL     1     -10.170   8.089  66.359  1.00  0.00    -0.483 NA 
HETATM    8  N   UNL     1     -10.962   9.378  68.081  1.00  0.00    -0.484 NA 
HETATM    9  H1  UNL     1     -10.837   7.335  66.525  1.00  0.00     0.000 HD 
HETATM   10  H2  UNL     1      -9.511   7.975  65.588  1.00  0.00     0.000 HD 
HETATM   11  C   UNL     1     -10.920  10.190  69.176  1.00  0.00    -0.230 C  
HETATM   12  H   UNL     1     -11.807   8.810  68.025  1.00  0.00     0.000 HD 
HETATM   13  N   UNL     1     -12.130  10.407  69.789  1.00  0.00    -0.488 NA 
HETATM   14  N   UNL     1      -9.819  10.750  69.586  1.00  0.00    -0.438 NA 
HETATM   15  H1  UNL     1      -9.788  11.358  70.404  1.00  0.00     0.000 HD 
HETATM   16  H2  UNL     1      -8.957  10.576  69.070  1.00  0.00     0.000 HD 
HETATM   17  H   UNL     1     -12.835   9.670  69.806  1.00  0.00     0.000 HD 
BRANCH  13  18
HETATM   18  C   UNL     1     -12.395  11.661  70.399  1.00  0.00    -0.288 A  
HETATM   19  C   UNL     1     -12.980  11.738  71.673  1.00  0.00    -0.467 A  
HETATM   20  C   UNL     1     -13.305  12.970  72.240  1.00  0.00    -0.606 A  
HETATM   21  C   UNL     1     -13.011  14.138  71.550  1.00  0.00    -0.344 A  
HETATM   22  C   UNL     1     -12.353  14.085  70.320  1.00  0.00    -0.425 A  
HETATM   23 CL   UNL     1     -13.480  15.656  72.211  1.00  0.00    -0.569 Cl 
HETATM   24  C   UNL     1     -12.026  12.845  69.754  1.00  0.00    -0.365 A  
ENDBRANCH  13  18
ENDBRANCH   2   4
TORSDOF 2
ENDMDL
MODEL       41
REMARK 921   NORMALIZED FREE ENERGY PREDICTED BY IDOCK:   -5.07 KCAL/MOL
REMARK 922        TOTAL FREE ENERGY PREDICTED BY IDOCK:   -5.87 KCAL/MOL
REMARK 923 INTER-LIGAND FREE ENERGY PREDICTED BY IDOCK:   -5.62 KCAL/MOL
REMARK 924 INTRA-LIGAND FREE ENERGY PREDICTED BY IDOCK:   -0.25 KCAL/MOL
REMARK 927      BINDING AFFINITY PREDICTED BY RF-SCORE:    0.00 PKD
ROOT
HETATM    1  C   UNL     1      -6.782  19.898  68.178  1.00  0.00    -0.313 C  
HETATM    2  C   UNL     1      -7.890  19.532  67.198  1.00  0.00    -0.258 C  
HETATM    3  C   UNL     1      -7.293  19.128  65.848  1.00  0.00    -0.278 C  
ENDROOT
BRANCH   2   4
HETATM    4  N   UNL     1      -8.682  18.433  67.720  1.00  0.00    -0.264 NA 
HETATM    5  C   UNL     1      -9.810  18.511  68.470  1.00  0.00    -0.381 C  
HETATM    6  H   UNL     1      -8.351  17.494  67.498  1.00  0.00     0.000 HD 
HETATM    7  N   UNL     1     -10.109  19.483  69.258  1.00  0.00    -0.606 NA 
HETATM    8  N   UNL     1     -10.661  17.450  68.355  1.00  0.00    -0.371 NA 
HETATM    9  H1  UNL     1     -10.957  19.541  69.822  1.00  0.00     0.000 HD 
HETATM   10  H2  UNL     1      -9.445  20.256  69.324  1.00  0.00     0.000 HD 
HETATM   11  C   UNL     1     -10.822  16.494  67.396  1.00  0.00    -0.202 C  
HETATM   12  H   UNL     1     -11.303  17.353  69.141  1.00  0.00     0.000 HD 
HETATM   13  N   UNL     1     -11.510  15.375  67.797  1.00  0.00    -0.316 NA 
HETATM   14  N   UNL     1     -10.327  16.618  66.199  1.00  0.00    -0.333 NA 
HETATM   15  H1  UNL     1     -10.447  15.903  65.481  1.00  0.00     0.000 HD 
HETATM   16  H2  UNL     1      -9.798  17.460  65.970  1.00  0.00     0.000 HD 
HETATM   17  H   UNL     1     -12.262  15.454  68.481  1.00  0.00     0.000 HD 
BRANCH  13  18
HETATM   18  C   UNL     1     -11.168  14.108  67.254  1.00  0.00    -0.316 A  
HETATM   19  C   UNL     1      -9.973  13.466  67.611  1.00  0.00    -0.229 A  
HETATM   20  C   UNL     1      -9.604  12.256  67.024  1.00  0.00    -0.208 A  
HETATM   21  C   UNL     1     -10.451  11.660  66.099  1.00  0.00    -0.247 A  
HETATM   22  C   UNL     1     -11.683  12.241  65.793  1.00  0.00    -0.445 A  
HETATM   23 CL   UNL     1      -9.965  10.208  65.315  1.00  0.00    -0.386 Cl 
HETATM   24  C   UNL     1     -12.051  13.457  66.388  1.00  0.00    -0.464 A  
ENDBRANCH  13  18
ENDBRANCH   2   4
TORSDOF 2
ENDMDL
MODEL       42
REMARK 921   NORMALIZED FREE ENERGY PREDICTED BY IDOCK:   -5.02 KCAL/MOL
REMARK 922        TOTAL FREE ENERGY PREDICTED BY IDOCK:   -5.82 KCAL/MOL
REMARK 923 INTER-LIGAND FREE ENERGY PREDICTED BY IDOCK:   -5.56 KCAL/MOL
REMARK 924 INTRA-LIGAND FREE ENERGY PREDICTED BY IDOCK:   -0.26 KCAL/MOL
REMARK 927      BINDING AFFINITY PREDICTED BY RF-SCORE:    0.00 PKD
ROOT
HETATM    1  C   UNL     1     -11.638  14.830  70.244  1.00  0.00    -0.333 C  
HETATM    2  C   UNL     1     -11.391  14.273  68.848  1.00  0.00    -0.274 C  
HETATM    3  C   UNL     1      -9.940  14.513  68.429  1.00  0.00    -0.241 C  
ENDROOT
BRANCH   2   4
HETATM    4  N   UNL     1     -11.670  12.849  68.817  1.00  0.00    -0.305 NA 
HETATM    5  C   UNL     1     -11.767  12.049  67.726  1.00  0.00    -0.309 C  
HETATM    6  H   UNL     1     -11.809  12.397  69.721  1.00  0.00     0.000 HD 
HETATM    7  N   UNL     1     -12.124  12.438  66.553  1.00  0.00    -0.598 NA 
HETATM    8  N   UNL     1     -11.461  10.736  67.936  1.00  0.00    -0.537 NA 
HETATM    9  H1  UNL     1     -12.197  11.836  65.732  1.00  0.00     0.000 HD 
HETATM   10  H2  UNL     1     -12.352  13.426  66.434  1.00  0.00     0.000 HD 
HETATM   11  C   UNL     1     -10.735  10.098  68.899  1.00  0.00    -0.223 C  
HETATM   12  H   UNL     1     -11.852  10.106  67.235  1.00  0.00     0.000 HD 
HETATM   13  N   UNL     1     -10.962   8.747  69.003  1.00  0.00    -0.435 NA 
HETATM   14  N   UNL     1      -9.916  10.731  69.688  1.00  0.00    -0.442 NA 
HETATM   15  H1  UNL     1      -9.374  10.254  70.408  1.00  0.00     0.000 HD 
HETATM   16  H2  UNL     1      -9.814  11.741  69.582  1.00  0.00     0.000 HD 
HETATM   17  H   UNL     1     -11.180   8.199  68.171  1.00  0.00     0.000 HD 
BRANCH  13  18
HETATM   18  C   UNL     1     -10.891   8.118  70.273  1.00  0.00    -0.244 A  
HETATM   19  C   UNL     1     -11.828   8.407  71.278  1.00  0.00    -0.327 A  
HETATM   20  C   UNL     1     -11.715   7.843  72.549  1.00  0.00    -0.423 A  
HETATM   21  C   UNL     1     -10.682   6.954  72.811  1.00  0.00    -0.255 A  
HETATM   22  C   UNL     1      -9.790   6.589  71.801  1.00  0.00    -0.178 A  
HETATM   23 CL   UNL     1     -10.494   6.315  74.398  1.00  0.00    -0.254 Cl 
HETATM   24  C   UNL     1      -9.908   7.157  70.524  1.00  0.00    -0.181 A  
ENDBRANCH  13  18
ENDBRANCH   2   4
TORSDOF 2
ENDMDL
MODEL       43
REMARK 921   NORMALIZED FREE ENERGY PREDICTED BY IDOCK:   -4.98 KCAL/MOL
REMARK 922        TOTAL FREE ENERGY PREDICTED BY IDOCK:   -5.77 KCAL/MOL
REMARK 923 INTER-LIGAND FREE ENERGY PREDICTED BY IDOCK:   -5.69 KCAL/MOL
REMARK 924 INTRA-LIGAND FREE ENERGY PREDICTED BY IDOCK:   -0.08 KCAL/MOL
REMARK 927      BINDING AFFINITY PREDICTED BY RF-SCORE:    0.00 PKD
ROOT
HETATM    1  C   UNL     1      -6.617  18.239  69.204  1.00  0.00    -0.265 C  
HETATM    2  C   UNL     1      -7.662  18.328  68.098  1.00  0.00    -0.279 C  
HETATM    3  C   UNL     1      -7.064  17.871  66.766  1.00  0.00    -0.230 C  
ENDROOT
BRANCH   2   4
HETATM    4  N   UNL     1      -8.807  17.495  68.420  1.00  0.00    -0.270 NA 
HETATM    5  C   UNL     1     -10.106  17.876  68.511  1.00  0.00    -0.391 C  
HETATM    6  H   UNL     1      -8.612  16.510  68.600  1.00  0.00     0.000 HD 
HETATM    7  N   UNL     1     -10.510  19.058  68.821  1.00  0.00    -0.430 NA 
HETATM    8  N   UNL     1     -11.020  16.897  68.253  1.00  0.00    -0.349 NA 
HETATM    9  H1  UNL     1     -11.488  19.344  68.889  1.00  0.00     0.000 HD 
HETATM   10  H2  UNL     1      -9.798  19.763  69.014  1.00  0.00     0.000 HD 
HETATM   11  C   UNL     1     -10.943  15.715  67.576  1.00  0.00    -0.309 C  
HETATM   12  H   UNL     1     -11.944  17.086  68.642  1.00  0.00     0.000 HD 
HETATM   13  N   UNL     1     -11.949  14.820  67.848  1.00  0.00    -0.548 NA 
HETATM   14  N   UNL     1      -9.966  15.442  66.761  1.00  0.00    -0.243 NA 
HETATM   15  H1  UNL     1      -9.909  14.558  66.255  1.00  0.00     0.000 HD 
HETATM   16  H2  UNL     1      -9.232  16.136  66.623  1.00  0.00     0.000 HD 
HETATM   17  H   UNL     1     -12.889  15.154  68.059  1.00  0.00     0.000 HD 
BRANCH  13  18
HETATM   18  C   UNL     1     -11.673  13.428  67.834  1.00  0.00    -0.361 A  
HETATM   19  C   UNL     1     -11.527  12.706  69.029  1.00  0.00    -0.354 A  
HETATM   20  C   UNL     1     -11.185  11.354  69.015  1.00  0.00    -0.319 A  
HETATM   21  C   UNL     1     -11.022  10.704  67.798  1.00  0.00    -0.306 A  
HETATM   22  C   UNL     1     -11.245  11.383  66.599  1.00  0.00    -0.298 A  
HETATM   23 CL   UNL     1     -10.525   9.057  67.776  1.00  0.00    -0.305 Cl 
HETATM   24  C   UNL     1     -11.591  12.742  66.619  1.00  0.00    -0.430 A  
ENDBRANCH  13  18
ENDBRANCH   2   4
TORSDOF 2
ENDMDL
MODEL       44
REMARK 921   NORMALIZED FREE ENERGY PREDICTED BY IDOCK:   -4.97 KCAL/MOL
REMARK 922        TOTAL FREE ENERGY PREDICTED BY IDOCK:   -5.77 KCAL/MOL
REMARK 923 INTER-LIGAND FREE ENERGY PREDICTED BY IDOCK:   -5.95 KCAL/MOL
REMARK 924 INTRA-LIGAND FREE ENERGY PREDICTED BY IDOCK:    0.18 KCAL/MOL
REMARK 927      BINDING AFFINITY PREDICTED BY RF-SCORE:    0.00 PKD
ROOT
HETATM    1  C   UNL     1     -10.124   7.333  73.082  1.00  0.00    -0.319 C  
HETATM    2  C   UNL     1     -10.725   7.237  71.685  1.00  0.00    -0.215 C  
HETATM    3  C   UNL     1     -12.113   6.596  71.746  1.00  0.00    -0.400 C  
ENDROOT
BRANCH   2   4
HETATM    4  N   UNL     1     -10.833   8.558  71.092  1.00  0.00    -0.232 NA 
HETATM    5  C   UNL     1     -11.143   8.865  69.808  1.00  0.00    -0.089 C  
HETATM    6  H   UNL     1     -10.655   9.347  71.714  1.00  0.00     0.000 HD 
HETATM    7  N   UNL     1     -10.915   8.109  68.791  1.00  0.00    -0.419 NA 
HETATM    8  N   UNL     1     -11.735  10.081  69.624  1.00  0.00    -0.453 NA 
HETATM    9  H1  UNL     1     -11.148   8.340  67.825  1.00  0.00     0.000 HD 
HETATM   10  H2  UNL     1     -10.465   7.210  68.965  1.00  0.00     0.000 HD 
HETATM   11  C   UNL     1     -12.415  10.914  70.463  1.00  0.00    -0.351 C  
HETATM   12  H   UNL     1     -11.652  10.437  68.672  1.00  0.00     0.000 HD 
HETATM   13  N   UNL     1     -12.529  12.212  70.030  1.00  0.00    -0.053 NA 
HETATM   14  N   UNL     1     -12.888  10.515  71.608  1.00  0.00    -0.448 NA 
HETATM   15  H1  UNL     1     -13.396  11.138  72.235  1.00  0.00     0.000 HD 
HETATM   16  H2  UNL     1     -12.744   9.545  71.889  1.00  0.00     0.000 HD 
HETATM   17  H   UNL     1     -12.613  12.414  69.034  1.00  0.00     0.000 HD 
BRANCH  13  18
HETATM   18  C   UNL     1     -12.531  13.271  70.975  1.00  0.00    -0.336 A  
HETATM   19  C   UNL     1     -11.544  14.269  70.947  1.00  0.00    -0.146 A  
HETATM   20  C   UNL     1     -11.505  15.268  71.920  1.00  0.00    -0.504 A  
HETATM   21  C   UNL     1     -12.478  15.295  72.910  1.00  0.00    -0.406 A  
HETATM   22  C   UNL     1     -13.515  14.361  72.906  1.00  0.00    -0.516 A  
HETATM   23 CL   UNL     1     -12.388  16.479  74.155  1.00  0.00    -0.566 Cl 
HETATM   24  C   UNL     1     -13.553  13.360  71.925  1.00  0.00    -0.494 A  
ENDBRANCH  13  18
ENDBRANCH   2   4
TORSDOF 2
ENDMDL
MODEL       45
REMARK 921   NORMALIZED FREE ENERGY PREDICTED BY IDOCK:   -4.97 KCAL/MOL
REMARK 922        TOTAL FREE ENERGY PREDICTED BY IDOCK:   -5.76 KCAL/MOL
REMARK 923 INTER-LIGAND FREE ENERGY PREDICTED BY IDOCK:   -5.49 KCAL/MOL
REMARK 924 INTRA-LIGAND FREE ENERGY PREDICTED BY IDOCK:   -0.27 KCAL/MOL
REMARK 927      BINDING AFFINITY PREDICTED BY RF-SCORE:    0.00 PKD
ROOT
HETATM    1  C   UNL     1      -8.494   6.079  64.867  1.00  0.00    -0.060 C  
HETATM    2  C   UNL     1      -8.430   6.821  66.196  1.00  0.00    -0.135 C  
HETATM    3  C   UNL     1      -7.120   7.603  66.305  1.00  0.00    -0.070 C  
ENDROOT
BRANCH   2   4
HETATM    4  N   UNL     1      -9.548   7.740  66.314  1.00  0.00    -0.396 NA 
HETATM    5  C   UNL     1     -10.582   7.675  67.189  1.00  0.00    -0.340 C  
HETATM    6  H   UNL     1      -9.557   8.525  65.663  1.00  0.00     0.000 HD 
HETATM    7  N   UNL     1     -11.041   6.593  67.714  1.00  0.00    -0.527 NA 
HETATM    8  N   UNL     1     -11.156   8.872  67.504  1.00  0.00    -0.390 NA 
HETATM    9  H1  UNL     1     -11.819   6.545  68.372  1.00  0.00     0.000 HD 
HETATM   10  H2  UNL     1     -10.591   5.716  67.451  1.00  0.00     0.000 HD 
HETATM   11  C   UNL     1     -10.712  10.160  67.426  1.00  0.00    -0.277 C  
HETATM   12  H   UNL     1     -12.105   8.789  67.870  1.00  0.00     0.000 HD 
HETATM   13  N   UNL     1     -11.693  11.120  67.468  1.00  0.00    -0.578 NA 
HETATM   14  N   UNL     1      -9.452  10.454  67.283  1.00  0.00    -0.153 NA 
HETATM   15  H1  UNL     1      -9.120  11.417  67.224  1.00  0.00     0.000 HD 
HETATM   16  H2  UNL     1      -8.773   9.695  67.227  1.00  0.00     0.000 HD 
HETATM   17  H   UNL     1     -12.533  10.970  68.027  1.00  0.00     0.000 HD 
BRANCH  13  18
HETATM   18  C   UNL     1     -11.533  12.322  66.730  1.00  0.00    -0.361 A  
HETATM   19  C   UNL     1     -11.286  13.542  67.377  1.00  0.00    -0.338 A  
HETATM   20  C   UNL     1     -11.200  14.734  66.656  1.00  0.00    -0.346 A  
HETATM   21  C   UNL     1     -11.324  14.704  65.274  1.00  0.00    -0.354 A  
HETATM   22  C   UNL     1     -11.486  13.490  64.604  1.00  0.00    -0.381 A  
HETATM   23 CL   UNL     1     -11.296  16.180  64.388  1.00  0.00    -0.375 Cl 
HETATM   24  C   UNL     1     -11.569  12.295  65.333  1.00  0.00    -0.412 A  
ENDBRANCH  13  18
ENDBRANCH   2   4
TORSDOF 2
ENDMDL
MODEL       46
REMARK 921   NORMALIZED FREE ENERGY PREDICTED BY IDOCK:   -4.92 KCAL/MOL
REMARK 922        TOTAL FREE ENERGY PREDICTED BY IDOCK:   -5.71 KCAL/MOL
REMARK 923 INTER-LIGAND FREE ENERGY PREDICTED BY IDOCK:   -5.45 KCAL/MOL
REMARK 924 INTRA-LIGAND FREE ENERGY PREDICTED BY IDOCK:   -0.26 KCAL/MOL
REMARK 927      BINDING AFFINITY PREDICTED BY RF-SCORE:    0.00 PKD
ROOT
HETATM    1  C   UNL     1     -10.942   6.338  68.214  1.00  0.00    -0.408 C  
HETATM    2  C   UNL     1     -10.500   7.107  69.453  1.00  0.00    -0.222 C  
HETATM    3  C   UNL     1      -8.990   7.349  69.417  1.00  0.00    -0.139 C  
ENDROOT
BRANCH   2   4
HETATM    4  N   UNL     1     -11.189   8.383  69.525  1.00  0.00    -0.439 NA 
HETATM    5  C   UNL     1     -11.772   8.946  70.612  1.00  0.00    -0.179 C  
HETATM    6  H   UNL     1     -11.241   8.917  68.658  1.00  0.00     0.000 HD 
HETATM    7  N   UNL     1     -12.262   8.297  71.610  1.00  0.00    -0.300 NA 
HETATM    8  N   UNL     1     -11.831  10.309  70.602  1.00  0.00    -0.320 NA 
HETATM    9  H1  UNL     1     -12.701   8.721  72.427  1.00  0.00     0.000 HD 
HETATM   10  H2  UNL     1     -12.206   7.278  71.580  1.00  0.00     0.000 HD 
HETATM   11  C   UNL     1     -11.124  11.260  69.927  1.00  0.00    -0.109 C  
HETATM   12  H   UNL     1     -12.544  10.694  71.222  1.00  0.00     0.000 HD 
HETATM   13  N   UNL     1     -11.711  12.501  69.878  1.00  0.00    -0.477 NA 
HETATM   14  N   UNL     1      -9.993  11.000  69.338  1.00  0.00    -0.429 NA 
HETATM   15  H1  UNL     1      -9.464  11.711  68.833  1.00  0.00     0.000 HD 
HETATM   16  H2  UNL     1      -9.622  10.050  69.383  1.00  0.00     0.000 HD 
HETATM   17  H   UNL     1     -12.271  12.833  70.663  1.00  0.00     0.000 HD 
BRANCH  13  18
HETATM   18  C   UNL     1     -11.536  13.317  68.731  1.00  0.00    -0.306 A  
HETATM   19  C   UNL     1     -12.035  12.925  67.479  1.00  0.00    -0.354 A  
HETATM   20  C   UNL     1     -11.800  13.693  66.339  1.00  0.00    -0.433 A  
HETATM   21  C   UNL     1     -11.092  14.883  66.452  1.00  0.00    -0.342 A  
HETATM   22  C   UNL     1     -10.659  15.332  67.701  1.00  0.00    -0.270 A  
HETATM   23 CL   UNL     1     -10.733  15.794  65.037  1.00  0.00    -0.458 Cl 
HETATM   24  C   UNL     1     -10.900  14.557  68.845  1.00  0.00    -0.262 A  
ENDBRANCH  13  18
ENDBRANCH   2   4
TORSDOF 2
ENDMDL
MODEL       47
REMARK 921   NORMALIZED FREE ENERGY PREDICTED BY IDOCK:   -4.90 KCAL/MOL
REMARK 922        TOTAL FREE ENERGY PREDICTED BY IDOCK:   -5.69 KCAL/MOL
REMARK 923 INTER-LIGAND FREE ENERGY PREDICTED BY IDOCK:   -5.37 KCAL/MOL
REMARK 924 INTRA-LIGAND FREE ENERGY PREDICTED BY IDOCK:   -0.31 KCAL/MOL
REMARK 927      BINDING AFFINITY PREDICTED BY RF-SCORE:    0.00 PKD
ROOT
HETATM    1  C   UNL     1      -6.637  19.699  69.721  1.00  0.00    -0.336 C  
HETATM    2  C   UNL     1      -6.430  18.787  68.518  1.00  0.00    -0.224 C  
HETATM    3  C   UNL     1      -5.371  17.728  68.830  1.00  0.00    -0.164 C  
ENDROOT
BRANCH   2   4
HETATM    4  N   UNL     1      -7.676  18.129  68.166  1.00  0.00    -0.265 NA 
HETATM    5  C   UNL     1      -8.017  17.593  66.967  1.00  0.00    -0.220 C  
HETATM    6  H   UNL     1      -8.376  18.062  68.905  1.00  0.00     0.000 HD 
HETATM    7  N   UNL     1      -7.562  17.980  65.827  1.00  0.00    -0.550 NA 
HETATM    8  N   UNL     1      -8.922  16.573  67.021  1.00  0.00    -0.197 NA 
HETATM    9  H1  UNL     1      -7.819  17.576  64.926  1.00  0.00     0.000 HD 
HETATM   10  H2  UNL     1      -6.892  18.749  65.825  1.00  0.00     0.000 HD 
HETATM   11  C   UNL     1      -9.299  15.722  68.018  1.00  0.00    -0.197 C  
HETATM   12  H   UNL     1      -9.414  16.415  66.141  1.00  0.00     0.000 HD 
HETATM   13  N   UNL     1     -10.498  15.084  67.820  1.00  0.00    -0.246 NA 
HETATM   14  N   UNL     1      -8.590  15.558  69.097  1.00  0.00    -0.230 NA 
HETATM   15  H1  UNL     1      -8.872  14.922  69.844  1.00  0.00     0.000 HD 
HETATM   16  H2  UNL     1      -7.722  16.083  69.201  1.00  0.00     0.000 HD 
HETATM   17  H   UNL     1     -10.792  14.826  66.877  1.00  0.00     0.000 HD 
BRANCH  13  18
HETATM   18  C   UNL     1     -11.328  14.786  68.932  1.00  0.00    -0.282 A  
HETATM   19  C   UNL     1     -12.109  15.781  69.541  1.00  0.00    -0.261 A  
HETATM   20  C   UNL     1     -12.869  15.503  70.677  1.00  0.00    -0.466 A  
HETATM   21  C   UNL     1     -12.880  14.213  71.191  1.00  0.00    -0.360 A  
HETATM   22  C   UNL     1     -12.177  13.191  70.551  1.00  0.00    -0.405 A  
HETATM   23 CL   UNL     1     -13.754  13.883  72.637  1.00  0.00    -0.631 Cl 
HETATM   24  C   UNL     1     -11.417  13.474  69.407  1.00  0.00    -0.340 A  
ENDBRANCH  13  18
ENDBRANCH   2   4
TORSDOF 2
ENDMDL
MODEL       48
REMARK 921   NORMALIZED FREE ENERGY PREDICTED BY IDOCK:   -4.89 KCAL/MOL
REMARK 922        TOTAL FREE ENERGY PREDICTED BY IDOCK:   -5.67 KCAL/MOL
REMARK 923 INTER-LIGAND FREE ENERGY PREDICTED BY IDOCK:   -5.78 KCAL/MOL
REMARK 924 INTRA-LIGAND FREE ENERGY PREDICTED BY IDOCK:    0.12 KCAL/MOL
REMARK 927      BINDING AFFINITY PREDICTED BY RF-SCORE:    0.00 PKD
ROOT
HETATM    1  C   UNL     1      -8.621   6.781  73.542  1.00  0.00    -0.139 C  
HETATM    2  C   UNL     1      -9.709   6.141  72.688  1.00  0.00    -0.156 C  
HETATM    3  C   UNL     1     -10.819   5.578  73.577  1.00  0.00    -0.321 C  
ENDROOT
BRANCH   2   4
HETATM    4  N   UNL     1     -10.274   7.119  71.777  1.00  0.00    -0.195 NA 
HETATM    5  C   UNL     1     -11.088   6.888  70.716  1.00  0.00    -0.275 C  
HETATM    6  H   UNL     1     -10.032   8.094  71.955  1.00  0.00     0.000 HD 
HETATM    7  N   UNL     1     -11.112   5.802  70.026  1.00  0.00    -0.328 NA 
HETATM    8  N   UNL     1     -11.922   7.915  70.385  1.00  0.00    -0.474 NA 
HETATM    9  H1  UNL     1     -11.724   5.628  69.228  1.00  0.00     0.000 HD 
HETATM   10  H2  UNL     1     -10.470   5.057  70.298  1.00  0.00     0.000 HD 
HETATM   11  C   UNL     1     -12.389   8.989  71.085  1.00  0.00    -0.251 C  
HETATM   12  H   UNL     1     -12.265   7.872  69.426  1.00  0.00     0.000 HD 
HETATM   13  N   UNL     1     -12.897  10.009  70.319  1.00  0.00    -0.566 NA 
HETATM   14  N   UNL     1     -12.322   9.057  72.383  1.00  0.00    -0.324 NA 
HETATM   15  H1  UNL     1     -12.671   9.860  72.906  1.00  0.00     0.000 HD 
HETATM   16  H2  UNL     1     -11.906   8.279  72.896  1.00  0.00     0.000 HD 
HETATM   17  H   UNL     1     -13.379   9.802  69.444  1.00  0.00     0.000 HD 
BRANCH  13  18
HETATM   18  C   UNL     1     -12.749  11.353  70.750  1.00  0.00    -0.253 A  
HETATM   19  C   UNL     1     -13.376  11.813  71.919  1.00  0.00    -0.401 A  
HETATM   20  C   UNL     1     -13.288  13.151  72.303  1.00  0.00    -0.621 A  
HETATM   21  C   UNL     1     -12.538  14.033  71.536  1.00  0.00    -0.349 A  
HETATM   22  C   UNL     1     -11.839  13.578  70.417  1.00  0.00    -0.293 A  
HETATM   23 CL   UNL     1     -12.491  15.699  71.964  1.00  0.00    -0.456 Cl 
HETATM   24  C   UNL     1     -11.928  12.231  70.036  1.00  0.00    -0.379 A  
ENDBRANCH  13  18
ENDBRANCH   2   4
TORSDOF 2
ENDMDL
MODEL       49
REMARK 921   NORMALIZED FREE ENERGY PREDICTED BY IDOCK:   -4.86 KCAL/MOL
REMARK 922        TOTAL FREE ENERGY PREDICTED BY IDOCK:   -5.64 KCAL/MOL
REMARK 923 INTER-LIGAND FREE ENERGY PREDICTED BY IDOCK:   -5.46 KCAL/MOL
REMARK 924 INTRA-LIGAND FREE ENERGY PREDICTED BY IDOCK:   -0.18 KCAL/MOL
REMARK 927      BINDING AFFINITY PREDICTED BY RF-SCORE:    0.00 PKD
ROOT
HETATM    1  C   UNL     1     -11.671  15.323  70.945  1.00  0.00    -0.386 C  
HETATM    2  C   UNL     1     -12.245  14.251  70.027  1.00  0.00    -0.359 C  
HETATM    3  C   UNL     1     -11.559  14.299  68.660  1.00  0.00    -0.352 C  
ENDROOT
BRANCH   2   4
HETATM    4  N   UNL     1     -12.059  12.935  70.611  1.00  0.00    -0.508 NA 
HETATM    5  C   UNL     1     -12.868  12.303  71.498  1.00  0.00    -0.280 C  
HETATM    6  H   UNL     1     -11.223  12.427  70.321  1.00  0.00     0.000 HD 
HETATM    7  N   UNL     1     -13.637  12.890  72.347  1.00  0.00    -0.565 NA 
HETATM    8  N   UNL     1     -12.824  10.940  71.459  1.00  0.00    -0.441 NA 
HETATM    9  H1  UNL     1     -14.245  12.414  73.014  1.00  0.00     0.000 HD 
HETATM   10  H2  UNL     1     -13.639  13.911  72.352  1.00  0.00     0.000 HD 
HETATM   11  C   UNL     1     -12.429  10.055  70.500  1.00  0.00    -0.176 C  
HETATM   12  H   UNL     1     -13.151  10.495  72.317  1.00  0.00     0.000 HD 
HETATM   13  N   UNL     1     -12.166   8.784  70.950  1.00  0.00    -0.470 NA 
HETATM   14  N   UNL     1     -12.276  10.400  69.254  1.00  0.00    -0.653 NA 
HETATM   15  H1  UNL     1     -11.981   9.738  68.536  1.00  0.00     0.000 HD 
HETATM   16  H2  UNL     1     -12.458  11.367  68.986  1.00  0.00     0.000 HD 
HETATM   17  H   UNL     1     -12.702   8.394  71.725  1.00  0.00     0.000 HD 
BRANCH  13  18
HETATM   18  C   UNL     1     -11.144   8.017  70.331  1.00  0.00    -0.238 A  
HETATM   19  C   UNL     1     -11.456   6.914  69.521  1.00  0.00    -0.165 A  
HETATM   20  C   UNL     1     -10.450   6.118  68.972  1.00  0.00    -0.305 A  
HETATM   21  C   UNL     1      -9.120   6.445  69.202  1.00  0.00    -0.131 A  
HETATM   22  C   UNL     1      -8.789   7.586  69.935  1.00  0.00    -0.141 A  
HETATM   23 CL   UNL     1      -7.878   5.423  68.592  1.00  0.00    -0.087 Cl 
HETATM   24  C   UNL     1      -9.804   8.385  70.483  1.00  0.00    -0.204 A  
ENDBRANCH  13  18
ENDBRANCH   2   4
TORSDOF 2
ENDMDL
MODEL       50
REMARK 921   NORMALIZED FREE ENERGY PREDICTED BY IDOCK:   -4.84 KCAL/MOL
REMARK 922        TOTAL FREE ENERGY PREDICTED BY IDOCK:   -5.62 KCAL/MOL
REMARK 923 INTER-LIGAND FREE ENERGY PREDICTED BY IDOCK:   -6.18 KCAL/MOL
REMARK 924 INTRA-LIGAND FREE ENERGY PREDICTED BY IDOCK:    0.56 KCAL/MOL
REMARK 927      BINDING AFFINITY PREDICTED BY RF-SCORE:    0.00 PKD
ROOT
HETATM    1  C   UNL     1     -12.739  15.643  73.658  1.00  0.00    -0.725 C  
HETATM    2  C   UNL     1     -12.668  14.484  72.672  1.00  0.00    -0.357 C  
HETATM    3  C   UNL     1     -13.983  13.703  72.674  1.00  0.00    -0.406 C  
ENDROOT
BRANCH   2   4
HETATM    4  N   UNL     1     -12.406  14.979  71.332  1.00  0.00    -0.307 NA 
HETATM    5  C   UNL     1     -11.640  16.041  70.979  1.00  0.00    -0.431 C  
HETATM    6  H   UNL     1     -12.850  14.468  70.569  1.00  0.00     0.000 HD 
HETATM    7  N   UNL     1     -11.421  17.073  71.716  1.00  0.00    -0.140 NA 
HETATM    8  N   UNL     1     -11.087  15.972  69.734  1.00  0.00    -0.312 NA 
HETATM    9  H1  UNL     1     -10.844  17.872  71.450  1.00  0.00     0.000 HD 
HETATM   10  H2  UNL     1     -11.856  17.093  72.639  1.00  0.00     0.000 HD 
HETATM   11  C   UNL     1     -10.826  14.930  68.894  1.00  0.00    -0.250 C  
HETATM   12  H   UNL     1     -10.814  16.880  69.356  1.00  0.00     0.000 HD 
HETATM   13  N   UNL     1     -10.619  15.275  67.581  1.00  0.00    -0.264 NA 
HETATM   14  N   UNL     1     -10.812  13.694  69.302  1.00  0.00    -0.422 NA 
HETATM   15  H1  UNL     1     -10.618  12.914  68.674  1.00  0.00     0.000 HD 
HETATM   16  H2  UNL     1     -11.004  13.498  70.284  1.00  0.00     0.000 HD 
HETATM   17  H   UNL     1     -10.168  16.159  67.349  1.00  0.00     0.000 HD 
BRANCH  13  18
HETATM   18  C   UNL     1     -11.036  14.394  66.549  1.00  0.00    -0.331 A  
HETATM   19  C   UNL     1     -10.134  13.503  65.947  1.00  0.00    -0.311 A  
HETATM   20  C   UNL     1     -10.528  12.689  64.885  1.00  0.00    -0.331 A  
HETATM   21  C   UNL     1     -11.843  12.737  64.440  1.00  0.00    -0.384 A  
HETATM   22  C   UNL     1     -12.776  13.555  65.079  1.00  0.00    -0.399 A  
HETATM   23 CL   UNL     1     -12.313  11.793  63.081  1.00  0.00    -0.472 Cl 
HETATM   24  C   UNL     1     -12.376  14.370  66.149  1.00  0.00    -0.335 A  
ENDBRANCH  13  18
ENDBRANCH   2   4
TORSDOF 2
ENDMDL
MODEL       51
REMARK 921   NORMALIZED FREE ENERGY PREDICTED BY IDOCK:   -4.84 KCAL/MOL
REMARK 922        TOTAL FREE ENERGY PREDICTED BY IDOCK:   -5.61 KCAL/MOL
REMARK 923 INTER-LIGAND FREE ENERGY PREDICTED BY IDOCK:   -5.36 KCAL/MOL
REMARK 924 INTRA-LIGAND FREE ENERGY PREDICTED BY IDOCK:   -0.25 KCAL/MOL
REMARK 927      BINDING AFFINITY PREDICTED BY RF-SCORE:    0.00 PKD
ROOT
HETATM    1  C   UNL     1      -7.665   7.230  64.769  1.00  0.00    -0.115 C  
HETATM    2  C   UNL     1      -7.772   7.700  66.215  1.00  0.00    -0.089 C  
HETATM    3  C   UNL     1      -6.618   8.646  66.551  1.00  0.00    -0.063 C  
ENDROOT
BRANCH   2   4
HETATM    4  N   UNL     1      -9.033   8.386  66.429  1.00  0.00    -0.160 NA 
HETATM    5  C   UNL     1     -10.202   7.849  66.859  1.00  0.00    -0.310 C  
HETATM    6  H   UNL     1      -9.041   9.387  66.233  1.00  0.00     0.000 HD 
HETATM    7  N   UNL     1     -10.564   6.627  66.685  1.00  0.00    -0.496 NA 
HETATM    8  N   UNL     1     -11.033   8.711  67.515  1.00  0.00    -0.459 NA 
HETATM    9  H1  UNL     1     -11.444   6.224  67.008  1.00  0.00     0.000 HD 
HETATM   10  H2  UNL     1      -9.921   6.013  66.184  1.00  0.00     0.000 HD 
HETATM   11  C   UNL     1     -10.817   9.894  68.158  1.00  0.00    -0.234 C  
HETATM   12  H   UNL     1     -12.007   8.410  67.528  1.00  0.00     0.000 HD 
HETATM   13  N   UNL     1     -11.938  10.660  68.364  1.00  0.00    -0.811 NA 
HETATM   14  N   UNL     1      -9.628  10.286  68.514  1.00  0.00    -0.156 NA 
HETATM   15  H1  UNL     1      -9.466  11.172  68.994  1.00  0.00     0.000 HD 
HETATM   16  H2  UNL     1      -8.829   9.687  68.306  1.00  0.00     0.000 HD 
HETATM   17  H   UNL     1     -12.838  10.214  68.540  1.00  0.00     0.000 HD 
BRANCH  13  18
HETATM   18  C   UNL     1     -11.838  12.076  68.331  1.00  0.00    -0.300 A  
HETATM   19  C   UNL     1     -11.599  12.757  67.127  1.00  0.00    -0.426 A  
HETATM   20  C   UNL     1     -11.429  14.142  67.107  1.00  0.00    -0.373 A  
HETATM   21  C   UNL     1     -11.536  14.859  68.291  1.00  0.00    -0.334 A  
HETATM   22  C   UNL     1     -11.857  14.210  69.484  1.00  0.00    -0.373 A  
HETATM   23 CL   UNL     1     -11.252  16.557  68.283  1.00  0.00    -0.328 Cl 
HETATM   24  C   UNL     1     -12.029  12.818  69.500  1.00  0.00    -0.338 A  
ENDBRANCH  13  18
ENDBRANCH   2   4
TORSDOF 2
ENDMDL
MODEL       52
REMARK 921   NORMALIZED FREE ENERGY PREDICTED BY IDOCK:   -4.81 KCAL/MOL
REMARK 922        TOTAL FREE ENERGY PREDICTED BY IDOCK:   -5.58 KCAL/MOL
REMARK 923 INTER-LIGAND FREE ENERGY PREDICTED BY IDOCK:   -5.32 KCAL/MOL
REMARK 924 INTRA-LIGAND FREE ENERGY PREDICTED BY IDOCK:   -0.27 KCAL/MOL
REMARK 927      BINDING AFFINITY PREDICTED BY RF-SCORE:    0.00 PKD
ROOT
HETATM    1  C   UNL     1     -11.647   6.485  70.632  1.00  0.00    -0.442 C  
HETATM    2  C   UNL     1     -10.570   7.023  69.697  1.00  0.00    -0.234 C  
HETATM    3  C   UNL     1     -10.844   6.578  68.259  1.00  0.00    -0.359 C  
ENDROOT
BRANCH   2   4
HETATM    4  N   UNL     1     -10.535   8.474  69.752  1.00  0.00    -0.218 NA 
HETATM    5  C   UNL     1      -9.759   9.252  70.548  1.00  0.00    -0.260 C  
HETATM    6  H   UNL     1     -11.166   8.964  69.119  1.00  0.00     0.000 HD 
HETATM    7  N   UNL     1      -9.303   8.907  71.701  1.00  0.00    -0.276 NA 
HETATM    8  N   UNL     1      -9.472  10.490  70.052  1.00  0.00    -0.315 NA 
HETATM    9  H1  UNL     1      -8.720   9.493  72.300  1.00  0.00     0.000 HD 
HETATM   10  H2  UNL     1      -9.543   7.976  72.043  1.00  0.00     0.000 HD 
HETATM   11  C   UNL     1      -9.481  11.005  68.789  1.00  0.00    -0.183 C  
HETATM   12  H   UNL     1      -9.197  11.164  70.767  1.00  0.00     0.000 HD 
HETATM   13  N   UNL     1      -9.507  12.376  68.718  1.00  0.00    -0.409 NA 
HETATM   14  N   UNL     1      -9.501  10.250  67.730  1.00  0.00    -0.147 NA 
HETATM   15  H1  UNL     1      -9.508  10.635  66.785  1.00  0.00     0.000 HD 
HETATM   16  H2  UNL     1      -9.511   9.236  67.847  1.00  0.00     0.000 HD 
HETATM   17  H   UNL     1      -9.031  12.935  69.425  1.00  0.00     0.000 HD 
BRANCH  13  18
HETATM   18  C   UNL     1     -10.201  13.011  67.655  1.00  0.00    -0.216 A  
HETATM   19  C   UNL     1     -11.602  13.097  67.652  1.00  0.00    -0.392 A  
HETATM   20  C   UNL     1     -12.286  13.657  66.573  1.00  0.00    -0.454 A  
HETATM   21  C   UNL     1     -11.566  14.170  65.502  1.00  0.00    -0.337 A  
HETATM   22  C   UNL     1     -10.171  14.171  65.523  1.00  0.00    -0.371 A  
HETATM   23 CL   UNL     1     -12.407  14.792  64.135  1.00  0.00    -0.420 Cl 
HETATM   24  C   UNL     1      -9.487  13.609  66.612  1.00  0.00    -0.285 A  
ENDBRANCH  13  18
ENDBRANCH   2   4
TORSDOF 2
ENDMDL
MODEL       53
REMARK 921   NORMALIZED FREE ENERGY PREDICTED BY IDOCK:   -4.80 KCAL/MOL
REMARK 922        TOTAL FREE ENERGY PREDICTED BY IDOCK:   -5.57 KCAL/MOL
REMARK 923 INTER-LIGAND FREE ENERGY PREDICTED BY IDOCK:   -5.69 KCAL/MOL
REMARK 924 INTRA-LIGAND FREE ENERGY PREDICTED BY IDOCK:    0.12 KCAL/MOL
REMARK 927      BINDING AFFINITY PREDICTED BY RF-SCORE:    0.00 PKD
ROOT
HETATM    1  C   UNL     1     -10.000  10.934  65.727  1.00  0.00    -0.299 C  
HETATM    2  C   UNL     1      -9.870  11.992  64.638  1.00  0.00    -0.157 C  
HETATM    3  C   UNL     1     -10.608  11.546  63.374  1.00  0.00    -0.460 C  
ENDROOT
BRANCH   2   4
HETATM    4  N   UNL     1     -10.420  13.255  65.095  1.00  0.00    -0.319 NA 
HETATM    5  C   UNL     1     -11.613  13.464  65.707  1.00  0.00    -0.332 C  
HETATM    6  H   UNL     1      -9.844  14.082  64.937  1.00  0.00     0.000 HD 
HETATM    7  N   UNL     1     -12.659  12.729  65.558  1.00  0.00    -0.610 NA 
HETATM    8  N   UNL     1     -11.665  14.552  66.528  1.00  0.00    -0.380 NA 
HETATM    9  H1  UNL     1     -13.556  12.886  66.018  1.00  0.00     0.000 HD 
HETATM   10  H2  UNL     1     -12.585  11.927  64.931  1.00  0.00     0.000 HD 
HETATM   11  C   UNL     1     -10.701  15.280  67.161  1.00  0.00    -0.316 C  
HETATM   12  H   UNL     1     -12.612  14.889  66.703  1.00  0.00     0.000 HD 
HETATM   13  N   UNL     1     -11.094  16.525  67.588  1.00  0.00    -0.199 NA 
HETATM   14  N   UNL     1      -9.486  14.840  67.315  1.00  0.00    -0.210 NA 
HETATM   15  H1  UNL     1      -8.764  15.384  67.788  1.00  0.00     0.000 HD 
HETATM   16  H2  UNL     1      -9.245  13.919  66.949  1.00  0.00     0.000 HD 
HETATM   17  H   UNL     1     -12.051  16.679  67.905  1.00  0.00     0.000 HD 
BRANCH  13  18
HETATM   18  C   UNL     1     -10.162  17.595  67.585  1.00  0.00    -0.351 A  
HETATM   19  C   UNL     1      -9.745  18.190  66.384  1.00  0.00    -0.329 A  
HETATM   20  C   UNL     1      -8.776  19.193  66.377  1.00  0.00    -0.336 A  
HETATM   21  C   UNL     1      -8.243  19.635  67.581  1.00  0.00    -0.300 A  
HETATM   22  C   UNL     1      -8.705  19.115  68.791  1.00  0.00    -0.365 A  
HETATM   23 CL   UNL     1      -6.993  20.817  67.573  1.00  0.00    -0.392 Cl 
HETATM   24  C   UNL     1      -9.682  18.108  68.793  1.00  0.00    -0.337 A  
ENDBRANCH  13  18
ENDBRANCH   2   4
TORSDOF 2
ENDMDL
MODEL       54
REMARK 921   NORMALIZED FREE ENERGY PREDICTED BY IDOCK:   -4.80 KCAL/MOL
REMARK 922        TOTAL FREE ENERGY PREDICTED BY IDOCK:   -5.57 KCAL/MOL
REMARK 923 INTER-LIGAND FREE ENERGY PREDICTED BY IDOCK:   -5.84 KCAL/MOL
REMARK 924 INTRA-LIGAND FREE ENERGY PREDICTED BY IDOCK:    0.27 KCAL/MOL
REMARK 927      BINDING AFFINITY PREDICTED BY RF-SCORE:    0.00 PKD
ROOT
HETATM    1  C   UNL     1     -10.498  11.206  63.169  1.00  0.00    -0.243 C  
HETATM    2  C   UNL     1     -11.042  12.465  63.832  1.00  0.00    -0.415 C  
HETATM    3  C   UNL     1     -12.556  12.561  63.629  1.00  0.00    -0.495 C  
ENDROOT
BRANCH   2   4
HETATM    4  N   UNL     1     -10.749  12.452  65.254  1.00  0.00    -0.278 NA 
HETATM    5  C   UNL     1      -9.543  12.272  65.847  1.00  0.00    -0.198 C  
HETATM    6  H   UNL     1     -11.543  12.594  65.879  1.00  0.00     0.000 HD 
HETATM    7  N   UNL     1      -8.562  11.608  65.344  1.00  0.00    -0.358 NA 
HETATM    8  N   UNL     1      -9.405  12.851  67.075  1.00  0.00    -0.227 NA 
HETATM    9  H1  UNL     1      -7.655  11.473  65.791  1.00  0.00     0.000 HD 
HETATM   10  H2  UNL     1      -8.704  11.184  64.427  1.00  0.00     0.000 HD 
HETATM   11  C   UNL     1     -10.066  13.869  67.697  1.00  0.00    -0.241 C  
HETATM   12  H   UNL     1      -8.661  12.441  67.640  1.00  0.00     0.000 HD 
HETATM   13  N   UNL     1      -9.909  13.921  69.061  1.00  0.00    -0.428 NA 
HETATM   14  N   UNL     1     -10.821  14.708  67.049  1.00  0.00    -0.298 NA 
HETATM   15  H1  UNL     1     -11.316  15.469  67.514  1.00  0.00     0.000 HD 
HETATM   16  H2  UNL     1     -10.923  14.599  66.040  1.00  0.00     0.000 HD 
HETATM   17  H   UNL     1      -9.027  13.635  69.486  1.00  0.00     0.000 HD 
BRANCH  13  18
HETATM   18  C   UNL     1     -10.979  14.375  69.875  1.00  0.00    -0.061 A  
HETATM   19  C   UNL     1     -10.972  15.664  70.430  1.00  0.00    -0.366 A  
HETATM   20  C   UNL     1     -11.989  16.083  71.287  1.00  0.00    -0.475 A  
HETATM   21  C   UNL     1     -13.043  15.224  71.567  1.00  0.00    -0.438 A  
HETATM   22  C   UNL     1     -13.112  13.969  70.959  1.00  0.00    -0.342 A  
HETATM   23 CL   UNL     1     -14.259  15.708  72.684  1.00  0.00    -0.551 Cl 
HETATM   24  C   UNL     1     -12.088  13.553  70.095  1.00  0.00    -0.425 A  
ENDBRANCH  13  18
ENDBRANCH   2   4
TORSDOF 2
ENDMDL
MODEL       55
REMARK 921   NORMALIZED FREE ENERGY PREDICTED BY IDOCK:   -4.78 KCAL/MOL
REMARK 922        TOTAL FREE ENERGY PREDICTED BY IDOCK:   -5.55 KCAL/MOL
REMARK 923 INTER-LIGAND FREE ENERGY PREDICTED BY IDOCK:   -5.73 KCAL/MOL
REMARK 924 INTRA-LIGAND FREE ENERGY PREDICTED BY IDOCK:    0.19 KCAL/MOL
REMARK 927      BINDING AFFINITY PREDICTED BY RF-SCORE:    0.00 PKD
ROOT
HETATM    1  C   UNL     1     -12.116  10.125  71.627  1.00  0.00    -0.373 C  
HETATM    2  C   UNL     1     -12.741  11.290  70.870  1.00  0.00    -0.318 C  
HETATM    3  C   UNL     1     -13.189  12.378  71.847  1.00  0.00    -0.486 C  
ENDROOT
BRANCH   2   4
HETATM    4  N   UNL     1     -11.786  11.851  69.932  1.00  0.00    -0.414 NA 
HETATM    5  C   UNL     1     -11.556  11.461  68.654  1.00  0.00    -0.320 C  
HETATM    6  H   UNL     1     -11.221  12.629  70.275  1.00  0.00     0.000 HD 
HETATM    7  N   UNL     1     -11.745  10.273  68.197  1.00  0.00    -0.714 NA 
HETATM    8  N   UNL     1     -11.081  12.434  67.823  1.00  0.00    -0.233 NA 
HETATM    9  H1  UNL     1     -11.572   9.980  67.235  1.00  0.00     0.000 HD 
HETATM   10  H2  UNL     1     -12.095   9.569  68.849  1.00  0.00     0.000 HD 
HETATM   11  C   UNL     1     -11.118  13.797  67.879  1.00  0.00    -0.264 C  
HETATM   12  H   UNL     1     -10.604  12.072  66.998  1.00  0.00     0.000 HD 
HETATM   13  N   UNL     1     -10.211  14.439  67.072  1.00  0.00    -0.260 NA 
HETATM   14  N   UNL     1     -11.929  14.439  68.669  1.00  0.00    -0.479 NA 
HETATM   15  H1  UNL     1     -11.956  15.458  68.710  1.00  0.00     0.000 HD 
HETATM   16  H2  UNL     1     -12.559  13.905  69.268  1.00  0.00     0.000 HD 
HETATM   17  H   UNL     1      -9.950  14.035  66.173  1.00  0.00     0.000 HD 
BRANCH  13  18
HETATM   18  C   UNL     1      -9.640  15.667  67.496  1.00  0.00    -0.224 A  
HETATM   19  C   UNL     1      -8.262  15.780  67.740  1.00  0.00    -0.154 A  
HETATM   20  C   UNL     1      -7.713  16.967  68.225  1.00  0.00    -0.205 A  
HETATM   21  C   UNL     1      -8.538  18.064  68.434  1.00  0.00    -0.290 A  
HETATM   22  C   UNL     1      -9.896  17.999  68.118  1.00  0.00    -0.341 A  
HETATM   23 CL   UNL     1      -7.878  19.505  69.105  1.00  0.00    -0.330 Cl 
HETATM   24  C   UNL     1     -10.443  16.804  67.628  1.00  0.00    -0.328 A  
ENDBRANCH  13  18
ENDBRANCH   2   4
TORSDOF 2
ENDMDL
MODEL       56
REMARK 921   NORMALIZED FREE ENERGY PREDICTED BY IDOCK:   -4.75 KCAL/MOL
REMARK 922        TOTAL FREE ENERGY PREDICTED BY IDOCK:   -5.51 KCAL/MOL
REMARK 923 INTER-LIGAND FREE ENERGY PREDICTED BY IDOCK:   -5.58 KCAL/MOL
REMARK 924 INTRA-LIGAND FREE ENERGY PREDICTED BY IDOCK:    0.06 KCAL/MOL
REMARK 927      BINDING AFFINITY PREDICTED BY RF-SCORE:    0.00 PKD
ROOT
HETATM    1  C   UNL     1      -8.316  16.070  69.134  1.00  0.00    -0.244 C  
HETATM    2  C   UNL     1      -9.581  15.410  68.600  1.00  0.00    -0.204 C  
HETATM    3  C   UNL     1      -9.243  14.480  67.433  1.00  0.00    -0.202 C  
ENDROOT
BRANCH   2   4
HETATM    4  N   UNL     1     -10.231  14.646  69.650  1.00  0.00    -0.434 NA 
HETATM    5  C   UNL     1     -11.222  15.059  70.479  1.00  0.00    -0.248 C  
HETATM    6  H   UNL     1      -9.905  13.688  69.778  1.00  0.00     0.000 HD 
HETATM    7  N   UNL     1     -11.426  16.277  70.840  1.00  0.00    -0.537 NA 
HETATM    8  N   UNL     1     -12.038  14.071  70.950  1.00  0.00    -0.406 NA 
HETATM    9  H1  UNL     1     -12.171  16.587  71.464  1.00  0.00     0.000 HD 
HETATM   10  H2  UNL     1     -10.792  16.988  70.474  1.00  0.00     0.000 HD 
HETATM   11  C   UNL     1     -12.317  12.812  70.505  1.00  0.00    -0.275 C  
HETATM   12  H   UNL     1     -12.537  14.324  71.802  1.00  0.00     0.000 HD 
HETATM   13  N   UNL     1     -12.885  11.977  71.436  1.00  0.00    -0.350 NA 
HETATM   14  N   UNL     1     -12.032  12.421  69.297  1.00  0.00    -0.285 NA 
HETATM   15  H1  UNL     1     -12.240  11.479  68.965  1.00  0.00     0.000 HD 
HETATM   16  H2  UNL     1     -11.582  13.079  68.660  1.00  0.00     0.000 HD 
HETATM   17  H   UNL     1     -13.516  12.352  72.143  1.00  0.00     0.000 HD 
BRANCH  13  18
HETATM   18  C   UNL     1     -12.587  10.589  71.409  1.00  0.00    -0.434 A  
HETATM   19  C   UNL     1     -13.599   9.628  71.557  1.00  0.00    -0.376 A  
HETATM   20  C   UNL     1     -13.297   8.267  71.602  1.00  0.00    -0.353 A  
HETATM   21  C   UNL     1     -11.978   7.856  71.461  1.00  0.00    -0.301 A  
HETATM   22  C   UNL     1     -10.968   8.791  71.228  1.00  0.00    -0.345 A  
HETATM   23 CL   UNL     1     -11.591   6.185  71.592  1.00  0.00    -0.342 Cl 
HETATM   24  C   UNL     1     -11.277  10.159  71.181  1.00  0.00    -0.244 A  
ENDBRANCH  13  18
ENDBRANCH   2   4
TORSDOF 2
ENDMDL
MODEL       57
REMARK 921   NORMALIZED FREE ENERGY PREDICTED BY IDOCK:   -4.67 KCAL/MOL
REMARK 922        TOTAL FREE ENERGY PREDICTED BY IDOCK:   -5.42 KCAL/MOL
REMARK 923 INTER-LIGAND FREE ENERGY PREDICTED BY IDOCK:   -5.54 KCAL/MOL
REMARK 924 INTRA-LIGAND FREE ENERGY PREDICTED BY IDOCK:    0.12 KCAL/MOL
REMARK 927      BINDING AFFINITY PREDICTED BY RF-SCORE:    0.00 PKD
ROOT
HETATM    1  C   UNL     1     -10.210  11.394  63.509  1.00  0.00    -0.461 C  
HETATM    2  C   UNL     1     -10.320  10.823  64.917  1.00  0.00    -0.299 C  
HETATM    3  C   UNL     1      -8.951  10.346  65.405  1.00  0.00    -0.207 C  
ENDROOT
BRANCH   2   4
HETATM    4  N   UNL     1     -10.831  11.829  65.830  1.00  0.00    -0.283 NA 
HETATM    5  C   UNL     1     -11.231  11.653  67.114  1.00  0.00    -0.309 C  
HETATM    6  H   UNL     1     -10.897  12.779  65.464  1.00  0.00     0.000 HD 
HETATM    7  N   UNL     1     -11.701  10.557  67.599  1.00  0.00    -0.574 NA 
HETATM    8  N   UNL     1     -11.117  12.750  67.917  1.00  0.00    -0.234 NA 
HETATM    9  H1  UNL     1     -12.003  10.425  68.565  1.00  0.00     0.000 HD 
HETATM   10  H2  UNL     1     -11.779   9.759  66.968  1.00  0.00     0.000 HD 
HETATM   11  C   UNL     1     -10.362  13.883  67.832  1.00  0.00    -0.240 C  
HETATM   12  H   UNL     1     -11.712  12.717  68.744  1.00  0.00     0.000 HD 
HETATM   13  N   UNL     1     -10.789  14.929  68.613  1.00  0.00    -0.242 NA 
HETATM   14  N   UNL     1      -9.335  13.978  67.038  1.00  0.00    -0.240 NA 
HETATM   15  H1  UNL     1      -8.771  14.825  66.974  1.00  0.00     0.000 HD 
HETATM   16  H2  UNL     1      -9.085  13.176  66.459  1.00  0.00     0.000 HD 
HETATM   17  H   UNL     1     -11.224  14.749  69.517  1.00  0.00     0.000 HD 
BRANCH  13  18
HETATM   18  C   UNL     1     -10.621  16.262  68.155  1.00  0.00    -0.307 A  
HETATM   19  C   UNL     1     -10.766  16.586  66.797  1.00  0.00    -0.155 A  
HETATM   20  C   UNL     1     -10.531  17.882  66.338  1.00  0.00    -0.318 A  
HETATM   21  C   UNL     1     -10.184  18.874  67.245  1.00  0.00    -0.390 A  
HETATM   22  C   UNL     1     -10.117  18.592  68.610  1.00  0.00    -0.406 A  
HETATM   23 CL   UNL     1      -9.818  20.455  66.673  1.00  0.00    -0.545 Cl 
HETATM   24  C   UNL     1     -10.357  17.288  69.067  1.00  0.00    -0.330 A  
ENDBRANCH  13  18
ENDBRANCH   2   4
TORSDOF 2
ENDMDL
MODEL       58
REMARK 921   NORMALIZED FREE ENERGY PREDICTED BY IDOCK:   -4.64 KCAL/MOL
REMARK 922        TOTAL FREE ENERGY PREDICTED BY IDOCK:   -5.39 KCAL/MOL
REMARK 923 INTER-LIGAND FREE ENERGY PREDICTED BY IDOCK:   -5.66 KCAL/MOL
REMARK 924 INTRA-LIGAND FREE ENERGY PREDICTED BY IDOCK:    0.27 KCAL/MOL
REMARK 927      BINDING AFFINITY PREDICTED BY RF-SCORE:    0.00 PKD
ROOT
HETATM    1  C   UNL     1     -10.743   8.089  72.807  1.00  0.00    -0.431 C  
HETATM    2  C   UNL     1      -9.515   8.578  72.050  1.00  0.00    -0.294 C  
HETATM    3  C   UNL     1      -8.499   7.443  71.898  1.00  0.00    -0.117 C  
ENDROOT
BRANCH   2   4
HETATM    4  N   UNL     1      -9.893   9.061  70.734  1.00  0.00    -0.221 NA 
HETATM    5  C   UNL     1     -10.828   8.541  69.900  1.00  0.00    -0.205 C  
HETATM    6  H   UNL     1      -9.399   9.888  70.398  1.00  0.00     0.000 HD 
HETATM    7  N   UNL     1     -11.184   7.304  69.867  1.00  0.00    -0.422 NA 
HETATM    8  N   UNL     1     -11.403   9.430  69.040  1.00  0.00    -0.441 NA 
HETATM    9  H1  UNL     1     -11.887   6.913  69.240  1.00  0.00     0.000 HD 
HETATM   10  H2  UNL     1     -10.728   6.666  70.520  1.00  0.00     0.000 HD 
HETATM   11  C   UNL     1     -11.523  10.789  69.059  1.00  0.00    -0.298 C  
HETATM   12  H   UNL     1     -11.828   8.994  68.222  1.00  0.00     0.000 HD 
HETATM   13  N   UNL     1     -11.823  11.366  67.849  1.00  0.00    -0.632 NA 
HETATM   14  N   UNL     1     -11.328  11.490  70.138  1.00  0.00    -0.498 NA 
HETATM   15  H1  UNL     1     -11.417  12.506  70.152  1.00  0.00     0.000 HD 
HETATM   16  H2  UNL     1     -11.077  11.007  71.001  1.00  0.00     0.000 HD 
HETATM   17  H   UNL     1     -12.415  10.874  67.180  1.00  0.00     0.000 HD 
BRANCH  13  18
HETATM   18  C   UNL     1     -11.305  12.649  67.535  1.00  0.00    -0.308 A  
HETATM   19  C   UNL     1     -10.113  12.791  66.807  1.00  0.00    -0.239 A  
HETATM   20  C   UNL     1      -9.567  14.051  66.561  1.00  0.00    -0.307 A  
HETATM   21  C   UNL     1     -10.234  15.183  67.011  1.00  0.00    -0.262 A  
HETATM   22  C   UNL     1     -11.462  15.067  67.664  1.00  0.00    -0.344 A  
HETATM   23 CL   UNL     1      -9.525  16.734  66.777  1.00  0.00    -0.248 Cl 
HETATM   24  C   UNL     1     -12.008  13.799  67.907  1.00  0.00    -0.391 A  
ENDBRANCH  13  18
ENDBRANCH   2   4
TORSDOF 2
ENDMDL
MODEL       59
REMARK 921   NORMALIZED FREE ENERGY PREDICTED BY IDOCK:   -4.63 KCAL/MOL
REMARK 922        TOTAL FREE ENERGY PREDICTED BY IDOCK:   -5.38 KCAL/MOL
REMARK 923 INTER-LIGAND FREE ENERGY PREDICTED BY IDOCK:   -5.18 KCAL/MOL
REMARK 924 INTRA-LIGAND FREE ENERGY PREDICTED BY IDOCK:   -0.21 KCAL/MOL
REMARK 927      BINDING AFFINITY PREDICTED BY RF-SCORE:    0.00 PKD
ROOT
HETATM    1  C   UNL     1      -9.870   9.087  68.826  1.00  0.00    -0.180 C  
HETATM    2  C   UNL     1     -10.831  10.081  68.185  1.00  0.00    -0.255 C  
HETATM    3  C   UNL     1     -11.807  10.625  69.230  1.00  0.00    -0.309 C  
ENDROOT
BRANCH   2   4
HETATM    4  N   UNL     1     -10.094  11.184  67.596  1.00  0.00    -0.176 NA 
HETATM    5  C   UNL     1      -9.533  11.238  66.362  1.00  0.00    -0.200 C  
HETATM    6  H   UNL     1      -9.985  12.016  68.177  1.00  0.00     0.000 HD 
HETATM    7  N   UNL     1      -9.111  10.221  65.696  1.00  0.00    -0.165 NA 
HETATM    8  N   UNL     1      -9.418  12.488  65.827  1.00  0.00    -0.437 NA 
HETATM    9  H1  UNL     1      -8.689  10.262  64.768  1.00  0.00     0.000 HD 
HETATM   10  H2  UNL     1      -9.207   9.302  66.130  1.00  0.00     0.000 HD 
HETATM   11  C   UNL     1     -10.058  13.666  66.083  1.00  0.00    -0.306 C  
HETATM   12  H   UNL     1      -8.716  12.556  65.091  1.00  0.00     0.000 HD 
HETATM   13  N   UNL     1      -9.419  14.790  65.621  1.00  0.00    -0.507 NA 
HETATM   14  N   UNL     1     -11.174  13.721  66.751  1.00  0.00    -0.309 NA 
HETATM   15  H1  UNL     1     -11.652  14.602  66.942  1.00  0.00     0.000 HD 
HETATM   16  H2  UNL     1     -11.585  12.853  67.095  1.00  0.00     0.000 HD 
HETATM   17  H   UNL     1      -8.878  14.753  64.757  1.00  0.00     0.000 HD 
BRANCH  13  18
HETATM   18  C   UNL     1      -9.514  16.003  66.352  1.00  0.00    -0.293 A  
HETATM   19  C   UNL     1      -8.811  16.182  67.554  1.00  0.00    -0.198 A  
HETATM   20  C   UNL     1      -8.961  17.346  68.308  1.00  0.00    -0.268 A  
HETATM   21  C   UNL     1      -9.791  18.358  67.842  1.00  0.00    -0.329 A  
HETATM   22  C   UNL     1     -10.433  18.234  66.609  1.00  0.00    -0.382 A  
HETATM   23 CL   UNL     1     -10.039  19.762  68.806  1.00  0.00    -0.552 Cl 
HETATM   24  C   UNL     1     -10.277  17.063  65.853  1.00  0.00    -0.311 A  
ENDBRANCH  13  18
ENDBRANCH   2   4
TORSDOF 2
ENDMDL
MODEL       60
REMARK 921   NORMALIZED FREE ENERGY PREDICTED BY IDOCK:   -4.55 KCAL/MOL
REMARK 922        TOTAL FREE ENERGY PREDICTED BY IDOCK:   -5.30 KCAL/MOL
REMARK 923 INTER-LIGAND FREE ENERGY PREDICTED BY IDOCK:   -5.08 KCAL/MOL
REMARK 924 INTRA-LIGAND FREE ENERGY PREDICTED BY IDOCK:   -0.22 KCAL/MOL
REMARK 927      BINDING AFFINITY PREDICTED BY RF-SCORE:    0.00 PKD
ROOT
HETATM    1  C   UNL     1     -11.687  14.261  69.332  1.00  0.00    -0.363 C  
HETATM    2  C   UNL     1     -11.775  14.701  67.876  1.00  0.00    -0.351 C  
HETATM    3  C   UNL     1     -10.585  15.593  67.518  1.00  0.00    -0.297 C  
ENDROOT
BRANCH   2   4
HETATM    4  N   UNL     1     -11.787  13.542  67.001  1.00  0.00    -0.388 NA 
HETATM    5  C   UNL     1     -12.299  13.459  65.747  1.00  0.00    -0.460 C  
HETATM    6  H   UNL     1     -11.361  12.693  67.371  1.00  0.00     0.000 HD 
HETATM    7  N   UNL     1     -13.271  14.172  65.296  1.00  0.00    -0.670 NA 
HETATM    8  N   UNL     1     -11.714  12.528  64.939  1.00  0.00    -0.343 NA 
HETATM    9  H1  UNL     1     -13.655  14.109  64.353  1.00  0.00     0.000 HD 
HETATM   10  H2  UNL     1     -13.688  14.854  65.931  1.00  0.00     0.000 HD 
HETATM   11  C   UNL     1     -10.500  11.907  64.972  1.00  0.00    -0.289 C  
HETATM   12  H   UNL     1     -12.300  12.240  64.155  1.00  0.00     0.000 HD 
HETATM   13  N   UNL     1     -10.411  10.759  64.223  1.00  0.00    -0.395 NA 
HETATM   14  N   UNL     1      -9.511  12.349  65.693  1.00  0.00    -0.435 NA 
HETATM   15  H1  UNL     1      -8.603  11.883  65.718  1.00  0.00     0.000 HD 
HETATM   16  H2  UNL     1      -9.648  13.190  66.253  1.00  0.00     0.000 HD 
HETATM   17  H   UNL     1     -10.933  10.675  63.351  1.00  0.00     0.000 HD 
BRANCH  13  18
HETATM   18  C   UNL     1      -9.590   9.691  64.668  1.00  0.00    -0.077 A  
HETATM   19  C   UNL     1      -8.482   9.266  63.918  1.00  0.00    -0.198 A  
HETATM   20  C   UNL     1      -7.719   8.171  64.320  1.00  0.00    -0.128 A  
HETATM   21  C   UNL     1      -8.039   7.513  65.501  1.00  0.00    -0.131 A  
HETATM   22  C   UNL     1      -9.085   7.971  66.304  1.00  0.00    -0.232 A  
HETATM   23 CL   UNL     1      -7.148   6.114  65.961  1.00  0.00    -0.065 Cl 
HETATM   24  C   UNL     1      -9.848   9.075  65.896  1.00  0.00    -0.257 A  
ENDBRANCH  13  18
ENDBRANCH   2   4
TORSDOF 2
ENDMDL
MODEL       61
REMARK 921   NORMALIZED FREE ENERGY PREDICTED BY IDOCK:   -4.49 KCAL/MOL
REMARK 922        TOTAL FREE ENERGY PREDICTED BY IDOCK:   -5.22 KCAL/MOL
REMARK 923 INTER-LIGAND FREE ENERGY PREDICTED BY IDOCK:   -5.37 KCAL/MOL
REMARK 924 INTRA-LIGAND FREE ENERGY PREDICTED BY IDOCK:    0.15 KCAL/MOL
REMARK 927      BINDING AFFINITY PREDICTED BY RF-SCORE:    0.00 PKD
ROOT
HETATM    1  C   UNL     1     -13.478  10.170  72.056  1.00  0.00    -0.418 C  
HETATM    2  C   UNL     1     -12.190   9.370  71.902  1.00  0.00    -0.368 C  
HETATM    3  C   UNL     1     -12.502   7.944  71.445  1.00  0.00    -0.330 C  
ENDROOT
BRANCH   2   4
HETATM    4  N   UNL     1     -11.317  10.005  70.930  1.00  0.00    -0.346 NA 
HETATM    5  C   UNL     1     -10.124   9.551  70.471  1.00  0.00    -0.285 C  
HETATM    6  H   UNL     1     -11.638  10.895  70.550  1.00  0.00     0.000 HD 
HETATM    7  N   UNL     1      -9.322   8.787  71.125  1.00  0.00    -0.210 NA 
HETATM    8  N   UNL     1      -9.785   9.968  69.217  1.00  0.00    -0.203 NA 
HETATM    9  H1  UNL     1      -8.424   8.446  70.779  1.00  0.00     0.000 HD 
HETATM   10  H2  UNL     1      -9.605   8.500  72.063  1.00  0.00     0.000 HD 
HETATM   11  C   UNL     1     -10.519  10.444  68.171  1.00  0.00    -0.188 C  
HETATM   12  H   UNL     1      -8.785   9.914  69.024  1.00  0.00     0.000 HD 
HETATM   13  N   UNL     1      -9.802  11.118  67.213  1.00  0.00    -0.173 NA 
HETATM   14  N   UNL     1     -11.811  10.302  68.105  1.00  0.00    -0.672 NA 
HETATM   15  H1  UNL     1     -12.361  10.658  67.323  1.00  0.00     0.000 HD 
HETATM   16  H2  UNL     1     -12.292   9.818  68.863  1.00  0.00     0.000 HD 
HETATM   17  H   UNL     1      -8.846  10.838  66.997  1.00  0.00     0.000 HD 
BRANCH  13  18
HETATM   18  C   UNL     1     -10.399  12.207  66.525  1.00  0.00    -0.213 A  
HETATM   19  C   UNL     1     -11.177  13.156  67.207  1.00  0.00    -0.319 A  
HETATM   20  C   UNL     1     -11.822  14.185  66.519  1.00  0.00    -0.439 A  
HETATM   21  C   UNL     1     -11.661  14.291  65.144  1.00  0.00    -0.368 A  
HETATM   22  C   UNL     1     -10.825  13.407  64.459  1.00  0.00    -0.419 A  
HETATM   23 CL   UNL     1     -12.516  15.511  64.282  1.00  0.00    -0.116 Cl 
HETATM   24  C   UNL     1     -10.177  12.376  65.155  1.00  0.00    -0.305 A  
ENDBRANCH  13  18
ENDBRANCH   2   4
TORSDOF 2
ENDMDL
MODEL       62
REMARK 921   NORMALIZED FREE ENERGY PREDICTED BY IDOCK:   -4.46 KCAL/MOL
REMARK 922        TOTAL FREE ENERGY PREDICTED BY IDOCK:   -5.19 KCAL/MOL
REMARK 923 INTER-LIGAND FREE ENERGY PREDICTED BY IDOCK:   -4.92 KCAL/MOL
REMARK 924 INTRA-LIGAND FREE ENERGY PREDICTED BY IDOCK:   -0.27 KCAL/MOL
REMARK 927      BINDING AFFINITY PREDICTED BY RF-SCORE:    0.00 PKD
ROOT
HETATM    1  C   UNL     1      -8.971   6.319  69.503  1.00  0.00    -0.134 C  
HETATM    2  C   UNL     1     -10.306   6.961  69.145  1.00  0.00    -0.195 C  
HETATM    3  C   UNL     1     -11.082   7.315  70.414  1.00  0.00    -0.291 C  
ENDROOT
BRANCH   2   4
HETATM    4  N   UNL     1     -10.091   8.164  68.362  1.00  0.00    -0.195 NA 
HETATM    5  C   UNL     1     -10.164   8.298  67.014  1.00  0.00    -0.310 C  
HETATM    6  H   UNL     1      -9.858   9.008  68.887  1.00  0.00     0.000 HD 
HETATM    7  N   UNL     1      -9.941   7.357  66.165  1.00  0.00    -0.436 NA 
HETATM    8  N   UNL     1     -10.494   9.544  66.568  1.00  0.00    -0.178 NA 
HETATM    9  H1  UNL     1      -9.996   7.458  65.151  1.00  0.00     0.000 HD 
HETATM   10  H2  UNL     1      -9.691   6.439  66.534  1.00  0.00     0.000 HD 
HETATM   11  C   UNL     1     -11.118  10.603  67.160  1.00  0.00    -0.196 C  
HETATM   12  H   UNL     1     -10.220   9.720  65.601  1.00  0.00     0.000 HD 
HETATM   13  N   UNL     1     -10.935  11.812  66.535  1.00  0.00    -0.283 NA 
HETATM   14  N   UNL     1     -11.805  10.481  68.258  1.00  0.00    -0.785 NA 
HETATM   15  H1  UNL     1     -12.272  11.272  68.701  1.00  0.00     0.000 HD 
HETATM   16  H2  UNL     1     -11.880   9.561  68.692  1.00  0.00     0.000 HD 
HETATM   17  H   UNL     1     -10.846  11.857  65.521  1.00  0.00     0.000 HD 
BRANCH  13  18
HETATM   18  C   UNL     1     -10.871  13.000  67.310  1.00  0.00    -0.252 A  
HETATM   19  C   UNL     1     -11.961  13.883  67.373  1.00  0.00    -0.436 A  
HETATM   20  C   UNL     1     -11.872  15.085  68.076  1.00  0.00    -0.266 A  
HETATM   21  C   UNL     1     -10.699  15.394  68.752  1.00  0.00    -0.241 A  
HETATM   22  C   UNL     1      -9.635  14.491  68.771  1.00  0.00    -0.193 A  
HETATM   23 CL   UNL     1     -10.557  16.909  69.556  1.00  0.00    -0.305 Cl 
HETATM   24  C   UNL     1      -9.730  13.283  68.065  1.00  0.00    -0.223 A  
ENDBRANCH  13  18
ENDBRANCH   2   4
TORSDOF 2
ENDMDL
MODEL       63
REMARK 921   NORMALIZED FREE ENERGY PREDICTED BY IDOCK:   -4.37 KCAL/MOL
REMARK 922        TOTAL FREE ENERGY PREDICTED BY IDOCK:   -5.09 KCAL/MOL
REMARK 923 INTER-LIGAND FREE ENERGY PREDICTED BY IDOCK:   -4.97 KCAL/MOL
REMARK 924 INTRA-LIGAND FREE ENERGY PREDICTED BY IDOCK:   -0.12 KCAL/MOL
REMARK 927      BINDING AFFINITY PREDICTED BY RF-SCORE:    0.00 PKD
ROOT
HETATM    1  C   UNL     1      -8.489  15.744  69.276  1.00  0.00    -0.258 C  
HETATM    2  C   UNL     1     -10.011  15.724  69.203  1.00  0.00    -0.241 C  
HETATM    3  C   UNL     1     -10.488  16.339  67.886  1.00  0.00    -0.295 C  
ENDROOT
BRANCH   2   4
HETATM    4  N   UNL     1     -10.500  14.360  69.301  1.00  0.00    -0.388 NA 
HETATM    5  C   UNL     1     -11.791  13.948  69.356  1.00  0.00    -0.334 C  
HETATM    6  H   UNL     1      -9.791  13.628  69.332  1.00  0.00     0.000 HD 
HETATM    7  N   UNL     1     -12.770  14.641  69.823  1.00  0.00    -0.574 NA 
HETATM    8  N   UNL     1     -12.024  12.692  68.876  1.00  0.00    -0.286 NA 
HETATM    9  H1  UNL     1     -13.741  14.330  69.865  1.00  0.00     0.000 HD 
HETATM   10  H2  UNL     1     -12.558  15.573  70.180  1.00  0.00     0.000 HD 
HETATM   11  C   UNL     1     -11.329  11.885  68.023  1.00  0.00    -0.288 C  
HETATM   12  H   UNL     1     -12.887  12.274  69.222  1.00  0.00     0.000 HD 
HETATM   13  N   UNL     1     -11.669  10.555  68.071  1.00  0.00    -0.750 NA 
HETATM   14  N   UNL     1     -10.386  12.338  67.249  1.00  0.00    -0.213 NA 
HETATM   15  H1  UNL     1      -9.867  11.734  66.612  1.00  0.00     0.000 HD 
HETATM   16  H2  UNL     1     -10.158  13.331  67.280  1.00  0.00     0.000 HD 
HETATM   17  H   UNL     1     -12.631  10.279  68.264  1.00  0.00     0.000 HD 
BRANCH  13  18
HETATM   18  C   UNL     1     -10.674   9.567  67.852  1.00  0.00    -0.228 A  
HETATM   19  C   UNL     1     -10.353   9.136  66.555  1.00  0.00    -0.269 A  
HETATM   20  C   UNL     1      -9.427   8.115  66.345  1.00  0.00    -0.285 A  
HETATM   21  C   UNL     1      -8.785   7.541  67.435  1.00  0.00    -0.124 A  
HETATM   22  C   UNL     1      -9.028   8.013  68.726  1.00  0.00    -0.141 A  
HETATM   23 CL   UNL     1      -7.700   6.230  67.187  1.00  0.00    -0.096 Cl 
HETATM   24  C   UNL     1      -9.958   9.042  68.932  1.00  0.00    -0.197 A  
ENDBRANCH  13  18
ENDBRANCH   2   4
TORSDOF 2
ENDMDL
MODEL       64
REMARK 921   NORMALIZED FREE ENERGY PREDICTED BY IDOCK:   -4.36 KCAL/MOL
REMARK 922        TOTAL FREE ENERGY PREDICTED BY IDOCK:   -5.08 KCAL/MOL
REMARK 923 INTER-LIGAND FREE ENERGY PREDICTED BY IDOCK:   -4.83 KCAL/MOL
REMARK 924 INTRA-LIGAND FREE ENERGY PREDICTED BY IDOCK:   -0.25 KCAL/MOL
REMARK 927      BINDING AFFINITY PREDICTED BY RF-SCORE:    0.00 PKD
ROOT
HETATM    1  C   UNL     1     -13.272  10.331  71.878  1.00  0.00    -0.550 C  
HETATM    2  C   UNL     1     -13.200   8.864  72.286  1.00  0.00    -0.447 C  
HETATM    3  C   UNL     1     -14.386   8.093  71.703  1.00  0.00    -0.570 C  
ENDROOT
BRANCH   2   4
HETATM    4  N   UNL     1     -11.963   8.270  71.813  1.00  0.00    -0.297 NA 
HETATM    5  C   UNL     1     -11.215   7.319  72.426  1.00  0.00    -0.281 C  
HETATM    6  H   UNL     1     -11.615   8.608  70.915  1.00  0.00     0.000 HD 
HETATM    7  N   UNL     1     -11.161   7.127  73.697  1.00  0.00    -0.536 NA 
HETATM    8  N   UNL     1     -10.473   6.533  71.593  1.00  0.00    -0.211 NA 
HETATM    9  H1  UNL     1     -10.598   6.412  74.159  1.00  0.00     0.000 HD 
HETATM   10  H2  UNL     1     -11.724   7.738  74.290  1.00  0.00     0.000 HD 
HETATM   11  C   UNL     1     -10.575   6.239  70.265  1.00  0.00    -0.248 C  
HETATM   12  H   UNL     1      -9.688   6.075  72.055  1.00  0.00     0.000 HD 
HETATM   13  N   UNL     1      -9.438   5.723  69.693  1.00  0.00    -0.137 NA 
HETATM   14  N   UNL     1     -11.659   6.468  69.583  1.00  0.00    -0.629 NA 
HETATM   15  H1  UNL     1     -11.735   6.248  68.589  1.00  0.00     0.000 HD 
HETATM   16  H2  UNL     1     -12.462   6.882  70.057  1.00  0.00     0.000 HD 
HETATM   17  H   UNL     1      -8.817   5.125  70.237  1.00  0.00     0.000 HD 
BRANCH  13  18
HETATM   18  C   UNL     1      -9.133   6.026  68.340  1.00  0.00    -0.112 A  
HETATM   19  C   UNL     1      -9.543   5.181  67.297  1.00  0.00    -0.155 A  
HETATM   20  C   UNL     1      -9.180   5.442  65.976  1.00  0.00    -0.166 A  
HETATM   21  C   UNL     1      -8.433   6.576  65.685  1.00  0.00    -0.144 A  
HETATM   22  C   UNL     1      -8.087   7.473  66.697  1.00  0.00    -0.123 A  
HETATM   23 CL   UNL     1      -7.919   6.861  64.068  1.00  0.00    -0.104 Cl 
HETATM   24  C   UNL     1      -8.456   7.208  68.024  1.00  0.00    -0.122 A  
ENDBRANCH  13  18
ENDBRANCH   2   4
TORSDOF 2
ENDMDL
MODEL       65
REMARK 921   NORMALIZED FREE ENERGY PREDICTED BY IDOCK:   -4.36 KCAL/MOL
REMARK 922        TOTAL FREE ENERGY PREDICTED BY IDOCK:   -5.08 KCAL/MOL
REMARK 923 INTER-LIGAND FREE ENERGY PREDICTED BY IDOCK:   -4.83 KCAL/MOL
REMARK 924 INTRA-LIGAND FREE ENERGY PREDICTED BY IDOCK:   -0.24 KCAL/MOL
REMARK 927      BINDING AFFINITY PREDICTED BY RF-SCORE:    0.00 PKD
ROOT
HETATM    1  C   UNL     1      -9.301  18.552  68.745  1.00  0.00    -0.317 C  
HETATM    2  C   UNL     1     -10.363  17.641  68.143  1.00  0.00    -0.386 C  
HETATM    3  C   UNL     1     -10.175  17.534  66.628  1.00  0.00    -0.332 C  
ENDROOT
BRANCH   2   4
HETATM    4  N   UNL     1     -10.280  16.316  68.731  1.00  0.00    -0.235 NA 
HETATM    5  C   UNL     1     -10.967  15.842  69.800  1.00  0.00    -0.316 C  
HETATM    6  H   UNL     1      -9.630  15.666  68.289  1.00  0.00     0.000 HD 
HETATM    7  N   UNL     1     -11.416  16.560  70.769  1.00  0.00    -0.529 NA 
HETATM    8  N   UNL     1     -11.168  14.492  69.813  1.00  0.00    -0.328 NA 
HETATM    9  H1  UNL     1     -11.933  16.203  71.573  1.00  0.00     0.000 HD 
HETATM   10  H2  UNL     1     -11.241  17.565  70.729  1.00  0.00     0.000 HD 
HETATM   11  C   UNL     1     -11.155  13.546  68.831  1.00  0.00    -0.267 C  
HETATM   12  H   UNL     1     -11.368  14.116  70.740  1.00  0.00     0.000 HD 
HETATM   13  N   UNL     1     -11.020  12.251  69.268  1.00  0.00    -0.426 NA 
HETATM   14  N   UNL     1     -11.226  13.852  67.568  1.00  0.00    -0.292 NA 
HETATM   15  H1  UNL     1     -11.216  13.145  66.833  1.00  0.00     0.000 HD 
HETATM   16  H2  UNL     1     -11.294  14.835  67.303  1.00  0.00     0.000 HD 
HETATM   17  H   UNL     1     -11.429  11.966  70.158  1.00  0.00     0.000 HD 
BRANCH  13  18
HETATM   18  C   UNL     1     -10.309  11.312  68.477  1.00  0.00    -0.203 A  
HETATM   19  C   UNL     1     -10.987  10.357  67.702  1.00  0.00    -0.374 A  
HETATM   20  C   UNL     1     -10.287   9.389  66.981  1.00  0.00    -0.322 A  
HETATM   21  C   UNL     1      -8.898   9.394  67.002  1.00  0.00    -0.127 A  
HETATM   22  C   UNL     1      -8.206  10.386  67.699  1.00  0.00    -0.110 A  
HETATM   23 CL   UNL     1      -8.033   8.157  66.177  1.00  0.00    -0.098 Cl 
HETATM   24  C   UNL     1      -8.914  11.359  68.420  1.00  0.00    -0.172 A  
ENDBRANCH  13  18
ENDBRANCH   2   4
TORSDOF 2
ENDMDL
MODEL       66
REMARK 921   NORMALIZED FREE ENERGY PREDICTED BY IDOCK:   -4.32 KCAL/MOL
REMARK 922        TOTAL FREE ENERGY PREDICTED BY IDOCK:   -5.03 KCAL/MOL
REMARK 923 INTER-LIGAND FREE ENERGY PREDICTED BY IDOCK:   -5.18 KCAL/MOL
REMARK 924 INTRA-LIGAND FREE ENERGY PREDICTED BY IDOCK:    0.15 KCAL/MOL
REMARK 927      BINDING AFFINITY PREDICTED BY RF-SCORE:    0.00 PKD
ROOT
HETATM    1  C   UNL     1     -11.166   7.311  72.852  1.00  0.00    -0.336 C  
HETATM    2  C   UNL     1     -11.573   7.131  71.395  1.00  0.00    -0.283 C  
HETATM    3  C   UNL     1     -13.066   7.419  71.221  1.00  0.00    -0.349 C  
ENDROOT
BRANCH   2   4
HETATM    4  N   UNL     1     -10.809   8.026  70.545  1.00  0.00    -0.238 NA 
HETATM    5  C   UNL     1      -9.472   8.010  70.318  1.00  0.00    -0.167 C  
HETATM    6  H   UNL     1     -11.340   8.752  70.062  1.00  0.00     0.000 HD 
HETATM    7  N   UNL     1      -8.587   7.569  71.142  1.00  0.00    -0.121 NA 
HETATM    8  N   UNL     1      -9.078   8.518  69.115  1.00  0.00    -0.146 NA 
HETATM    9  H1  UNL     1      -7.581   7.557  70.971  1.00  0.00     0.000 HD 
HETATM   10  H2  UNL     1      -8.918   7.203  72.035  1.00  0.00     0.000 HD 
HETATM   11  C   UNL     1      -9.733   8.712  67.934  1.00  0.00    -0.161 C  
HETATM   12  H   UNL     1      -8.102   8.811  69.093  1.00  0.00     0.000 HD 
HETATM   13  N   UNL     1      -9.129   9.591  67.069  1.00  0.00    -0.133 NA 
HETATM   14  N   UNL     1     -10.868   8.134  67.664  1.00  0.00    -0.507 NA 
HETATM   15  H1  UNL     1     -11.357   8.279  66.781  1.00  0.00     0.000 HD 
HETATM   16  H2  UNL     1     -11.282   7.514  68.360  1.00  0.00     0.000 HD 
HETATM   17  H   UNL     1      -8.112   9.656  67.032  1.00  0.00     0.000 HD 
BRANCH  13  18
HETATM   18  C   UNL     1      -9.928  10.407  66.226  1.00  0.00    -0.226 A  
HETATM   19  C   UNL     1      -9.861  10.291  64.829  1.00  0.00    -0.403 A  
HETATM   20  C   UNL     1     -10.592  11.143  64.001  1.00  0.00    -0.436 A  
HETATM   21  C   UNL     1     -11.427  12.096  64.569  1.00  0.00    -0.334 A  
HETATM   22  C   UNL     1     -11.571  12.172  65.956  1.00  0.00    -0.420 A  
HETATM   23 CL   UNL     1     -12.271  13.199  63.553  1.00  0.00    -0.587 Cl 
HETATM   24  C   UNL     1     -10.836  11.312  66.784  1.00  0.00    -0.334 A  
ENDBRANCH  13  18
ENDBRANCH   2   4
TORSDOF 2
ENDMDL
MODEL       67
REMARK 921   NORMALIZED FREE ENERGY PREDICTED BY IDOCK:   -4.31 KCAL/MOL
REMARK 922        TOTAL FREE ENERGY PREDICTED BY IDOCK:   -5.02 KCAL/MOL
REMARK 923 INTER-LIGAND FREE ENERGY PREDICTED BY IDOCK:   -4.75 KCAL/MOL
REMARK 924 INTRA-LIGAND FREE ENERGY PREDICTED BY IDOCK:   -0.28 KCAL/MOL
REMARK 927      BINDING AFFINITY PREDICTED BY RF-SCORE:    0.00 PKD
ROOT
HETATM    1  C   UNL     1     -12.305  13.909  65.377  1.00  0.00    -0.494 C  
HETATM    2  C   UNL     1     -10.858  13.429  65.377  1.00  0.00    -0.294 C  
HETATM    3  C   UNL     1     -10.145  13.894  66.648  1.00  0.00    -0.273 C  
ENDROOT
BRANCH   2   4
HETATM    4  N   UNL     1     -10.809  11.980  65.301  1.00  0.00    -0.285 NA 
HETATM    5  C   UNL     1     -10.670  11.215  64.189  1.00  0.00    -0.345 C  
HETATM    6  H   UNL     1     -10.887  11.480  66.186  1.00  0.00     0.000 HD 
HETATM    7  N   UNL     1     -11.047  11.554  63.006  1.00  0.00    -0.805 NA 
HETATM    8  N   UNL     1     -10.088   9.997  64.388  1.00  0.00    -0.430 NA 
HETATM    9  H1  UNL     1     -10.943  10.978  62.170  1.00  0.00     0.000 HD 
HETATM   10  H2  UNL     1     -11.484  12.469  62.896  1.00  0.00     0.000 HD 
HETATM   11  C   UNL     1      -9.287   9.506  65.376  1.00  0.00    -0.261 C  
HETATM   12  H   UNL     1     -10.293   9.320  63.653  1.00  0.00     0.000 HD 
HETATM   13  N   UNL     1      -9.209   8.136  65.439  1.00  0.00    -0.399 NA 
HETATM   14  N   UNL     1      -8.670  10.279  66.222  1.00  0.00    -0.144 NA 
HETATM   15  H1  UNL     1      -8.071   9.912  66.961  1.00  0.00     0.000 HD 
HETATM   16  H2  UNL     1      -8.791  11.289  66.144  1.00  0.00     0.000 HD 
HETATM   17  H   UNL     1      -9.258   7.581  64.585  1.00  0.00     0.000 HD 
BRANCH  13  18
HETATM   18  C   UNL     1      -9.062   7.497  66.697  1.00  0.00    -0.158 A  
HETATM   19  C   UNL     1     -10.144   7.387  67.585  1.00  0.00    -0.240 A  
HETATM   20  C   UNL     1      -9.980   6.823  68.851  1.00  0.00    -0.159 A  
HETATM   21  C   UNL     1      -8.736   6.330  69.222  1.00  0.00    -0.124 A  
HETATM   22  C   UNL     1      -7.669   6.354  68.323  1.00  0.00    -0.104 A  
HETATM   23 CL   UNL     1      -8.512   5.704  70.809  1.00  0.00    -0.122 Cl 
HETATM   24  C   UNL     1      -7.839   6.920  67.051  1.00  0.00    -0.111 A  
ENDBRANCH  13  18
ENDBRANCH   2   4
TORSDOF 2
ENDMDL
MODEL       68
REMARK 921   NORMALIZED FREE ENERGY PREDICTED BY IDOCK:   -4.23 KCAL/MOL
REMARK 922        TOTAL FREE ENERGY PREDICTED BY IDOCK:   -4.93 KCAL/MOL
REMARK 923 INTER-LIGAND FREE ENERGY PREDICTED BY IDOCK:   -4.69 KCAL/MOL
REMARK 924 INTRA-LIGAND FREE ENERGY PREDICTED BY IDOCK:   -0.24 KCAL/MOL
REMARK 927      BINDING AFFINITY PREDICTED BY RF-SCORE:    0.00 PKD
ROOT
HETATM    1  C   UNL     1      -6.131  17.711  69.515  1.00  0.00    -0.250 C  
HETATM    2  C   UNL     1      -6.191  16.255  69.068  1.00  0.00    -0.147 C  
HETATM    3  C   UNL     1      -5.678  15.337  70.179  1.00  0.00    -0.135 C  
ENDROOT
BRANCH   2   4
HETATM    4  N   UNL     1      -7.555  15.888  68.734  1.00  0.00    -0.165 NA 
HETATM    5  C   UNL     1      -8.163  15.979  67.525  1.00  0.00    -0.152 C  
HETATM    6  H   UNL     1      -8.122  15.518  69.497  1.00  0.00     0.000 HD 
HETATM    7  N   UNL     1      -7.859  16.827  66.606  1.00  0.00    -0.241 NA 
HETATM    8  N   UNL     1      -9.175  15.088  67.312  1.00  0.00    -0.195 NA 
HETATM    9  H1  UNL     1      -8.317  16.895  65.696  1.00  0.00     0.000 HD 
HETATM   10  H2  UNL     1      -7.102  17.482  66.802  1.00  0.00     0.000 HD 
HETATM   11  C   UNL     1      -9.489  13.891  67.885  1.00  0.00    -0.212 C  
HETATM   12  H   UNL     1      -9.825  15.374  66.580  1.00  0.00     0.000 HD 
HETATM   13  N   UNL     1     -10.780  13.468  67.684  1.00  0.00    -0.246 NA 
HETATM   14  N   UNL     1      -8.637  13.218  68.602  1.00  0.00    -0.358 NA 
HETATM   15  H1  UNL     1      -8.872  12.322  69.031  1.00  0.00     0.000 HD 
HETATM   16  H2  UNL     1      -7.701  13.599  68.741  1.00  0.00     0.000 HD 
HETATM   17  H   UNL     1     -11.260  13.685  66.811  1.00  0.00     0.000 HD 
BRANCH  13  18
HETATM   18  C   UNL     1     -11.442  12.726  68.697  1.00  0.00    -0.303 A  
HETATM   19  C   UNL     1     -12.024  13.368  69.802  1.00  0.00    -0.396 A  
HETATM   20  C   UNL     1     -12.611  12.634  70.832  1.00  0.00    -0.338 A  
HETATM   21  C   UNL     1     -12.653  11.249  70.744  1.00  0.00    -0.332 A  
HETATM   22  C   UNL     1     -12.156  10.597  69.615  1.00  0.00    -0.312 A  
HETATM   23 CL   UNL     1     -13.308  10.336  72.048  1.00  0.00    -0.525 Cl 
HETATM   24  C   UNL     1     -11.568  11.339  68.580  1.00  0.00    -0.384 A  
ENDBRANCH  13  18
ENDBRANCH   2   4
TORSDOF 2
ENDMDL
MODEL       69
REMARK 921   NORMALIZED FREE ENERGY PREDICTED BY IDOCK:   -4.21 KCAL/MOL
REMARK 922        TOTAL FREE ENERGY PREDICTED BY IDOCK:   -4.91 KCAL/MOL
REMARK 923 INTER-LIGAND FREE ENERGY PREDICTED BY IDOCK:   -4.64 KCAL/MOL
REMARK 924 INTRA-LIGAND FREE ENERGY PREDICTED BY IDOCK:   -0.27 KCAL/MOL
REMARK 927      BINDING AFFINITY PREDICTED BY RF-SCORE:    0.00 PKD
ROOT
HETATM    1  C   UNL     1     -10.880  16.873  66.457  1.00  0.00     0.032 C  
HETATM    2  C   UNL     1      -9.988  15.907  65.688  1.00  0.00    -0.334 C  
HETATM    3  C   UNL     1      -8.578  15.901  66.280  1.00  0.00    -0.348 C  
ENDROOT
BRANCH   2   4
HETATM    4  N   UNL     1     -10.537  14.564  65.741  1.00  0.00    -0.302 NA 
HETATM    5  C   UNL     1     -11.283  13.938  64.797  1.00  0.00    -0.369 C  
HETATM    6  H   UNL     1     -10.339  14.030  66.587  1.00  0.00     0.000 HD 
HETATM    7  N   UNL     1     -12.046  14.528  63.946  1.00  0.00    -0.916 NA 
HETATM    8  N   UNL     1     -11.193  12.576  64.791  1.00  0.00    -0.296 NA 
HETATM    9  H1  UNL     1     -12.607  14.057  63.236  1.00  0.00     0.000 HD 
HETATM   10  H2  UNL     1     -12.094  15.547  63.984  1.00  0.00     0.000 HD 
HETATM   11  C   UNL     1     -10.258  11.709  65.274  1.00  0.00    -0.272 C  
HETATM   12  H   UNL     1     -11.981  12.116  64.335  1.00  0.00     0.000 HD 
HETATM   13  N   UNL     1     -10.686  10.413  65.424  1.00  0.00    -0.008 NA 
HETATM   14  N   UNL     1      -9.059  12.092  65.605  1.00  0.00    -0.430 NA 
HETATM   15  H1  UNL     1      -8.360  11.443  65.967  1.00  0.00     0.000 HD 
HETATM   16  H2  UNL     1      -8.810  13.075  65.500  1.00  0.00     0.000 HD 
HETATM   17  H   UNL     1     -11.366  10.020  64.774  1.00  0.00     0.000 HD 
BRANCH  13  18
HETATM   18  C   UNL     1     -10.176   9.623  66.487  1.00  0.00    -0.224 A  
HETATM   19  C   UNL     1     -10.737   9.688  67.773  1.00  0.00    -0.316 A  
HETATM   20  C   UNL     1     -10.190   8.966  68.833  1.00  0.00    -0.220 A  
HETATM   21  C   UNL     1      -9.096   8.142  68.605  1.00  0.00    -0.143 A  
HETATM   22  C   UNL     1      -8.576   7.998  67.317  1.00  0.00    -0.124 A  
HETATM   23 CL   UNL     1      -8.371   7.309  69.924  1.00  0.00    -0.133 Cl 
HETATM   24  C   UNL     1      -9.131   8.725  66.253  1.00  0.00    -0.240 A  
ENDBRANCH  13  18
ENDBRANCH   2   4
TORSDOF 2
ENDMDL
MODEL       70
REMARK 921   NORMALIZED FREE ENERGY PREDICTED BY IDOCK:   -4.21 KCAL/MOL
REMARK 922        TOTAL FREE ENERGY PREDICTED BY IDOCK:   -4.91 KCAL/MOL
REMARK 923 INTER-LIGAND FREE ENERGY PREDICTED BY IDOCK:   -4.61 KCAL/MOL
REMARK 924 INTRA-LIGAND FREE ENERGY PREDICTED BY IDOCK:   -0.30 KCAL/MOL
REMARK 927      BINDING AFFINITY PREDICTED BY RF-SCORE:    0.00 PKD
ROOT
HETATM    1  C   UNL     1     -12.904  13.187  65.001  1.00  0.00    -0.370 C  
HETATM    2  C   UNL     1     -11.666  13.467  65.843  1.00  0.00    -0.352 C  
HETATM    3  C   UNL     1     -12.044  14.260  67.096  1.00  0.00    -0.412 C  
ENDROOT
BRANCH   2   4
HETATM    4  N   UNL     1     -11.033  12.221  66.237  1.00  0.00    -0.278 NA 
HETATM    5  C   UNL     1      -9.889  11.683  65.744  1.00  0.00    -0.239 C  
HETATM    6  H   UNL     1     -11.502  11.689  66.970  1.00  0.00     0.000 HD 
HETATM    7  N   UNL     1      -9.433  11.876  64.556  1.00  0.00    -0.436 NA 
HETATM    8  N   UNL     1      -9.206  10.875  66.605  1.00  0.00    -0.165 NA 
HETATM    9  H1  UNL     1      -8.573  11.471  64.185  1.00  0.00     0.000 HD 
HETATM   10  H2  UNL     1      -9.974  12.482  63.937  1.00  0.00     0.000 HD 
HETATM   11  C   UNL     1      -9.208  10.760  67.964  1.00  0.00    -0.150 C  
HETATM   12  H   UNL     1      -8.568  10.229  66.141  1.00  0.00     0.000 HD 
HETATM   13  N   UNL     1      -8.683   9.588  68.452  1.00  0.00    -0.123 NA 
HETATM   14  N   UNL     1      -9.706  11.679  68.739  1.00  0.00    -0.369 NA 
HETATM   15  H1  UNL     1      -9.708  11.593  69.756  1.00  0.00     0.000 HD 
HETATM   16  H2  UNL     1     -10.110  12.514  68.316  1.00  0.00     0.000 HD 
HETATM   17  H   UNL     1      -7.913   9.130  67.966  1.00  0.00     0.000 HD 
BRANCH  13  18
HETATM   18  C   UNL     1      -9.219   9.018  69.636  1.00  0.00    -0.159 A  
HETATM   19  C   UNL     1     -10.474   8.389  69.634  1.00  0.00    -0.221 A  
HETATM   20  C   UNL     1     -11.031   7.892  70.812  1.00  0.00    -0.259 A  
HETATM   21  C   UNL     1     -10.316   7.990  71.999  1.00  0.00    -0.236 A  
HETATM   22  C   UNL     1      -9.032   8.536  72.007  1.00  0.00    -0.301 A  
HETATM   23 CL   UNL     1     -11.031   7.449  73.467  1.00  0.00    -0.307 Cl 
HETATM   24  C   UNL     1      -8.475   9.032  70.819  1.00  0.00    -0.238 A  
ENDBRANCH  13  18
ENDBRANCH   2   4
TORSDOF 2
ENDMDL
MODEL       71
REMARK 921   NORMALIZED FREE ENERGY PREDICTED BY IDOCK:   -4.12 KCAL/MOL
REMARK 922        TOTAL FREE ENERGY PREDICTED BY IDOCK:   -4.82 KCAL/MOL
REMARK 923 INTER-LIGAND FREE ENERGY PREDICTED BY IDOCK:   -4.57 KCAL/MOL
REMARK 924 INTRA-LIGAND FREE ENERGY PREDICTED BY IDOCK:   -0.24 KCAL/MOL
REMARK 927      BINDING AFFINITY PREDICTED BY RF-SCORE:    0.00 PKD
ROOT
HETATM    1  C   UNL     1     -13.344   9.522  71.759  1.00  0.00    -0.501 C  
HETATM    2  C   UNL     1     -11.872   9.531  71.367  1.00  0.00    -0.389 C  
HETATM    3  C   UNL     1     -11.078   8.582  72.267  1.00  0.00    -0.430 C  
ENDROOT
BRANCH   2   4
HETATM    4  N   UNL     1     -11.716   9.123  69.983  1.00  0.00    -0.451 NA 
HETATM    5  C   UNL     1     -11.657   9.920  68.888  1.00  0.00     0.183 C  
HETATM    6  H   UNL     1     -11.644   8.119  69.814  1.00  0.00     0.000 HD 
HETATM    7  N   UNL     1     -12.204  11.081  68.787  1.00  0.00    -0.744 NA 
HETATM    8  N   UNL     1     -10.959   9.410  67.831  1.00  0.00    -0.502 NA 
HETATM    9  H1  UNL     1     -12.159  11.681  67.963  1.00  0.00     0.000 HD 
HETATM   10  H2  UNL     1     -12.723  11.428  69.594  1.00  0.00     0.000 HD 
HETATM   11  C   UNL     1     -10.004   8.442  67.735  1.00  0.00    -0.186 C  
HETATM   12  H   UNL     1     -11.199   9.838  66.937  1.00  0.00     0.000 HD 
HETATM   13  N   UNL     1      -9.811   7.935  66.474  1.00  0.00    -0.366 NA 
HETATM   14  N   UNL     1      -9.351   8.002  68.772  1.00  0.00    -0.147 NA 
HETATM   15  H1  UNL     1      -8.637   7.277  68.700  1.00  0.00     0.000 HD 
HETATM   16  H2  UNL     1      -9.561   8.397  69.689  1.00  0.00     0.000 HD 
HETATM   17  H   UNL     1      -9.921   8.537  65.658  1.00  0.00     0.000 HD 
BRANCH  13  18
HETATM   18  C   UNL     1      -9.458   6.570  66.311  1.00  0.00    -0.083 A  
HETATM   19  C   UNL     1      -8.138   6.193  66.017  1.00  0.00    -0.118 A  
HETATM   20  C   UNL     1      -7.806   4.858  65.786  1.00  0.00    -0.095 A  
HETATM   21  C   UNL     1      -8.791   3.884  65.885  1.00  0.00    -0.125 A  
HETATM   22  C   UNL     1     -10.091   4.228  66.258  1.00  0.00    -0.196 A  
HETATM   23 CL   UNL     1      -8.403   2.246  65.526  1.00  0.00    -0.088 Cl 
HETATM   24  C   UNL     1     -10.419   5.572  66.492  1.00  0.00    -0.331 A  
ENDBRANCH  13  18
ENDBRANCH   2   4
TORSDOF 2
ENDMDL
MODEL       72
REMARK 921   NORMALIZED FREE ENERGY PREDICTED BY IDOCK:   -4.10 KCAL/MOL
REMARK 922        TOTAL FREE ENERGY PREDICTED BY IDOCK:   -4.79 KCAL/MOL
REMARK 923 INTER-LIGAND FREE ENERGY PREDICTED BY IDOCK:   -5.14 KCAL/MOL
REMARK 924 INTRA-LIGAND FREE ENERGY PREDICTED BY IDOCK:    0.35 KCAL/MOL
REMARK 927      BINDING AFFINITY PREDICTED BY RF-SCORE:    0.00 PKD
ROOT
HETATM    1  C   UNL     1     -11.544  15.181  71.851  1.00  0.00    -0.490 C  
HETATM    2  C   UNL     1     -12.479  14.041  71.464  1.00  0.00    -0.322 C  
HETATM    3  C   UNL     1     -13.937  14.472  71.628  1.00  0.00    -0.527 C  
ENDROOT
BRANCH   2   4
HETATM    4  N   UNL     1     -12.247  13.647  70.086  1.00  0.00    -0.345 NA 
HETATM    5  C   UNL     1     -11.995  14.455  69.026  1.00  0.00    -0.307 C  
HETATM    6  H   UNL     1     -12.277  12.646  69.893  1.00  0.00     0.000 HD 
HETATM    7  N   UNL     1     -12.391  15.674  68.915  1.00  0.00    -0.559 NA 
HETATM    8  N   UNL     1     -11.269  13.888  68.020  1.00  0.00    -0.260 NA 
HETATM    9  H1  UNL     1     -12.202  16.282  68.118  1.00  0.00     0.000 HD 
HETATM   10  H2  UNL     1     -12.938  16.063  69.685  1.00  0.00     0.000 HD 
HETATM   11  C   UNL     1     -10.429  12.815  67.977  1.00  0.00    -0.226 C  
HETATM   12  H   UNL     1     -11.375  14.360  67.122  1.00  0.00     0.000 HD 
HETATM   13  N   UNL     1     -10.182  12.316  66.721  1.00  0.00    -0.210 NA 
HETATM   14  N   UNL     1      -9.928  12.279  69.052  1.00  0.00    -0.417 NA 
HETATM   15  H1  UNL     1      -9.300  11.475  69.020  1.00  0.00     0.000 HD 
HETATM   16  H2  UNL     1     -10.173  12.676  69.960  1.00  0.00     0.000 HD 
HETATM   17  H   UNL     1     -10.146  12.944  65.919  1.00  0.00     0.000 HD 
BRANCH  13  18
HETATM   18  C   UNL     1      -9.977  10.922  66.547  1.00  0.00    -0.211 A  
HETATM   19  C   UNL     1     -10.869   9.985  67.092  1.00  0.00    -0.240 A  
HETATM   20  C   UNL     1     -10.628   8.615  66.981  1.00  0.00    -0.293 A  
HETATM   21  C   UNL     1      -9.508   8.173  66.289  1.00  0.00    -0.190 A  
HETATM   22  C   UNL     1      -8.655   9.087  65.668  1.00  0.00    -0.187 A  
HETATM   23 CL   UNL     1      -9.166   6.489  66.215  1.00  0.00    -0.175 Cl 
HETATM   24  C   UNL     1      -8.902  10.463  65.780  1.00  0.00    -0.186 A  
ENDBRANCH  13  18
ENDBRANCH   2   4
TORSDOF 2
ENDMDL
MODEL       73
REMARK 921   NORMALIZED FREE ENERGY PREDICTED BY IDOCK:   -4.10 KCAL/MOL
REMARK 922        TOTAL FREE ENERGY PREDICTED BY IDOCK:   -4.79 KCAL/MOL
REMARK 923 INTER-LIGAND FREE ENERGY PREDICTED BY IDOCK:   -4.99 KCAL/MOL
REMARK 924 INTRA-LIGAND FREE ENERGY PREDICTED BY IDOCK:    0.20 KCAL/MOL
REMARK 927      BINDING AFFINITY PREDICTED BY RF-SCORE:    0.00 PKD
ROOT
HETATM    1  C   UNL     1     -11.206  12.099  68.843  1.00  0.00    -0.320 C  
HETATM    2  C   UNL     1     -12.345  12.875  69.493  1.00  0.00     0.015 C  
HETATM    3  C   UNL     1     -12.392  12.590  70.995  1.00  0.00    -0.307 C  
ENDROOT
BRANCH   2   4
HETATM    4  N   UNL     1     -12.167  14.301  69.281  1.00  0.00    -0.486 NA 
HETATM    5  C   UNL     1     -12.625  15.315  70.057  1.00  0.00    -0.242 C  
HETATM    6  H   UNL     1     -11.638  14.571  68.452  1.00  0.00     0.000 HD 
HETATM    7  N   UNL     1     -13.673  15.262  70.802  1.00  0.00    -0.766 NA 
HETATM    8  N   UNL     1     -11.891  16.464  70.007  1.00  0.00    -0.263 NA 
HETATM    9  H1  UNL     1     -14.016  16.025  71.386  1.00  0.00     0.000 HD 
HETATM   10  H2  UNL     1     -14.200  14.388  70.810  1.00  0.00     0.000 HD 
HETATM   11  C   UNL     1     -10.604  16.725  69.638  1.00  0.00    -0.242 C  
HETATM   12  H   UNL     1     -12.407  17.293  70.304  1.00  0.00     0.000 HD 
HETATM   13  N   UNL     1     -10.333  18.040  69.353  1.00  0.00    -0.318 NA 
HETATM   14  N   UNL     1      -9.708  15.787  69.527  1.00  0.00    -0.275 NA 
HETATM   15  H1  UNL     1      -8.746  15.981  69.251  1.00  0.00     0.000 HD 
HETATM   16  H2  UNL     1      -9.978  14.823  69.723  1.00  0.00     0.000 HD 
HETATM   17  H   UNL     1     -10.811  18.784  69.862  1.00  0.00     0.000 HD 
BRANCH  13  18
HETATM   18  C   UNL     1      -9.383  18.361  68.348  1.00  0.00    -0.329 A  
HETATM   19  C   UNL     1      -9.756  18.432  66.996  1.00  0.00    -0.316 A  
HETATM   20  C   UNL     1      -8.808  18.676  66.002  1.00  0.00     0.008 A  
HETATM   21  C   UNL     1      -7.483  18.887  66.359  1.00  0.00    -0.254 A  
HETATM   22  C   UNL     1      -7.108  18.903  67.703  1.00  0.00    -0.230 A  
HETATM   23 CL   UNL     1      -6.299  19.111  65.131  1.00  0.00    -0.313 Cl 
HETATM   24  C   UNL     1      -8.064  18.660  68.700  1.00  0.00    -0.352 A  
ENDBRANCH  13  18
ENDBRANCH   2   4
TORSDOF 2
ENDMDL
MODEL       74
REMARK 921   NORMALIZED FREE ENERGY PREDICTED BY IDOCK:   -4.06 KCAL/MOL
REMARK 922        TOTAL FREE ENERGY PREDICTED BY IDOCK:   -4.75 KCAL/MOL
REMARK 923 INTER-LIGAND FREE ENERGY PREDICTED BY IDOCK:   -5.38 KCAL/MOL
REMARK 924 INTRA-LIGAND FREE ENERGY PREDICTED BY IDOCK:    0.64 KCAL/MOL
REMARK 927      BINDING AFFINITY PREDICTED BY RF-SCORE:    0.00 PKD
ROOT
HETATM    1  C   UNL     1     -12.706  14.933  70.205  1.00  0.00    -0.317 C  
HETATM    2  C   UNL     1     -12.452  13.930  71.324  1.00  0.00    -0.359 C  
HETATM    3  C   UNL     1     -13.750  13.636  72.078  1.00  0.00    -0.583 C  
ENDROOT
BRANCH   2   4
HETATM    4  N   UNL     1     -11.922  12.693  70.779  1.00  0.00    -0.471 NA 
HETATM    5  C   UNL     1     -12.443  11.447  70.900  1.00  0.00    -0.379 C  
HETATM    6  H   UNL     1     -11.057  12.770  70.244  1.00  0.00     0.000 HD 
HETATM    7  N   UNL     1     -13.174  11.042  71.880  1.00  0.00    -0.463 NA 
HETATM    8  N   UNL     1     -12.138  10.586  69.887  1.00  0.00    -0.445 NA 
HETATM    9  H1  UNL     1     -13.566  10.105  71.970  1.00  0.00     0.000 HD 
HETATM   10  H2  UNL     1     -13.376  11.712  72.623  1.00  0.00     0.000 HD 
HETATM   11  C   UNL     1     -11.729  10.780  68.600  1.00  0.00    -0.219 C  
HETATM   12  H   UNL     1     -12.235   9.603  70.141  1.00  0.00     0.000 HD 
HETATM   13  N   UNL     1     -11.154   9.687  67.999  1.00  0.00    -0.509 NA 
HETATM   14  N   UNL     1     -11.841  11.929  68.000  1.00  0.00    -0.526 NA 
HETATM   15  H1  UNL     1     -11.534  12.075  67.038  1.00  0.00     0.000 HD 
HETATM   16  H2  UNL     1     -12.249  12.713  68.510  1.00  0.00     0.000 HD 
HETATM   17  H   UNL     1     -11.476   8.747  68.229  1.00  0.00     0.000 HD 
BRANCH  13  18
HETATM   18  C   UNL     1     -10.108   9.872  67.057  1.00  0.00    -0.218 A  
HETATM   19  C   UNL     1     -10.343   9.743  65.679  1.00  0.00    -0.036 A  
HETATM   20  C   UNL     1      -9.300   9.854  64.759  1.00  0.00    -0.339 A  
HETATM   21  C   UNL     1      -8.018  10.133  65.212  1.00  0.00    -0.145 A  
HETATM   22  C   UNL     1      -7.779  10.347  66.571  1.00  0.00    -0.121 A  
HETATM   23 CL   UNL     1      -6.716  10.194  64.089  1.00  0.00    -0.126 Cl 
HETATM   24  C   UNL     1      -8.831  10.237  67.492  1.00  0.00    -0.128 A  
ENDBRANCH  13  18
ENDBRANCH   2   4
TORSDOF 2
ENDMDL
MODEL       75
REMARK 921   NORMALIZED FREE ENERGY PREDICTED BY IDOCK:   -4.05 KCAL/MOL
REMARK 922        TOTAL FREE ENERGY PREDICTED BY IDOCK:   -4.73 KCAL/MOL
REMARK 923 INTER-LIGAND FREE ENERGY PREDICTED BY IDOCK:   -4.88 KCAL/MOL
REMARK 924 INTRA-LIGAND FREE ENERGY PREDICTED BY IDOCK:    0.15 KCAL/MOL
REMARK 927      BINDING AFFINITY PREDICTED BY RF-SCORE:    0.00 PKD
ROOT
HETATM    1  C   UNL     1      -7.584  10.539  65.890  1.00  0.00    -0.148 C  
HETATM    2  C   UNL     1      -9.036  10.997  65.956  1.00  0.00    -0.197 C  
HETATM    3  C   UNL     1      -9.950   9.818  66.295  1.00  0.00    -0.331 C  
ENDROOT
BRANCH   2   4
HETATM    4  N   UNL     1      -9.191  12.030  66.965  1.00  0.00    -0.189 NA 
HETATM    5  C   UNL     1      -8.847  11.964  68.275  1.00  0.00    -0.174 C  
HETATM    6  H   UNL     1      -9.608  12.907  66.652  1.00  0.00     0.000 HD 
HETATM    7  N   UNL     1      -8.796  10.883  68.973  1.00  0.00    -0.308 NA 
HETATM    8  N   UNL     1      -8.549  13.159  68.862  1.00  0.00    -0.361 NA 
HETATM    9  H1  UNL     1      -8.538  10.834  69.959  1.00  0.00     0.000 HD 
HETATM   10  H2  UNL     1      -9.033  10.009  68.503  1.00  0.00     0.000 HD 
HETATM   11  C   UNL     1      -8.165  14.366  68.356  1.00  0.00    -0.145 C  
HETATM   12  H   UNL     1      -8.627  13.148  69.878  1.00  0.00     0.000 HD 
HETATM   13  N   UNL     1      -8.324  15.433  69.207  1.00  0.00    -0.241 NA 
HETATM   14  N   UNL     1      -7.718  14.502  67.142  1.00  0.00    -0.330 NA 
HETATM   15  H1  UNL     1      -7.432  15.406  66.763  1.00  0.00     0.000 HD 
HETATM   16  H2  UNL     1      -7.651  13.677  66.546  1.00  0.00     0.000 HD 
HETATM   17  H   UNL     1      -8.201  15.309  70.211  1.00  0.00     0.000 HD 
BRANCH  13  18
HETATM   18  C   UNL     1      -8.661  16.707  68.681  1.00  0.00    -0.250 A  
HETATM   19  C   UNL     1      -7.700  17.725  68.575  1.00  0.00    -0.289 A  
HETATM   20  C   UNL     1      -8.048  18.999  68.125  1.00  0.00    -0.347 A  
HETATM   21  C   UNL     1      -9.359  19.252  67.742  1.00  0.00    -0.312 A  
HETATM   22  C   UNL     1     -10.311  18.231  67.761  1.00  0.00    -0.419 A  
HETATM   23 CL   UNL     1      -9.810  20.841  67.261  1.00  0.00    -0.560 Cl 
HETATM   24  C   UNL     1      -9.955  16.951  68.212  1.00  0.00    -0.282 A  
ENDBRANCH  13  18
ENDBRANCH   2   4
TORSDOF 2
ENDMDL
MODEL       76
REMARK 921   NORMALIZED FREE ENERGY PREDICTED BY IDOCK:   -4.04 KCAL/MOL
REMARK 922        TOTAL FREE ENERGY PREDICTED BY IDOCK:   -4.72 KCAL/MOL
REMARK 923 INTER-LIGAND FREE ENERGY PREDICTED BY IDOCK:   -4.43 KCAL/MOL
REMARK 924 INTRA-LIGAND FREE ENERGY PREDICTED BY IDOCK:   -0.28 KCAL/MOL
REMARK 927      BINDING AFFINITY PREDICTED BY RF-SCORE:    0.00 PKD
ROOT
HETATM    1  C   UNL     1     -10.503   4.774  73.972  1.00  0.00    -0.328 C  
HETATM    2  C   UNL     1     -10.701   6.184  73.429  1.00  0.00    -0.259 C  
HETATM    3  C   UNL     1      -9.420   7.004  73.601  1.00  0.00    -0.239 C  
ENDROOT
BRANCH   2   4
HETATM    4  N   UNL     1     -11.055   6.137  72.022  1.00  0.00    -0.260 NA 
HETATM    5  C   UNL     1     -12.136   6.694  71.423  1.00  0.00    -0.347 C  
HETATM    6  H   UNL     1     -10.416   5.624  71.414  1.00  0.00     0.000 HD 
HETATM    7  N   UNL     1     -13.265   6.922  71.997  1.00  0.00    -0.547 NA 
HETATM    8  N   UNL     1     -11.973   7.015  70.107  1.00  0.00    -0.614 NA 
HETATM    9  H1  UNL     1     -14.079   7.341  71.546  1.00  0.00     0.000 HD 
HETATM   10  H2  UNL     1     -13.353   6.662  72.980  1.00  0.00     0.000 HD 
HETATM   11  C   UNL     1     -10.868   7.240  69.340  1.00  0.00    -0.190 C  
HETATM   12  H   UNL     1     -12.851   7.106  69.595  1.00  0.00     0.000 HD 
HETATM   13  N   UNL     1     -11.071   7.161  67.984  1.00  0.00    -0.505 NA 
HETATM   14  N   UNL     1      -9.697   7.473  69.858  1.00  0.00    -0.171 NA 
HETATM   15  H1  UNL     1      -8.870   7.641  69.284  1.00  0.00     0.000 HD 
HETATM   16  H2  UNL     1      -9.602   7.489  70.874  1.00  0.00     0.000 HD 
HETATM   17  H   UNL     1     -11.961   7.455  67.582  1.00  0.00     0.000 HD 
BRANCH  13  18
HETATM   18  C   UNL     1     -10.038   6.669  67.145  1.00  0.00    -0.174 A  
HETATM   19  C   UNL     1      -9.256   7.541  66.370  1.00  0.00    -0.212 A  
HETATM   20  C   UNL     1      -8.289   7.051  65.493  1.00  0.00    -0.135 A  
HETATM   21  C   UNL     1      -8.072   5.682  65.412  1.00  0.00    -0.126 A  
HETATM   22  C   UNL     1      -8.779   4.804  66.236  1.00  0.00    -0.114 A  
HETATM   23 CL   UNL     1      -6.934   5.069  64.276  1.00  0.00    -0.048 Cl 
HETATM   24  C   UNL     1      -9.749   5.302  67.118  1.00  0.00    -0.165 A  
ENDBRANCH  13  18
ENDBRANCH   2   4
TORSDOF 2
ENDMDL
MODEL       77
REMARK 921   NORMALIZED FREE ENERGY PREDICTED BY IDOCK:   -4.03 KCAL/MOL
REMARK 922        TOTAL FREE ENERGY PREDICTED BY IDOCK:   -4.71 KCAL/MOL
REMARK 923 INTER-LIGAND FREE ENERGY PREDICTED BY IDOCK:   -4.40 KCAL/MOL
REMARK 924 INTRA-LIGAND FREE ENERGY PREDICTED BY IDOCK:   -0.31 KCAL/MOL
REMARK 927      BINDING AFFINITY PREDICTED BY RF-SCORE:    0.00 PKD
ROOT
HETATM    1  C   UNL     1     -12.351  14.553  71.289  1.00  0.00    -0.418 C  
HETATM    2  C   UNL     1     -11.937  14.771  69.839  1.00  0.00    -0.328 C  
HETATM    3  C   UNL     1     -10.575  15.465  69.775  1.00  0.00    -0.304 C  
ENDROOT
BRANCH   2   4
HETATM    4  N   UNL     1     -11.862  13.501  69.141  1.00  0.00    -0.322 NA 
HETATM    5  C   UNL     1     -11.910  13.290  67.802  1.00  0.00    -0.353 C  
HETATM    6  H   UNL     1     -11.761  12.670  69.725  1.00  0.00     0.000 HD 
HETATM    7  N   UNL     1     -12.509  14.051  66.954  1.00  0.00    -0.529 NA 
HETATM    8  N   UNL     1     -11.268  12.168  67.364  1.00  0.00    -0.282 NA 
HETATM    9  H1  UNL     1     -12.545  13.892  65.947  1.00  0.00     0.000 HD 
HETATM   10  H2  UNL     1     -12.984  14.877  67.318  1.00  0.00     0.000 HD 
HETATM   11  C   UNL     1     -10.284  11.395  67.907  1.00  0.00    -0.182 C  
HETATM   12  H   UNL     1     -11.586  11.844  66.451  1.00  0.00     0.000 HD 
HETATM   13  N   UNL     1     -10.158  10.141  67.361  1.00  0.00    -0.194 NA 
HETATM   14  N   UNL     1      -9.543  11.804  68.896  1.00  0.00    -0.412 NA 
HETATM   15  H1  UNL     1      -8.807  11.226  69.302  1.00  0.00     0.000 HD 
HETATM   16  H2  UNL     1      -9.705  12.735  69.280  1.00  0.00     0.000 HD 
HETATM   17  H   UNL     1     -10.348   9.993  66.370  1.00  0.00     0.000 HD 
BRANCH  13  18
HETATM   18  C   UNL     1      -9.762   9.054  68.182  1.00  0.00    -0.152 A  
HETATM   19  C   UNL     1     -10.629   8.526  69.153  1.00  0.00    -0.188 A  
HETATM   20  C   UNL     1     -10.213   7.505  70.007  1.00  0.00    -0.215 A  
HETATM   21  C   UNL     1      -8.935   6.979  69.871  1.00  0.00    -0.142 A  
HETATM   22  C   UNL     1      -8.089   7.432  68.858  1.00  0.00    -0.127 A  
HETATM   23 CL   UNL     1      -8.393   5.773  70.973  1.00  0.00    -0.121 Cl 
HETATM   24  C   UNL     1      -8.512   8.457  67.999  1.00  0.00    -0.132 A  
ENDBRANCH  13  18
ENDBRANCH   2   4
TORSDOF 2
ENDMDL
MODEL       78
REMARK 921   NORMALIZED FREE ENERGY PREDICTED BY IDOCK:   -4.00 KCAL/MOL
REMARK 922        TOTAL FREE ENERGY PREDICTED BY IDOCK:   -4.68 KCAL/MOL
REMARK 923 INTER-LIGAND FREE ENERGY PREDICTED BY IDOCK:   -4.60 KCAL/MOL
REMARK 924 INTRA-LIGAND FREE ENERGY PREDICTED BY IDOCK:   -0.08 KCAL/MOL
REMARK 927      BINDING AFFINITY PREDICTED BY RF-SCORE:    0.00 PKD
ROOT
HETATM    1  C   UNL     1     -13.034  13.835  71.298  1.00  0.00    -0.409 C  
HETATM    2  C   UNL     1     -12.572  15.120  70.622  1.00  0.00    -0.395 C  
HETATM    3  C   UNL     1     -11.577  15.862  71.515  1.00  0.00    -0.537 C  
ENDROOT
BRANCH   2   4
HETATM    4  N   UNL     1     -11.943  14.819  69.348  1.00  0.00    -0.374 NA 
HETATM    5  C   UNL     1     -11.244  15.666  68.552  1.00  0.00    -0.342 C  
HETATM    6  H   UNL     1     -12.037  13.860  69.014  1.00  0.00     0.000 HD 
HETATM    7  N   UNL     1     -11.415  16.941  68.497  1.00  0.00    -0.009 NA 
HETATM    8  N   UNL     1     -10.301  15.078  67.760  1.00  0.00    -0.243 NA 
HETATM    9  H1  UNL     1     -10.889  17.577  67.897  1.00  0.00     0.000 HD 
HETATM   10  H2  UNL     1     -12.133  17.345  69.099  1.00  0.00     0.000 HD 
HETATM   11  C   UNL     1      -9.645  13.885  67.834  1.00  0.00    -0.227 C  
HETATM   12  H   UNL     1     -10.035  15.642  66.953  1.00  0.00     0.000 HD 
HETATM   13  N   UNL     1      -9.056  13.468  66.665  1.00  0.00    -0.395 NA 
HETATM   14  N   UNL     1      -9.612  13.175  68.924  1.00  0.00    -0.398 NA 
HETATM   15  H1  UNL     1      -9.122  12.282  68.979  1.00  0.00     0.000 HD 
HETATM   16  H2  UNL     1     -10.095  13.523  69.753  1.00  0.00     0.000 HD 
HETATM   17  H   UNL     1      -8.669  14.152  66.015  1.00  0.00     0.000 HD 
BRANCH  13  18
HETATM   18  C   UNL     1      -8.990  12.082  66.367  1.00  0.00    -0.161 A  
HETATM   19  C   UNL     1     -10.118  11.384  65.909  1.00  0.00    -0.286 A  
HETATM   20  C   UNL     1     -10.070  10.008  65.685  1.00  0.00    -0.321 A  
HETATM   21  C   UNL     1      -8.877   9.326  65.883  1.00  0.00    -0.166 A  
HETATM   22  C   UNL     1      -7.722  10.016  66.256  1.00  0.00    -0.105 A  
HETATM   23 CL   UNL     1      -8.833   7.618  65.682  1.00  0.00    -0.132 Cl 
HETATM   24  C   UNL     1      -7.775  11.400  66.478  1.00  0.00    -0.093 A  
ENDBRANCH  13  18
ENDBRANCH   2   4
TORSDOF 2
ENDMDL
MODEL       79
REMARK 921   NORMALIZED FREE ENERGY PREDICTED BY IDOCK:   -4.00 KCAL/MOL
REMARK 922        TOTAL FREE ENERGY PREDICTED BY IDOCK:   -4.68 KCAL/MOL
REMARK 923 INTER-LIGAND FREE ENERGY PREDICTED BY IDOCK:   -4.52 KCAL/MOL
REMARK 924 INTRA-LIGAND FREE ENERGY PREDICTED BY IDOCK:   -0.16 KCAL/MOL
REMARK 927      BINDING AFFINITY PREDICTED BY RF-SCORE:    0.00 PKD
ROOT
HETATM    1  C   UNL     1      -5.799  15.276  69.523  1.00  0.00    -0.108 C  
HETATM    2  C   UNL     1      -5.826  13.794  69.875  1.00  0.00    -0.126 C  
HETATM    3  C   UNL     1      -5.770  13.607  71.392  1.00  0.00    -0.160 C  
ENDROOT
BRANCH   2   4
HETATM    4  N   UNL     1      -7.036  13.177  69.360  1.00  0.00    -0.311 NA 
HETATM    5  C   UNL     1      -7.252  12.700  68.109  1.00  0.00    -0.109 C  
HETATM    6  H   UNL     1      -7.813  13.093  70.016  1.00  0.00     0.000 HD 
HETATM    7  N   UNL     1      -6.669  13.125  67.044  1.00  0.00    -0.429 NA 
HETATM    8  N   UNL     1      -8.173  11.697  68.019  1.00  0.00    -0.138 NA 
HETATM    9  H1  UNL     1      -6.832  12.766  66.103  1.00  0.00     0.000 HD 
HETATM   10  H2  UNL     1      -5.991  13.881  67.149  1.00  0.00     0.000 HD 
HETATM   11  C   UNL     1      -8.670  10.812  68.930  1.00  0.00    -0.152 C  
HETATM   12  H   UNL     1      -8.568  11.587  67.085  1.00  0.00     0.000 HD 
HETATM   13  N   UNL     1      -9.850  10.208  68.574  1.00  0.00    -0.150 NA 
HETATM   14  N   UNL     1      -8.086  10.587  70.072  1.00  0.00    -0.353 NA 
HETATM   15  H1  UNL     1      -8.458   9.926  70.754  1.00  0.00     0.000 HD 
HETATM   16  H2  UNL     1      -7.226  11.090  70.292  1.00  0.00     0.000 HD 
HETATM   17  H   UNL     1     -10.042   9.996  67.595  1.00  0.00     0.000 HD 
BRANCH  13  18
HETATM   18  C   UNL     1     -10.801   9.879  69.575  1.00  0.00    -0.246 A  
HETATM   19  C   UNL     1     -10.869   8.584  70.114  1.00  0.00    -0.238 A  
HETATM   20  C   UNL     1     -11.850   8.243  71.045  1.00  0.00    -0.276 A  
HETATM   21  C   UNL     1     -12.750   9.211  71.472  1.00  0.00    -0.341 A  
HETATM   22  C   UNL     1     -12.647  10.524  71.012  1.00  0.00    -0.499 A  
HETATM   23 CL   UNL     1     -14.009   8.776  72.561  1.00  0.00    -0.459 Cl 
HETATM   24  C   UNL     1     -11.657  10.863  70.077  1.00  0.00    -0.424 A  
ENDBRANCH  13  18
ENDBRANCH   2   4
TORSDOF 2
ENDMDL
MODEL       80
REMARK 921   NORMALIZED FREE ENERGY PREDICTED BY IDOCK:   -3.99 KCAL/MOL
REMARK 922        TOTAL FREE ENERGY PREDICTED BY IDOCK:   -4.66 KCAL/MOL
REMARK 923 INTER-LIGAND FREE ENERGY PREDICTED BY IDOCK:   -4.90 KCAL/MOL
REMARK 924 INTRA-LIGAND FREE ENERGY PREDICTED BY IDOCK:    0.24 KCAL/MOL
REMARK 927      BINDING AFFINITY PREDICTED BY RF-SCORE:    0.00 PKD
ROOT
HETATM    1  C   UNL     1      -8.901   8.137  69.801  1.00  0.00    -0.143 C  
HETATM    2  C   UNL     1      -8.400   8.561  68.426  1.00  0.00    -0.124 C  
HETATM    3  C   UNL     1      -8.293   7.346  67.502  1.00  0.00    -0.113 C  
ENDROOT
BRANCH   2   4
HETATM    4  N   UNL     1      -9.305   9.532  67.838  1.00  0.00    -0.132 NA 
HETATM    5  C   UNL     1     -10.596   9.340  67.466  1.00  0.00    -0.262 C  
HETATM    6  H   UNL     1      -8.927  10.467  67.686  1.00  0.00     0.000 HD 
HETATM    7  N   UNL     1     -11.099   8.214  67.097  1.00  0.00    -0.303 NA 
HETATM    8  N   UNL     1     -11.383  10.454  67.492  1.00  0.00    -0.506 NA 
HETATM    9  H1  UNL     1     -12.070   8.070  66.817  1.00  0.00     0.000 HD 
HETATM   10  H2  UNL     1     -10.479   7.404  67.083  1.00  0.00     0.000 HD 
HETATM   11  C   UNL     1     -11.275  11.647  68.145  1.00  0.00    -0.263 C  
HETATM   12  H   UNL     1     -12.216  10.381  66.909  1.00  0.00     0.000 HD 
HETATM   13  N   UNL     1     -12.047  12.663  67.636  1.00  0.00    -0.396 NA 
HETATM   14  N   UNL     1     -10.470  11.819  69.153  1.00  0.00    -0.409 NA 
HETATM   15  H1  UNL     1     -10.389  12.711  69.640  1.00  0.00     0.000 HD 
HETATM   16  H2  UNL     1      -9.899  11.034  69.466  1.00  0.00     0.000 HD 
HETATM   17  H   UNL     1     -12.958  12.458  67.226  1.00  0.00     0.000 HD 
BRANCH  13  18
HETATM   18  C   UNL     1     -11.570  13.999  67.683  1.00  0.00    -0.354 A  
HETATM   19  C   UNL     1     -11.941  14.865  68.723  1.00  0.00    -0.284 A  
HETATM   20  C   UNL     1     -11.530  16.198  68.730  1.00  0.00    -0.340 A  
HETATM   21  C   UNL     1     -10.711  16.664  67.711  1.00  0.00    -0.327 A  
HETATM   22  C   UNL     1     -10.262  15.797  66.712  1.00  0.00    -0.284 A  
HETATM   23 CL   UNL     1     -10.264  18.325  67.674  1.00  0.00    -0.374 Cl 
HETATM   24  C   UNL     1     -10.676  14.457  66.711  1.00  0.00    -0.292 A  
ENDBRANCH  13  18
ENDBRANCH   2   4
TORSDOF 2
ENDMDL
MODEL       81
REMARK 921   NORMALIZED FREE ENERGY PREDICTED BY IDOCK:   -3.97 KCAL/MOL
REMARK 922        TOTAL FREE ENERGY PREDICTED BY IDOCK:   -4.64 KCAL/MOL
REMARK 923 INTER-LIGAND FREE ENERGY PREDICTED BY IDOCK:   -4.38 KCAL/MOL
REMARK 924 INTRA-LIGAND FREE ENERGY PREDICTED BY IDOCK:   -0.26 KCAL/MOL
REMARK 927      BINDING AFFINITY PREDICTED BY RF-SCORE:    0.00 PKD
ROOT
HETATM    1  C   UNL     1      -7.507   5.350  63.922  1.00  0.00    -0.061 C  
HETATM    2  C   UNL     1      -8.134   5.116  65.291  1.00  0.00    -0.120 C  
HETATM    3  C   UNL     1      -7.062   5.168  66.382  1.00  0.00    -0.072 C  
ENDROOT
BRANCH   2   4
HETATM    4  N   UNL     1      -9.142   6.125  65.562  1.00  0.00    -0.365 NA 
HETATM    5  C   UNL     1     -10.318   5.963  66.218  1.00  0.00    -0.024 C  
HETATM    6  H   UNL     1      -8.943   7.065  65.219  1.00  0.00     0.000 HD 
HETATM    7  N   UNL     1     -10.985   4.863  66.281  1.00  0.00    -0.541 NA 
HETATM    8  N   UNL     1     -10.799   7.079  66.838  1.00  0.00    -0.519 NA 
HETATM    9  H1  UNL     1     -11.870   4.742  66.775  1.00  0.00     0.000 HD 
HETATM   10  H2  UNL     1     -10.598   4.051  65.800  1.00  0.00     0.000 HD 
HETATM   11  C   UNL     1     -10.204   8.232  67.259  1.00  0.00    -0.274 C  
HETATM   12  H   UNL     1     -11.802   7.044  67.025  1.00  0.00     0.000 HD 
HETATM   13  N   UNL     1     -11.061   9.280  67.491  1.00  0.00    -0.408 NA 
HETATM   14  N   UNL     1      -8.914   8.341  67.393  1.00  0.00    -0.133 NA 
HETATM   15  H1  UNL     1      -8.469   9.203  67.707  1.00  0.00     0.000 HD 
HETATM   16  H2  UNL     1      -8.327   7.535  67.176  1.00  0.00     0.000 HD 
HETATM   17  H   UNL     1     -11.999   9.105  67.849  1.00  0.00     0.000 HD 
BRANCH  13  18
HETATM   18  C   UNL     1     -10.633  10.608  67.230  1.00  0.00    -0.263 A  
HETATM   19  C   UNL     1     -10.422  11.520  68.276  1.00  0.00    -0.219 A  
HETATM   20  C   UNL     1     -10.071  12.845  68.014  1.00  0.00    -0.235 A  
HETATM   21  C   UNL     1      -9.894  13.256  66.700  1.00  0.00    -0.276 A  
HETATM   22  C   UNL     1     -10.018  12.344  65.650  1.00  0.00    -0.261 A  
HETATM   23 CL   UNL     1      -9.537  14.907  66.368  1.00  0.00    -0.297 Cl 
HETATM   24  C   UNL     1     -10.368  11.013  65.919  1.00  0.00    -0.315 A  
ENDBRANCH  13  18
ENDBRANCH   2   4
TORSDOF 2
ENDMDL
MODEL       82
REMARK 921   NORMALIZED FREE ENERGY PREDICTED BY IDOCK:   -3.96 KCAL/MOL
REMARK 922        TOTAL FREE ENERGY PREDICTED BY IDOCK:   -4.63 KCAL/MOL
REMARK 923 INTER-LIGAND FREE ENERGY PREDICTED BY IDOCK:   -4.78 KCAL/MOL
REMARK 924 INTRA-LIGAND FREE ENERGY PREDICTED BY IDOCK:    0.15 KCAL/MOL
REMARK 927      BINDING AFFINITY PREDICTED BY RF-SCORE:    0.00 PKD
ROOT
HETATM    1  C   UNL     1      -8.631  20.230  66.877  1.00  0.00    -0.370 C  
HETATM    2  C   UNL     1      -8.620  19.125  67.926  1.00  0.00    -0.305 C  
HETATM    3  C   UNL     1      -9.748  19.341  68.936  1.00  0.00    -0.493 C  
ENDROOT
BRANCH   2   4
HETATM    4  N   UNL     1      -8.785  17.829  67.293  1.00  0.00    -0.234 NA 
HETATM    5  C   UNL     1      -7.992  17.264  66.348  1.00  0.00    -0.303 C  
HETATM    6  H   UNL     1      -9.591  17.280  67.593  1.00  0.00     0.000 HD 
HETATM    7  N   UNL     1      -7.278  17.913  65.496  1.00  0.00    -0.464 NA 
HETATM    8  N   UNL     1      -7.988  15.900  66.330  1.00  0.00    -0.270 NA 
HETATM    9  H1  UNL     1      -6.682  17.488  64.786  1.00  0.00     0.000 HD 
HETATM   10  H2  UNL     1      -7.312  18.932  65.535  1.00  0.00     0.000 HD 
HETATM   11  C   UNL     1      -8.313  14.962  67.265  1.00  0.00    -0.210 C  
HETATM   12  H   UNL     1      -7.681  15.502  65.442  1.00  0.00     0.000 HD 
HETATM   13  N   UNL     1      -8.551  13.702  66.772  1.00  0.00    -0.436 NA 
HETATM   14  N   UNL     1      -8.427  15.249  68.530  1.00  0.00    -0.154 NA 
HETATM   15  H1  UNL     1      -8.670  14.548  69.229  1.00  0.00     0.000 HD 
HETATM   16  H2  UNL     1      -8.267  16.210  68.832  1.00  0.00     0.000 HD 
HETATM   17  H   UNL     1      -8.034  13.364  65.960  1.00  0.00     0.000 HD 
BRANCH  13  18
HETATM   18  C   UNL     1      -9.520  12.874  67.396  1.00  0.00    -0.198 A  
HETATM   19  C   UNL     1     -10.893  13.105  67.219  1.00  0.00    -0.270 A  
HETATM   20  C   UNL     1     -11.844  12.335  67.889  1.00  0.00    -0.358 A  
HETATM   21  C   UNL     1     -11.424  11.302  68.717  1.00  0.00    -0.293 A  
HETATM   22  C   UNL     1     -10.067  11.003  68.841  1.00  0.00    -0.212 A  
HETATM   23 CL   UNL     1     -12.590  10.401  69.606  1.00  0.00    -0.028 Cl 
HETATM   24  C   UNL     1      -9.114  11.778  68.162  1.00  0.00    -0.185 A  
ENDBRANCH  13  18
ENDBRANCH   2   4
TORSDOF 2
ENDMDL
MODEL       83
REMARK 921   NORMALIZED FREE ENERGY PREDICTED BY IDOCK:   -3.93 KCAL/MOL
REMARK 922        TOTAL FREE ENERGY PREDICTED BY IDOCK:   -4.59 KCAL/MOL
REMARK 923 INTER-LIGAND FREE ENERGY PREDICTED BY IDOCK:   -4.28 KCAL/MOL
REMARK 924 INTRA-LIGAND FREE ENERGY PREDICTED BY IDOCK:   -0.31 KCAL/MOL
REMARK 927      BINDING AFFINITY PREDICTED BY RF-SCORE:    0.00 PKD
ROOT
HETATM    1  C   UNL     1      -5.985  12.853  69.982  1.00  0.00    -0.139 C  
HETATM    2  C   UNL     1      -6.782  12.531  68.724  1.00  0.00    -0.093 C  
HETATM    3  C   UNL     1      -6.019  11.528  67.856  1.00  0.00    -0.045 C  
ENDROOT
BRANCH   2   4
HETATM    4  N   UNL     1      -8.075  11.974  69.077  1.00  0.00    -0.354 NA 
HETATM    5  C   UNL     1      -9.230  12.054  68.370  1.00  0.00    -0.160 C  
HETATM    6  H   UNL     1      -8.121  11.463  69.958  1.00  0.00     0.000 HD 
HETATM    7  N   UNL     1      -9.536  13.006  67.559  1.00  0.00    -0.198 NA 
HETATM    8  N   UNL     1     -10.110  11.031  68.570  1.00  0.00    -0.183 NA 
HETATM    9  H1  UNL     1     -10.405  13.066  67.027  1.00  0.00     0.000 HD 
HETATM   10  H2  UNL     1      -8.857  13.758  67.438  1.00  0.00     0.000 HD 
HETATM   11  C   UNL     1      -9.958   9.760  69.041  1.00  0.00    -0.184 C  
HETATM   12  H   UNL     1     -11.071  11.261  68.319  1.00  0.00     0.000 HD 
HETATM   13  N   UNL     1     -11.115   9.150  69.461  1.00  0.00    -0.422 NA 
HETATM   14  N   UNL     1      -8.795   9.182  69.121  1.00  0.00    -0.143 NA 
HETATM   15  H1  UNL     1      -8.681   8.231  69.474  1.00  0.00     0.000 HD 
HETATM   16  H2  UNL     1      -7.967   9.697  68.822  1.00  0.00     0.000 HD 
HETATM   17  H   UNL     1     -11.998   9.351  68.994  1.00  0.00     0.000 HD 
BRANCH  13  18
HETATM   18  C   UNL     1     -11.074   8.240  70.549  1.00  0.00    -0.249 A  
HETATM   19  C   UNL     1     -11.042   8.697  71.876  1.00  0.00    -0.416 A  
HETATM   20  C   UNL     1     -10.930   7.804  72.942  1.00  0.00    -0.467 A  
HETATM   21  C   UNL     1     -10.885   6.439  72.686  1.00  0.00    -0.240 A  
HETATM   22  C   UNL     1     -11.000   5.961  71.380  1.00  0.00    -0.327 A  
HETATM   23 CL   UNL     1     -10.669   5.339  73.991  1.00  0.00    -0.319 Cl 
HETATM   24  C   UNL     1     -11.115   6.863  70.312  1.00  0.00    -0.342 A  
ENDBRANCH  13  18
ENDBRANCH   2   4
TORSDOF 2
ENDMDL
MODEL       84
REMARK 921   NORMALIZED FREE ENERGY PREDICTED BY IDOCK:   -3.92 KCAL/MOL
REMARK 922        TOTAL FREE ENERGY PREDICTED BY IDOCK:   -4.59 KCAL/MOL
REMARK 923 INTER-LIGAND FREE ENERGY PREDICTED BY IDOCK:   -4.81 KCAL/MOL
REMARK 924 INTRA-LIGAND FREE ENERGY PREDICTED BY IDOCK:    0.22 KCAL/MOL
REMARK 927      BINDING AFFINITY PREDICTED BY RF-SCORE:    0.00 PKD
ROOT
HETATM    1  C   UNL     1      -8.004   6.681  65.411  1.00  0.00    -0.121 C  
HETATM    2  C   UNL     1      -7.142   7.931  65.285  1.00  0.00    -0.060 C  
HETATM    3  C   UNL     1      -5.938   7.656  64.382  1.00  0.00    -0.041 C  
ENDROOT
BRANCH   2   4
HETATM    4  N   UNL     1      -7.918   9.024  64.729  1.00  0.00    -0.121 NA 
HETATM    5  C   UNL     1      -8.765   8.982  63.670  1.00  0.00    -0.077 C  
HETATM    6  H   UNL     1      -7.815   9.929  65.189  1.00  0.00     0.000 HD 
HETATM    7  N   UNL     1      -8.674   8.161  62.683  1.00  0.00    -0.420 NA 
HETATM    8  N   UNL     1      -9.769   9.905  63.689  1.00  0.00    -0.492 NA 
HETATM    9  H1  UNL     1      -9.311   8.130  61.887  1.00  0.00     0.000 HD 
HETATM   10  H2  UNL     1      -7.906   7.490  62.699  1.00  0.00     0.000 HD 
HETATM   11  C   UNL     1     -10.341  10.629  64.695  1.00  0.00    -0.283 C  
HETATM   12  H   UNL     1     -10.173  10.091  62.771  1.00  0.00     0.000 HD 
HETATM   13  N   UNL     1     -11.056  11.729  64.288  1.00  0.00    -0.342 NA 
HETATM   14  N   UNL     1     -10.187  10.320  65.949  1.00  0.00    -0.246 NA 
HETATM   15  H1  UNL     1     -10.614  10.862  66.701  1.00  0.00     0.000 HD 
HETATM   16  H2  UNL     1      -9.618   9.508  66.190  1.00  0.00     0.000 HD 
HETATM   17  H   UNL     1     -11.565  11.711  63.405  1.00  0.00     0.000 HD 
BRANCH  13  18
HETATM   18  C   UNL     1     -11.084  12.890  65.104  1.00  0.00    -0.292 A  
HETATM   19  C   UNL     1     -10.168  13.935  64.908  1.00  0.00    -0.378 A  
HETATM   20  C   UNL     1     -10.149  15.043  65.756  1.00  0.00    -0.367 A  
HETATM   21  C   UNL     1     -11.075  15.129  66.787  1.00  0.00    -0.307 A  
HETATM   22  C   UNL     1     -12.048  14.140  66.947  1.00  0.00    -0.466 A  
HETATM   23 CL   UNL     1     -11.006  16.455  67.881  1.00  0.00    -0.328 Cl 
HETATM   24  C   UNL     1     -12.064  13.029  66.091  1.00  0.00    -0.473 A  
ENDBRANCH  13  18
ENDBRANCH   2   4
TORSDOF 2
ENDMDL
MODEL       85
REMARK 921   NORMALIZED FREE ENERGY PREDICTED BY IDOCK:   -3.92 KCAL/MOL
REMARK 922        TOTAL FREE ENERGY PREDICTED BY IDOCK:   -4.58 KCAL/MOL
REMARK 923 INTER-LIGAND FREE ENERGY PREDICTED BY IDOCK:   -4.29 KCAL/MOL
REMARK 924 INTRA-LIGAND FREE ENERGY PREDICTED BY IDOCK:   -0.30 KCAL/MOL
REMARK 927      BINDING AFFINITY PREDICTED BY RF-SCORE:    0.00 PKD
ROOT
HETATM    1  C   UNL     1      -6.671   8.300  64.706  1.00  0.00    -0.067 C  
HETATM    2  C   UNL     1      -8.173   8.061  64.791  1.00  0.00    -0.121 C  
HETATM    3  C   UNL     1      -8.464   6.568  64.957  1.00  0.00    -0.017 C  
ENDROOT
BRANCH   2   4
HETATM    4  N   UNL     1      -8.736   8.787  65.916  1.00  0.00    -0.159 NA 
HETATM    5  C   UNL     1      -9.601   9.831  65.876  1.00  0.00    -0.250 C  
HETATM    6  H   UNL     1      -8.446   8.476  66.843  1.00  0.00     0.000 HD 
HETATM    7  N   UNL     1      -9.698  10.675  64.909  1.00  0.00    -0.257 NA 
HETATM    8  N   UNL     1     -10.406   9.964  66.970  1.00  0.00    -0.235 NA 
HETATM    9  H1  UNL     1     -10.349  11.460  64.880  1.00  0.00     0.000 HD 
HETATM   10  H2  UNL     1      -9.075  10.548  64.111  1.00  0.00     0.000 HD 
HETATM   11  C   UNL     1     -10.799   9.089  67.940  1.00  0.00    -0.053 C  
HETATM   12  H   UNL     1     -10.789  10.902  67.085  1.00  0.00     0.000 HD 
HETATM   13  N   UNL     1     -11.297   9.668  69.081  1.00  0.00    -0.454 NA 
HETATM   14  N   UNL     1     -10.676   7.800  67.807  1.00  0.00    -0.454 NA 
HETATM   15  H1  UNL     1     -10.970   7.146  68.533  1.00  0.00     0.000 HD 
HETATM   16  H2  UNL     1     -10.271   7.431  66.947  1.00  0.00     0.000 HD 
HETATM   17  H   UNL     1     -11.822  10.541  69.026  1.00  0.00     0.000 HD 
BRANCH  13  18
HETATM   18  C   UNL     1     -11.076   9.047  70.338  1.00  0.00    -0.244 A  
HETATM   19  C   UNL     1      -9.799   9.022  70.921  1.00  0.00    -0.330 A  
HETATM   20  C   UNL     1      -9.569   8.349  72.121  1.00  0.00    -0.367 A  
HETATM   21  C   UNL     1     -10.629   7.725  72.766  1.00  0.00    -0.341 A  
HETATM   22  C   UNL     1     -11.922   7.810  72.247  1.00  0.00    -0.356 A  
HETATM   23 CL   UNL     1     -10.335   6.829  74.206  1.00  0.00    -0.352 Cl 
HETATM   24  C   UNL     1     -12.148   8.490  71.041  1.00  0.00    -0.231 A  
ENDBRANCH  13  18
ENDBRANCH   2   4
TORSDOF 2
ENDMDL
MODEL       86
REMARK 921   NORMALIZED FREE ENERGY PREDICTED BY IDOCK:   -3.91 KCAL/MOL
REMARK 922        TOTAL FREE ENERGY PREDICTED BY IDOCK:   -4.58 KCAL/MOL
REMARK 923 INTER-LIGAND FREE ENERGY PREDICTED BY IDOCK:   -4.32 KCAL/MOL
REMARK 924 INTRA-LIGAND FREE ENERGY PREDICTED BY IDOCK:   -0.26 KCAL/MOL
REMARK 927      BINDING AFFINITY PREDICTED BY RF-SCORE:    0.00 PKD
ROOT
HETATM    1  C   UNL     1      -9.175   3.117  67.000  1.00  0.00    -0.198 C  
HETATM    2  C   UNL     1      -9.054   4.085  65.830  1.00  0.00    -0.142 C  
HETATM    3  C   UNL     1     -10.315   4.033  64.965  1.00  0.00    -0.174 C  
ENDROOT
BRANCH   2   4
HETATM    4  N   UNL     1      -8.860   5.440  66.314  1.00  0.00    -0.126 NA 
HETATM    5  C   UNL     1      -8.258   6.470  65.669  1.00  0.00    -0.137 C  
HETATM    6  H   UNL     1      -9.218   5.640  67.249  1.00  0.00     0.000 HD 
HETATM    7  N   UNL     1      -7.340   6.348  64.776  1.00  0.00    -0.071 NA 
HETATM    8  N   UNL     1      -8.684   7.714  66.032  1.00  0.00    -0.154 NA 
HETATM    9  H1  UNL     1      -6.887   7.124  64.291  1.00  0.00     0.000 HD 
HETATM   10  H2  UNL     1      -7.041   5.403  64.535  1.00  0.00     0.000 HD 
HETATM   11  C   UNL     1      -9.824   8.163  66.632  1.00  0.00    -0.261 C  
HETATM   12  H   UNL     1      -8.020   8.456  65.811  1.00  0.00     0.000 HD 
HETATM   13  N   UNL     1      -9.740   9.418  67.183  1.00  0.00    -0.164 NA 
HETATM   14  N   UNL     1     -10.902   7.437  66.710  1.00  0.00    -0.521 NA 
HETATM   15  H1  UNL     1     -11.754   7.772  67.159  1.00  0.00     0.000 HD 
HETATM   16  H2  UNL     1     -10.894   6.499  66.309  1.00  0.00     0.000 HD 
HETATM   17  H   UNL     1      -9.154  10.130  66.746  1.00  0.00     0.000 HD 
BRANCH  13  18
HETATM   18  C   UNL     1     -10.471   9.720  68.361  1.00  0.00    -0.218 A  
HETATM   19  C   UNL     1     -10.203   9.058  69.570  1.00  0.00    -0.205 A  
HETATM   20  C   UNL     1     -10.970   9.303  70.709  1.00  0.00    -0.349 A  
HETATM   21  C   UNL     1     -11.990  10.244  70.655  1.00  0.00    -0.342 A  
HETATM   22  C   UNL     1     -12.218  10.973  69.486  1.00  0.00    -0.352 A  
HETATM   23 CL   UNL     1     -12.987  10.494  72.035  1.00  0.00    -0.547 Cl 
HETATM   24  C   UNL     1     -11.443  10.724  68.344  1.00  0.00    -0.358 A  
ENDBRANCH  13  18
ENDBRANCH   2   4
TORSDOF 2
ENDMDL
MODEL       87
REMARK 921   NORMALIZED FREE ENERGY PREDICTED BY IDOCK:   -3.91 KCAL/MOL
REMARK 922        TOTAL FREE ENERGY PREDICTED BY IDOCK:   -4.58 KCAL/MOL
REMARK 923 INTER-LIGAND FREE ENERGY PREDICTED BY IDOCK:   -4.44 KCAL/MOL
REMARK 924 INTRA-LIGAND FREE ENERGY PREDICTED BY IDOCK:   -0.13 KCAL/MOL
REMARK 927      BINDING AFFINITY PREDICTED BY RF-SCORE:    0.00 PKD
ROOT
HETATM    1  C   UNL     1     -10.516  16.329  66.449  1.00  0.00    -0.297 C  
HETATM    2  C   UNL     1      -9.516  15.250  66.054  1.00  0.00    -0.337 C  
HETATM    3  C   UNL     1      -8.298  15.291  66.980  1.00  0.00    -0.267 C  
ENDROOT
BRANCH   2   4
HETATM    4  N   UNL     1     -10.133  13.938  66.131  1.00  0.00    -0.300 NA 
HETATM    5  C   UNL     1     -10.467  13.120  65.102  1.00  0.00    -0.324 C  
HETATM    6  H   UNL     1     -10.340  13.592  67.069  1.00  0.00     0.000 HD 
HETATM    7  N   UNL     1     -10.767  13.511  63.914  1.00  0.00    -0.497 NA 
HETATM    8  N   UNL     1     -10.481  11.788  65.397  1.00  0.00    -0.262 NA 
HETATM    9  H1  UNL     1     -11.018  12.895  63.140  1.00  0.00     0.000 HD 
HETATM   10  H2  UNL     1     -10.752  14.515  63.731  1.00  0.00     0.000 HD 
HETATM   11  C   UNL     1      -9.893  11.053  66.385  1.00  0.00    -0.212 C  
HETATM   12  H   UNL     1     -11.042  11.231  64.752  1.00  0.00     0.000 HD 
HETATM   13  N   UNL     1     -10.436   9.808  66.589  1.00  0.00    -0.196 NA 
HETATM   14  N   UNL     1      -8.912  11.514  67.106  1.00  0.00    -0.162 NA 
HETATM   15  H1  UNL     1      -8.473  10.965  67.844  1.00  0.00     0.000 HD 
HETATM   16  H2  UNL     1      -8.572  12.459  66.926  1.00  0.00     0.000 HD 
HETATM   17  H   UNL     1     -10.815   9.280  65.804  1.00  0.00     0.000 HD 
BRANCH  13  18
HETATM   18  C   UNL     1     -10.468   9.262  67.899  1.00  0.00    -0.236 A  
HETATM   19  C   UNL     1      -9.888   8.015  68.178  1.00  0.00    -0.195 A  
HETATM   20  C   UNL     1      -9.982   7.446  69.448  1.00  0.00    -0.176 A  
HETATM   21  C   UNL     1     -10.629   8.143  70.461  1.00  0.00    -0.220 A  
HETATM   22  C   UNL     1     -11.139   9.420  70.225  1.00  0.00    -0.299 A  
HETATM   23 CL   UNL     1     -10.815   7.412  72.008  1.00  0.00    -0.247 Cl 
HETATM   24  C   UNL     1     -11.040   9.989  68.947  1.00  0.00    -0.219 A  
ENDBRANCH  13  18
ENDBRANCH   2   4
TORSDOF 2
ENDMDL
MODEL       88
REMARK 921   NORMALIZED FREE ENERGY PREDICTED BY IDOCK:   -3.90 KCAL/MOL
REMARK 922        TOTAL FREE ENERGY PREDICTED BY IDOCK:   -4.56 KCAL/MOL
REMARK 923 INTER-LIGAND FREE ENERGY PREDICTED BY IDOCK:   -4.30 KCAL/MOL
REMARK 924 INTRA-LIGAND FREE ENERGY PREDICTED BY IDOCK:   -0.26 KCAL/MOL
REMARK 927      BINDING AFFINITY PREDICTED BY RF-SCORE:    0.00 PKD
ROOT
HETATM    1  C   UNL     1     -10.655  10.958  64.749  1.00  0.00    -0.316 C  
HETATM    2  C   UNL     1     -10.512  11.966  65.883  1.00  0.00    -0.258 C  
HETATM    3  C   UNL     1     -11.885  12.502  66.294  1.00  0.00    -0.453 C  
ENDROOT
BRANCH   2   4
HETATM    4  N   UNL     1      -9.876  11.345  67.031  1.00  0.00    -0.190 NA 
HETATM    5  C   UNL     1      -9.456  11.949  68.170  1.00  0.00    -0.195 C  
HETATM    6  H   UNL     1      -9.728  10.337  66.973  1.00  0.00     0.000 HD 
HETATM    7  N   UNL     1      -9.082  13.177  68.262  1.00  0.00    -0.233 NA 
HETATM    8  N   UNL     1      -9.437  11.154  69.279  1.00  0.00    -0.413 NA 
HETATM    9  H1  UNL     1      -8.766  13.631  69.120  1.00  0.00     0.000 HD 
HETATM   10  H2  UNL     1      -9.103  13.739  67.411  1.00  0.00     0.000 HD 
HETATM   11  C   UNL     1     -10.077   9.992  69.595  1.00  0.00    -0.236 C  
HETATM   12  H   UNL     1      -8.822  11.496  70.018  1.00  0.00     0.000 HD 
HETATM   13  N   UNL     1      -9.525   9.285  70.635  1.00  0.00    -0.256 NA 
HETATM   14  N   UNL     1     -11.114   9.566  68.933  1.00  0.00    -0.446 NA 
HETATM   15  H1  UNL     1     -11.593   8.697  69.169  1.00  0.00     0.000 HD 
HETATM   16  H2  UNL     1     -11.460  10.121  68.150  1.00  0.00     0.000 HD 
HETATM   17  H   UNL     1      -9.083   9.776  71.411  1.00  0.00     0.000 HD 
BRANCH  13  18
HETATM   18  C   UNL     1      -9.574   7.866  70.624  1.00  0.00    -0.166 A  
HETATM   19  C   UNL     1      -8.662   7.115  69.865  1.00  0.00    -0.142 A  
HETATM   20  C   UNL     1      -8.755   5.725  69.799  1.00  0.00    -0.127 A  
HETATM   21  C   UNL     1      -9.744   5.073  70.523  1.00  0.00    -0.204 A  
HETATM   22  C   UNL     1     -10.607   5.794  71.349  1.00  0.00    -0.313 A  
HETATM   23 CL   UNL     1      -9.911   3.366  70.383  1.00  0.00    -0.132 Cl 
HETATM   24  C   UNL     1     -10.508   7.191  71.415  1.00  0.00    -0.220 A  
ENDBRANCH  13  18
ENDBRANCH   2   4
TORSDOF 2
ENDMDL
MODEL       89
REMARK 921   NORMALIZED FREE ENERGY PREDICTED BY IDOCK:   -3.87 KCAL/MOL
REMARK 922        TOTAL FREE ENERGY PREDICTED BY IDOCK:   -4.53 KCAL/MOL
REMARK 923 INTER-LIGAND FREE ENERGY PREDICTED BY IDOCK:   -4.52 KCAL/MOL
REMARK 924 INTRA-LIGAND FREE ENERGY PREDICTED BY IDOCK:   -0.00 KCAL/MOL
REMARK 927      BINDING AFFINITY PREDICTED BY RF-SCORE:    0.00 PKD
ROOT
HETATM    1  C   UNL     1      -9.298   3.679  71.665  1.00  0.00    -0.201 C  
HETATM    2  C   UNL     1      -9.119   5.099  72.189  1.00  0.00    -0.136 C  
HETATM    3  C   UNL     1      -7.807   5.694  71.674  1.00  0.00    -0.109 C  
ENDROOT
BRANCH   2   4
HETATM    4  N   UNL     1     -10.226   5.936  71.763  1.00  0.00    -0.198 NA 
HETATM    5  C   UNL     1     -11.489   5.950  72.257  1.00  0.00    -0.297 C  
HETATM    6  H   UNL     1     -10.031   6.589  71.005  1.00  0.00     0.000 HD 
HETATM    7  N   UNL     1     -12.080   4.947  72.806  1.00  0.00    -0.037 NA 
HETATM    8  N   UNL     1     -12.151   7.137  72.133  1.00  0.00    -0.425 NA 
HETATM    9  H1  UNL     1     -13.031   4.958  73.177  1.00  0.00     0.000 HD 
HETATM   10  H2  UNL     1     -11.557   4.074  72.875  1.00  0.00     0.000 HD 
HETATM   11  C   UNL     1     -11.724   8.419  71.954  1.00  0.00    -0.334 C  
HETATM   12  H   UNL     1     -13.166   7.047  72.185  1.00  0.00     0.000 HD 
HETATM   13  N   UNL     1     -12.677   9.294  71.493  1.00  0.00    -0.333 NA 
HETATM   14  N   UNL     1     -10.491   8.779  72.167  1.00  0.00    -0.339 NA 
HETATM   15  H1  UNL     1     -10.171   9.738  72.033  1.00  0.00     0.000 HD 
HETATM   16  H2  UNL     1      -9.821   8.076  72.480  1.00  0.00     0.000 HD 
HETATM   17  H   UNL     1     -13.652   9.182  71.771  1.00  0.00     0.000 HD 
BRANCH  13  18
HETATM   18  C   UNL     1     -12.299  10.353  70.627  1.00  0.00    -0.346 A  
HETATM   19  C   UNL     1     -11.686  10.096  69.391  1.00  0.00    -0.096 A  
HETATM   20  C   UNL     1     -11.251  11.139  68.573  1.00  0.00    -0.318 A  
HETATM   21  C   UNL     1     -11.460  12.452  68.973  1.00  0.00    -0.300 A  
HETATM   22  C   UNL     1     -12.143  12.729  70.159  1.00  0.00    -0.370 A  
HETATM   23 CL   UNL     1     -10.856  13.740  68.005  1.00  0.00    -0.255 Cl 
HETATM   24  C   UNL     1     -12.581  11.677  70.976  1.00  0.00    -0.431 A  
ENDBRANCH  13  18
ENDBRANCH   2   4
TORSDOF 2
ENDMDL
MODEL       90
REMARK 921   NORMALIZED FREE ENERGY PREDICTED BY IDOCK:   -3.86 KCAL/MOL
REMARK 922        TOTAL FREE ENERGY PREDICTED BY IDOCK:   -4.52 KCAL/MOL
REMARK 923 INTER-LIGAND FREE ENERGY PREDICTED BY IDOCK:   -4.67 KCAL/MOL
REMARK 924 INTRA-LIGAND FREE ENERGY PREDICTED BY IDOCK:    0.15 KCAL/MOL
REMARK 927      BINDING AFFINITY PREDICTED BY RF-SCORE:    0.00 PKD
ROOT
HETATM    1  C   UNL     1     -11.989  14.122  64.340  1.00  0.00    -0.478 C  
HETATM    2  C   UNL     1     -10.650  14.232  65.059  1.00  0.00    -0.425 C  
HETATM    3  C   UNL     1     -10.320  15.698  65.347  1.00  0.00    -0.421 C  
ENDROOT
BRANCH   2   4
HETATM    4  N   UNL     1     -10.688  13.495  66.309  1.00  0.00    -0.286 NA 
HETATM    5  C   UNL     1     -11.662  13.518  67.253  1.00  0.00    -0.383 C  
HETATM    6  H   UNL     1      -9.890  12.889  66.500  1.00  0.00     0.000 HD 
HETATM    7  N   UNL     1     -12.450  14.510  67.478  1.00  0.00    -0.505 NA 
HETATM    8  N   UNL     1     -11.775  12.384  68.004  1.00  0.00    -0.348 NA 
HETATM    9  H1  UNL     1     -13.183  14.528  68.188  1.00  0.00     0.000 HD 
HETATM   10  H2  UNL     1     -12.333  15.344  66.902  1.00  0.00     0.000 HD 
HETATM   11  C   UNL     1     -11.378  11.096  67.797  1.00  0.00    -0.293 C  
HETATM   12  H   UNL     1     -12.248  12.529  68.895  1.00  0.00     0.000 HD 
HETATM   13  N   UNL     1     -11.320  10.315  68.926  1.00  0.00    -0.420 NA 
HETATM   14  N   UNL     1     -11.043  10.650  66.621  1.00  0.00    -0.100 NA 
HETATM   15  H1  UNL     1     -10.746   9.686  66.467  1.00  0.00     0.000 HD 
HETATM   16  H2  UNL     1     -11.078  11.287  65.825  1.00  0.00     0.000 HD 
HETATM   17  H   UNL     1     -11.984  10.462  69.685  1.00  0.00     0.000 HD 
BRANCH  13  18
HETATM   18  C   UNL     1     -10.331   9.302  69.029  1.00  0.00    -0.214 A  
HETATM   19  C   UNL     1     -10.635   7.960  68.751  1.00  0.00    -0.154 A  
HETATM   20  C   UNL     1      -9.682   6.956  68.922  1.00  0.00    -0.142 A  
HETATM   21  C   UNL     1      -8.401   7.296  69.339  1.00  0.00    -0.133 A  
HETATM   22  C   UNL     1      -8.055   8.633  69.539  1.00  0.00    -0.110 A  
HETATM   23 CL   UNL     1      -7.246   6.054  69.625  1.00  0.00    -0.072 Cl 
HETATM   24  C   UNL     1      -9.016   9.639  69.364  1.00  0.00    -0.186 A  
ENDBRANCH  13  18
ENDBRANCH   2   4
TORSDOF 2
ENDMDL
MODEL       91
REMARK 921   NORMALIZED FREE ENERGY PREDICTED BY IDOCK:   -3.86 KCAL/MOL
REMARK 922        TOTAL FREE ENERGY PREDICTED BY IDOCK:   -4.52 KCAL/MOL
REMARK 923 INTER-LIGAND FREE ENERGY PREDICTED BY IDOCK:   -4.74 KCAL/MOL
REMARK 924 INTRA-LIGAND FREE ENERGY PREDICTED BY IDOCK:    0.22 KCAL/MOL
REMARK 927      BINDING AFFINITY PREDICTED BY RF-SCORE:    0.00 PKD
ROOT
HETATM    1  C   UNL     1     -10.445  11.692  66.753  1.00  0.00    -0.265 C  
HETATM    2  C   UNL     1      -9.334  11.772  67.793  1.00  0.00    -0.181 C  
HETATM    3  C   UNL     1      -8.792  13.200  67.881  1.00  0.00    -0.196 C  
ENDROOT
BRANCH   2   4
HETATM    4  N   UNL     1      -9.834  11.368  69.094  1.00  0.00    -0.415 NA 
HETATM    5  C   UNL     1     -10.867  11.908  69.787  1.00  0.00     0.295 C  
HETATM    6  H   UNL     1      -9.352  10.587  69.539  1.00  0.00     0.000 HD 
HETATM    7  N   UNL     1     -11.264  13.129  69.692  1.00  0.00    -0.474 NA 
HETATM    8  N   UNL     1     -11.501  11.059  70.647  1.00  0.00    -0.413 NA 
HETATM    9  H1  UNL     1     -12.041  13.535  70.214  1.00  0.00     0.000 HD 
HETATM   10  H2  UNL     1     -10.762  13.737  69.044  1.00  0.00     0.000 HD 
HETATM   11  C   UNL     1     -11.575   9.699  70.716  1.00  0.00    -0.321 C  
HETATM   12  H   UNL     1     -12.023  11.534  71.383  1.00  0.00     0.000 HD 
HETATM   13  N   UNL     1     -11.982   9.196  71.928  1.00  0.00    -0.370 NA 
HETATM   14  N   UNL     1     -11.246   8.932  69.717  1.00  0.00    -0.430 NA 
HETATM   15  H1  UNL     1     -11.301   7.914  69.769  1.00  0.00     0.000 HD 
HETATM   16  H2  UNL     1     -10.921   9.363  68.852  1.00  0.00     0.000 HD 
HETATM   17  H   UNL     1     -12.657   9.710  72.494  1.00  0.00     0.000 HD 
BRANCH  13  18
HETATM   18  C   UNL     1     -11.460   7.959  72.387  1.00  0.00    -0.376 A  
HETATM   19  C   UNL     1     -12.105   6.747  72.097  1.00  0.00    -0.289 A  
HETATM   20  C   UNL     1     -11.631   5.540  72.609  1.00  0.00    -0.293 A  
HETATM   21  C   UNL     1     -10.481   5.534  73.388  1.00  0.00    -0.237 A  
HETATM   22  C   UNL     1      -9.778   6.718  73.619  1.00  0.00    -0.247 A  
HETATM   23 CL   UNL     1      -9.936   4.058  74.086  1.00  0.00    -0.164 Cl 
HETATM   24  C   UNL     1     -10.257   7.929  73.099  1.00  0.00    -0.358 A  
ENDBRANCH  13  18
ENDBRANCH   2   4
TORSDOF 2
ENDMDL
MODEL       92
REMARK 921   NORMALIZED FREE ENERGY PREDICTED BY IDOCK:   -3.84 KCAL/MOL
REMARK 922        TOTAL FREE ENERGY PREDICTED BY IDOCK:   -4.50 KCAL/MOL
REMARK 923 INTER-LIGAND FREE ENERGY PREDICTED BY IDOCK:   -4.21 KCAL/MOL
REMARK 924 INTRA-LIGAND FREE ENERGY PREDICTED BY IDOCK:   -0.29 KCAL/MOL
REMARK 927      BINDING AFFINITY PREDICTED BY RF-SCORE:    0.00 PKD
ROOT
HETATM    1  C   UNL     1      -8.269   4.732  69.453  1.00  0.00    -0.076 C  
HETATM    2  C   UNL     1      -9.586   5.210  68.854  1.00  0.00    -0.144 C  
HETATM    3  C   UNL     1     -10.583   5.547  69.964  1.00  0.00    -0.384 C  
ENDROOT
BRANCH   2   4
HETATM    4  N   UNL     1      -9.367   6.387  68.032  1.00  0.00    -0.116 NA 
HETATM    5  C   UNL     1      -9.376   6.463  66.678  1.00  0.00    -0.153 C  
HETATM    6  H   UNL     1      -9.186   7.258  68.532  1.00  0.00     0.000 HD 
HETATM    7  N   UNL     1      -9.083   5.496  65.881  1.00  0.00    -0.157 NA 
HETATM    8  N   UNL     1      -9.719   7.680  66.164  1.00  0.00    -0.446 NA 
HETATM    9  H1  UNL     1      -9.089   5.553  64.862  1.00  0.00     0.000 HD 
HETATM   10  H2  UNL     1      -8.825   4.602  66.301  1.00  0.00     0.000 HD 
HETATM   11  C   UNL     1     -10.403   8.741  66.678  1.00  0.00    -0.228 C  
HETATM   12  H   UNL     1      -9.401   7.824  65.205  1.00  0.00     0.000 HD 
HETATM   13  N   UNL     1     -10.223   9.930  66.013  1.00  0.00    -0.235 NA 
HETATM   14  N   UNL     1     -11.141   8.643  67.746  1.00  0.00    -0.408 NA 
HETATM   15  H1  UNL     1     -11.652   9.437  68.131  1.00  0.00     0.000 HD 
HETATM   16  H2  UNL     1     -11.210   7.739  68.214  1.00  0.00     0.000 HD 
HETATM   17  H   UNL     1     -10.084   9.935  65.003  1.00  0.00     0.000 HD 
BRANCH  13  18
HETATM   18  C   UNL     1     -10.234  11.150  66.739  1.00  0.00    -0.232 A  
HETATM   19  C   UNL     1      -9.095  11.590  67.433  1.00  0.00    -0.166 A  
HETATM   20  C   UNL     1      -9.128  12.752  68.204  1.00  0.00    -0.203 A  
HETATM   21  C   UNL     1     -10.295  13.503  68.255  1.00  0.00    -0.252 A  
HETATM   22  C   UNL     1     -11.411  13.128  67.505  1.00  0.00    -0.371 A  
HETATM   23 CL   UNL     1     -10.364  14.894  69.265  1.00  0.00    -0.244 Cl 
HETATM   24  C   UNL     1     -11.373  11.960  66.729  1.00  0.00    -0.393 A  
ENDBRANCH  13  18
ENDBRANCH   2   4
TORSDOF 2
ENDMDL
MODEL       93
REMARK 921   NORMALIZED FREE ENERGY PREDICTED BY IDOCK:   -3.80 KCAL/MOL
REMARK 922        TOTAL FREE ENERGY PREDICTED BY IDOCK:   -4.45 KCAL/MOL
REMARK 923 INTER-LIGAND FREE ENERGY PREDICTED BY IDOCK:   -4.17 KCAL/MOL
REMARK 924 INTRA-LIGAND FREE ENERGY PREDICTED BY IDOCK:   -0.29 KCAL/MOL
REMARK 927      BINDING AFFINITY PREDICTED BY RF-SCORE:    0.00 PKD
ROOT
HETATM    1  C   UNL     1      -7.082   4.583  62.786  1.00  0.00    -0.039 C  
HETATM    2  C   UNL     1      -8.057   3.740  63.598  1.00  0.00    -0.089 C  
HETATM    3  C   UNL     1      -7.317   3.003  64.717  1.00  0.00    -0.070 C  
ENDROOT
BRANCH   2   4
HETATM    4  N   UNL     1      -9.088   4.581  64.179  1.00  0.00    -0.185 NA 
HETATM    5  C   UNL     1     -10.317   4.204  64.610  1.00  0.00    -0.175 C  
HETATM    6  H   UNL     1      -8.862   5.572  64.273  1.00  0.00     0.000 HD 
HETATM    7  N   UNL     1     -10.984   3.200  64.157  1.00  0.00    -0.582 NA 
HETATM    8  N   UNL     1     -10.855   4.981  65.594  1.00  0.00    -0.702 NA 
HETATM    9  H1  UNL     1     -11.909   2.916  64.481  1.00  0.00     0.000 HD 
HETATM   10  H2  UNL     1     -10.554   2.646  63.416  1.00  0.00     0.000 HD 
HETATM   11  C   UNL     1     -10.302   5.836  66.502  1.00  0.00    -0.209 C  
HETATM   12  H   UNL     1     -11.869   4.907  65.667  1.00  0.00     0.000 HD 
HETATM   13  N   UNL     1     -11.179   6.724  67.076  1.00  0.00    -0.741 NA 
HETATM   14  N   UNL     1      -9.030   5.836  66.774  1.00  0.00    -0.116 NA 
HETATM   15  H1  UNL     1      -8.617   6.476  67.453  1.00  0.00     0.000 HD 
HETATM   16  H2  UNL     1      -8.424   5.172  66.292  1.00  0.00     0.000 HD 
HETATM   17  H   UNL     1     -12.145   6.450  67.251  1.00  0.00     0.000 HD 
BRANCH  13  18
HETATM   18  C   UNL     1     -10.733   8.026  67.423  1.00  0.00    -0.190 A  
HETATM   19  C   UNL     1     -10.530   8.389  68.764  1.00  0.00    -0.202 A  
HETATM   20  C   UNL     1     -10.161   9.689  69.109  1.00  0.00    -0.196 A  
HETATM   21  C   UNL     1      -9.957  10.629  68.107  1.00  0.00    -0.158 A  
HETATM   22  C   UNL     1     -10.073  10.266  66.764  1.00  0.00    -0.272 A  
HETATM   23 CL   UNL     1      -9.578  12.252  68.532  1.00  0.00    -0.170 Cl 
HETATM   24  C   UNL     1     -10.441   8.957  66.422  1.00  0.00    -0.071 A  
ENDBRANCH  13  18
ENDBRANCH   2   4
TORSDOF 2
ENDMDL
MODEL       94
REMARK 921   NORMALIZED FREE ENERGY PREDICTED BY IDOCK:   -3.80 KCAL/MOL
REMARK 922        TOTAL FREE ENERGY PREDICTED BY IDOCK:   -4.45 KCAL/MOL
REMARK 923 INTER-LIGAND FREE ENERGY PREDICTED BY IDOCK:   -4.15 KCAL/MOL
REMARK 924 INTRA-LIGAND FREE ENERGY PREDICTED BY IDOCK:   -0.30 KCAL/MOL
REMARK 927      BINDING AFFINITY PREDICTED BY RF-SCORE:    0.00 PKD
ROOT
HETATM    1  C   UNL     1      -6.497   5.365  66.700  1.00  0.00    -0.044 C  
HETATM    2  C   UNL     1      -7.377   6.516  66.231  1.00  0.00    -0.073 C  
HETATM    3  C   UNL     1      -8.723   5.986  65.732  1.00  0.00    -0.155 C  
ENDROOT
BRANCH   2   4
HETATM    4  N   UNL     1      -7.603   7.452  67.318  1.00  0.00    -0.105 NA 
HETATM    5  C   UNL     1      -7.019   8.662  67.502  1.00  0.00    -0.078 C  
HETATM    6  H   UNL     1      -8.280   7.166  68.026  1.00  0.00     0.000 HD 
HETATM    7  N   UNL     1      -5.850   8.991  67.075  1.00  0.00    -0.045 NA 
HETATM    8  N   UNL     1      -7.759   9.567  68.206  1.00  0.00    -0.085 NA 
HETATM    9  H1  UNL     1      -5.410   9.902  67.214  1.00  0.00     0.000 HD 
HETATM   10  H2  UNL     1      -5.323   8.287  66.558  1.00  0.00     0.000 HD 
HETATM   11  C   UNL     1      -9.094   9.668  68.464  1.00  0.00    -0.131 C  
HETATM   12  H   UNL     1      -7.204  10.315  68.621  1.00  0.00     0.000 HD 
HETATM   13  N   UNL     1      -9.425  10.486  69.516  1.00  0.00    -0.399 NA 
HETATM   14  N   UNL     1      -9.986   9.007  67.786  1.00  0.00    -0.176 NA 
HETATM   15  H1  UNL     1     -10.985   9.082  67.979  1.00  0.00     0.000 HD 
HETATM   16  H2  UNL     1      -9.676   8.391  67.034  1.00  0.00     0.000 HD 
HETATM   17  H   UNL     1      -8.867  11.316  69.715  1.00  0.00     0.000 HD 
BRANCH  13  18
HETATM   18  C   UNL     1     -10.547  10.170  70.326  1.00  0.00    -0.264 A  
HETATM   19  C   UNL     1     -10.494   9.127  71.264  1.00  0.00    -0.398 A  
HETATM   20  C   UNL     1     -11.619   8.771  72.007  1.00  0.00    -0.436 A  
HETATM   21  C   UNL     1     -12.799   9.484  71.843  1.00  0.00    -0.420 A  
HETATM   22  C   UNL     1     -12.849  10.578  70.977  1.00  0.00    -0.502 A  
HETATM   23 CL   UNL     1     -14.210   9.000  72.701  1.00  0.00    -0.401 Cl 
HETATM   24  C   UNL     1     -11.714  10.934  70.233  1.00  0.00    -0.437 A  
ENDBRANCH  13  18
ENDBRANCH   2   4
TORSDOF 2
ENDMDL
MODEL       95
REMARK 921   NORMALIZED FREE ENERGY PREDICTED BY IDOCK:   -3.78 KCAL/MOL
REMARK 922        TOTAL FREE ENERGY PREDICTED BY IDOCK:   -4.43 KCAL/MOL
REMARK 923 INTER-LIGAND FREE ENERGY PREDICTED BY IDOCK:   -4.96 KCAL/MOL
REMARK 924 INTRA-LIGAND FREE ENERGY PREDICTED BY IDOCK:    0.53 KCAL/MOL
REMARK 927      BINDING AFFINITY PREDICTED BY RF-SCORE:    0.00 PKD
ROOT
HETATM    1  C   UNL     1      -7.387   6.928  72.144  1.00  0.00    -0.087 C  
HETATM    2  C   UNL     1      -8.852   7.281  72.370  1.00  0.00    -0.123 C  
HETATM    3  C   UNL     1      -9.003   8.141  73.627  1.00  0.00    -0.275 C  
ENDROOT
BRANCH   2   4
HETATM    4  N   UNL     1      -9.376   8.006  71.227  1.00  0.00    -0.146 NA 
HETATM    5  C   UNL     1     -10.116   7.511  70.203  1.00  0.00    -0.195 C  
HETATM    6  H   UNL     1      -9.164   9.004  71.190  1.00  0.00     0.000 HD 
HETATM    7  N   UNL     1     -10.075   6.296  69.781  1.00  0.00    -0.170 NA 
HETATM    8  N   UNL     1     -10.947   8.408  69.597  1.00  0.00    -0.414 NA 
HETATM    9  H1  UNL     1     -10.631   5.924  69.010  1.00  0.00     0.000 HD 
HETATM   10  H2  UNL     1      -9.437   5.656  70.254  1.00  0.00     0.000 HD 
HETATM   11  C   UNL     1     -11.478   9.597  70.003  1.00  0.00    -0.145 C  
HETATM   12  H   UNL     1     -11.226   8.135  68.655  1.00  0.00     0.000 HD 
HETATM   13  N   UNL     1     -11.956  10.398  68.994  1.00  0.00    -0.638 NA 
HETATM   14  N   UNL     1     -11.496   9.962  71.252  1.00  0.00    -0.375 NA 
HETATM   15  H1  UNL     1     -11.893  10.851  71.555  1.00  0.00     0.000 HD 
HETATM   16  H2  UNL     1     -11.098   9.336  71.953  1.00  0.00     0.000 HD 
HETATM   17  H   UNL     1     -12.376   9.980  68.164  1.00  0.00     0.000 HD 
BRANCH  13  18
HETATM   18  C   UNL     1     -11.861  11.809  69.113  1.00  0.00    -0.326 A  
HETATM   19  C   UNL     1     -11.564  12.611  68.000  1.00  0.00    -0.394 A  
HETATM   20  C   UNL     1     -11.401  13.990  68.132  1.00  0.00    -0.320 A  
HETATM   21  C   UNL     1     -11.571  14.582  69.377  1.00  0.00    -0.303 A  
HETATM   22  C   UNL     1     -11.948  13.812  70.479  1.00  0.00    -0.367 A  
HETATM   23 CL   UNL     1     -11.295  16.270  69.559  1.00  0.00    -0.306 Cl 
HETATM   24  C   UNL     1     -12.114  12.426  70.341  1.00  0.00    -0.381 A  
ENDBRANCH  13  18
ENDBRANCH   2   4
TORSDOF 2
ENDMDL
MODEL       96
REMARK 921   NORMALIZED FREE ENERGY PREDICTED BY IDOCK:   -3.78 KCAL/MOL
REMARK 922        TOTAL FREE ENERGY PREDICTED BY IDOCK:   -4.43 KCAL/MOL
REMARK 923 INTER-LIGAND FREE ENERGY PREDICTED BY IDOCK:   -4.68 KCAL/MOL
REMARK 924 INTRA-LIGAND FREE ENERGY PREDICTED BY IDOCK:    0.26 KCAL/MOL
REMARK 927      BINDING AFFINITY PREDICTED BY RF-SCORE:    0.00 PKD
ROOT
HETATM    1  C   UNL     1      -5.772  14.687  70.679  1.00  0.00    -0.163 C  
HETATM    2  C   UNL     1      -6.547  15.114  69.439  1.00  0.00    -0.151 C  
HETATM    3  C   UNL     1      -6.023  14.377  68.205  1.00  0.00    -0.120 C  
ENDROOT
BRANCH   2   4
HETATM    4  N   UNL     1      -7.960  14.825  69.605  1.00  0.00    -0.410 NA 
HETATM    5  C   UNL     1      -9.003  15.401  68.957  1.00  0.00    -0.230 C  
HETATM    6  H   UNL     1      -8.196  14.105  70.289  1.00  0.00     0.000 HD 
HETATM    7  N   UNL     1      -9.007  16.594  68.475  1.00  0.00    -0.226 NA 
HETATM    8  N   UNL     1     -10.117  14.622  68.836  1.00  0.00    -0.236 NA 
HETATM    9  H1  UNL     1      -9.792  17.027  67.987  1.00  0.00     0.000 HD 
HETATM   10  H2  UNL     1      -8.159  17.150  68.589  1.00  0.00     0.000 HD 
HETATM   11  C   UNL     1     -10.314  13.273  68.897  1.00  0.00    -0.060 C  
HETATM   12  H   UNL     1     -10.972  15.152  68.667  1.00  0.00     0.000 HD 
HETATM   13  N   UNL     1     -11.612  12.881  69.112  1.00  0.00    -0.304 NA 
HETATM   14  N   UNL     1      -9.334  12.422  68.797  1.00  0.00    -0.404 NA 
HETATM   15  H1  UNL     1      -9.481  11.413  68.842  1.00  0.00     0.000 HD 
HETATM   16  H2  UNL     1      -8.386  12.775  68.668  1.00  0.00     0.000 HD 
HETATM   17  H   UNL     1     -12.383  13.428  68.728  1.00  0.00     0.000 HD 
BRANCH  13  18
HETATM   18  C   UNL     1     -11.877  11.711  69.870  1.00  0.00    -0.358 A  
HETATM   19  C   UNL     1     -11.305  10.477  69.523  1.00  0.00    -0.341 A  
HETATM   20  C   UNL     1     -11.622   9.315  70.225  1.00  0.00    -0.151 A  
HETATM   21  C   UNL     1     -12.489   9.387  71.308  1.00  0.00    -0.335 A  
HETATM   22  C   UNL     1     -13.002  10.617  71.721  1.00  0.00    -0.577 A  
HETATM   23 CL   UNL     1     -12.943   7.944  72.128  1.00  0.00    -0.244 Cl 
HETATM   24  C   UNL     1     -12.679  11.784  71.013  1.00  0.00    -0.372 A  
ENDBRANCH  13  18
ENDBRANCH   2   4
TORSDOF 2
ENDMDL
MODEL       97
REMARK 921   NORMALIZED FREE ENERGY PREDICTED BY IDOCK:   -3.77 KCAL/MOL
REMARK 922        TOTAL FREE ENERGY PREDICTED BY IDOCK:   -4.42 KCAL/MOL
REMARK 923 INTER-LIGAND FREE ENERGY PREDICTED BY IDOCK:   -4.18 KCAL/MOL
REMARK 924 INTRA-LIGAND FREE ENERGY PREDICTED BY IDOCK:   -0.24 KCAL/MOL
REMARK 927      BINDING AFFINITY PREDICTED BY RF-SCORE:    0.00 PKD
ROOT
HETATM    1  C   UNL     1      -7.023   5.555  64.240  1.00  0.00    -0.048 C  
HETATM    2  C   UNL     1      -8.525   5.709  64.443  1.00  0.00    -0.052 C  
HETATM    3  C   UNL     1      -9.190   4.335  64.554  1.00  0.00    -0.155 C  
ENDROOT
BRANCH   2   4
HETATM    4  N   UNL     1      -8.795   6.471  65.650  1.00  0.00    -0.317 NA 
HETATM    5  C   UNL     1      -9.213   7.758  65.738  1.00  0.00     0.056 C  
HETATM    6  H   UNL     1      -8.652   5.981  66.533  1.00  0.00     0.000 HD 
HETATM    7  N   UNL     1      -8.979   8.674  64.864  1.00  0.00    -0.420 NA 
HETATM    8  N   UNL     1      -9.926   8.064  66.860  1.00  0.00    -0.242 NA 
HETATM    9  H1  UNL     1      -9.294   9.642  64.931  1.00  0.00     0.000 HD 
HETATM   10  H2  UNL     1      -8.437   8.410  64.041  1.00  0.00     0.000 HD 
HETATM   11  C   UNL     1     -10.627   7.301  67.747  1.00  0.00    -0.221 C  
HETATM   12  H   UNL     1      -9.938   9.060  67.080  1.00  0.00     0.000 HD 
HETATM   13  N   UNL     1     -10.890   7.901  68.954  1.00  0.00    -0.418 NA 
HETATM   14  N   UNL     1     -10.986   6.078  67.482  1.00  0.00    -0.410 NA 
HETATM   15  H1  UNL     1     -11.510   5.507  68.146  1.00  0.00     0.000 HD 
HETATM   16  H2  UNL     1     -10.735   5.676  66.579  1.00  0.00     0.000 HD 
HETATM   17  H   UNL     1     -11.056   8.906  69.001  1.00  0.00     0.000 HD 
BRANCH  13  18
HETATM   18  C   UNL     1     -10.931   7.116  70.136  1.00  0.00    -0.267 A  
HETATM   19  C   UNL     1      -9.794   6.425  70.587  1.00  0.00    -0.206 A  
HETATM   20  C   UNL     1      -9.854   5.597  71.707  1.00  0.00    -0.208 A  
HETATM   21  C   UNL     1     -11.048   5.483  72.408  1.00  0.00    -0.256 A  
HETATM   22  C   UNL     1     -12.166   6.226  72.025  1.00  0.00    -0.270 A  
HETATM   23 CL   UNL     1     -11.147   4.403  73.744  1.00  0.00    -0.346 Cl 
HETATM   24  C   UNL     1     -12.100   7.059  70.899  1.00  0.00    -0.403 A  
ENDBRANCH  13  18
ENDBRANCH   2   4
TORSDOF 2
ENDMDL
MODEL       98
REMARK 921   NORMALIZED FREE ENERGY PREDICTED BY IDOCK:   -3.76 KCAL/MOL
REMARK 922        TOTAL FREE ENERGY PREDICTED BY IDOCK:   -4.41 KCAL/MOL
REMARK 923 INTER-LIGAND FREE ENERGY PREDICTED BY IDOCK:   -4.60 KCAL/MOL
REMARK 924 INTRA-LIGAND FREE ENERGY PREDICTED BY IDOCK:    0.19 KCAL/MOL
REMARK 927      BINDING AFFINITY PREDICTED BY RF-SCORE:    0.00 PKD
ROOT
HETATM    1  C   UNL     1     -11.409   7.311  72.295  1.00  0.00    -0.310 C  
HETATM    2  C   UNL     1     -10.345   8.400  72.251  1.00  0.00    -0.333 C  
HETATM    3  C   UNL     1      -9.078   7.934  72.972  1.00  0.00    -0.300 C  
ENDROOT
BRANCH   2   4
HETATM    4  N   UNL     1     -10.020   8.731  70.875  1.00  0.00    -0.205 NA 
HETATM    5  C   UNL     1      -9.886   7.877  69.830  1.00  0.00    -0.179 C  
HETATM    6  H   UNL     1      -9.875   9.720  70.671  1.00  0.00     0.000 HD 
HETATM    7  N   UNL     1      -9.530   6.644  69.922  1.00  0.00    -0.156 NA 
HETATM    8  N   UNL     1     -10.150   8.411  68.602  1.00  0.00    -0.189 NA 
HETATM    9  H1  UNL     1      -9.429   6.002  69.136  1.00  0.00     0.000 HD 
HETATM   10  H2  UNL     1      -9.333   6.280  70.856  1.00  0.00     0.000 HD 
HETATM   11  C   UNL     1     -10.864   9.503  68.204  1.00  0.00    -0.156 C  
HETATM   12  H   UNL     1      -9.732   7.892  67.830  1.00  0.00     0.000 HD 
HETATM   13  N   UNL     1     -10.595   9.944  66.931  1.00  0.00    -0.209 NA 
HETATM   14  N   UNL     1     -11.712  10.105  68.987  1.00  0.00    -0.501 NA 
HETATM   15  H1  UNL     1     -12.245  10.922  68.689  1.00  0.00     0.000 HD 
HETATM   16  H2  UNL     1     -11.846   9.748  69.933  1.00  0.00     0.000 HD 
HETATM   17  H   UNL     1     -10.351   9.278  66.199  1.00  0.00     0.000 HD 
BRANCH  13  18
HETATM   18  C   UNL     1     -10.658  11.332  66.641  1.00  0.00    -0.262 A  
HETATM   19  C   UNL     1     -11.656  11.853  65.802  1.00  0.00    -0.281 A  
HETATM   20  C   UNL     1     -11.674  13.205  65.460  1.00  0.00    -0.393 A  
HETATM   21  C   UNL     1     -10.710  14.055  65.988  1.00  0.00    -0.294 A  
HETATM   22  C   UNL     1      -9.760  13.573  66.889  1.00  0.00    -0.261 A  
HETATM   23 CL   UNL     1     -10.682  15.707  65.508  1.00  0.00    -0.382 Cl 
HETATM   24  C   UNL     1      -9.747  12.213  67.232  1.00  0.00    -0.193 A  
ENDBRANCH  13  18
ENDBRANCH   2   4
TORSDOF 2
ENDMDL
MODEL       99
REMARK 921   NORMALIZED FREE ENERGY PREDICTED BY IDOCK:   -3.71 KCAL/MOL
REMARK 922        TOTAL FREE ENERGY PREDICTED BY IDOCK:   -4.35 KCAL/MOL
REMARK 923 INTER-LIGAND FREE ENERGY PREDICTED BY IDOCK:   -4.09 KCAL/MOL
REMARK 924 INTRA-LIGAND FREE ENERGY PREDICTED BY IDOCK:   -0.26 KCAL/MOL
REMARK 927      BINDING AFFINITY PREDICTED BY RF-SCORE:    0.00 PKD
ROOT
HETATM    1  C   UNL     1      -7.262  20.648  66.254  1.00  0.00    -0.166 C  
HETATM    2  C   UNL     1      -8.479  20.105  66.992  1.00  0.00    -0.335 C  
HETATM    3  C   UNL     1      -9.694  20.075  66.062  1.00  0.00    -0.464 C  
ENDROOT
BRANCH   2   4
HETATM    4  N   UNL     1      -8.215  18.763  67.480  1.00  0.00    -0.259 NA 
HETATM    5  C   UNL     1      -7.742  18.406  68.699  1.00  0.00    -0.301 C  
HETATM    6  H   UNL     1      -8.407  18.001  66.829  1.00  0.00     0.000 HD 
HETATM    7  N   UNL     1      -6.990  19.138  69.445  1.00  0.00    -0.279 NA 
HETATM    8  N   UNL     1      -8.108  17.163  69.126  1.00  0.00    -0.101 NA 
HETATM    9  H1  UNL     1      -6.634  18.868  70.363  1.00  0.00     0.000 HD 
HETATM   10  H2  UNL     1      -6.731  20.059  69.091  1.00  0.00     0.000 HD 
HETATM   11  C   UNL     1      -9.131  16.330  68.778  1.00  0.00    -0.245 C  
HETATM   12  H   UNL     1      -7.498  16.781  69.848  1.00  0.00     0.000 HD 
HETATM   13  N   UNL     1      -8.962  15.016  69.138  1.00  0.00    -0.293 NA 
HETATM   14  N   UNL     1     -10.173  16.745  68.118  1.00  0.00    -0.286 NA 
HETATM   15  H1  UNL     1     -10.938  16.122  67.857  1.00  0.00     0.000 HD 
HETATM   16  H2  UNL     1     -10.227  17.728  67.852  1.00  0.00     0.000 HD 
HETATM   17  H   UNL     1      -8.467  14.780  69.998  1.00  0.00     0.000 HD 
BRANCH  13  18
HETATM   18  C   UNL     1      -9.481  13.987  68.309  1.00  0.00    -0.216 A  
HETATM   19  C   UNL     1      -8.814  13.595  67.138  1.00  0.00    -0.237 A  
HETATM   20  C   UNL     1      -9.362  12.635  66.287  1.00  0.00    -0.162 A  
HETATM   21  C   UNL     1     -10.567  12.033  66.623  1.00  0.00    -0.232 A  
HETATM   22  C   UNL     1     -11.204  12.349  67.824  1.00  0.00    -0.327 A  
HETATM   23 CL   UNL     1     -11.284  10.905  65.538  1.00  0.00     0.078 Cl 
HETATM   24  C   UNL     1     -10.649  13.313  68.678  1.00  0.00    -0.264 A  
ENDBRANCH  13  18
ENDBRANCH   2   4
TORSDOF 2
ENDMDL
MODEL      100
REMARK 921   NORMALIZED FREE ENERGY PREDICTED BY IDOCK:   -3.65 KCAL/MOL
REMARK 922        TOTAL FREE ENERGY PREDICTED BY IDOCK:   -4.28 KCAL/MOL
REMARK 923 INTER-LIGAND FREE ENERGY PREDICTED BY IDOCK:   -4.59 KCAL/MOL
REMARK 924 INTRA-LIGAND FREE ENERGY PREDICTED BY IDOCK:    0.30 KCAL/MOL
REMARK 927      BINDING AFFINITY PREDICTED BY RF-SCORE:    0.00 PKD
ROOT
HETATM    1  C   UNL     1     -12.962  13.960  65.283  1.00  0.00    -0.341 C  
HETATM    2  C   UNL     1     -12.107  12.760  65.673  1.00  0.00    -0.459 C  
HETATM    3  C   UNL     1     -11.282  12.285  64.475  1.00  0.00    -0.378 C  
ENDROOT
BRANCH   2   4
HETATM    4  N   UNL     1     -11.213  13.112  66.761  1.00  0.00    -0.289 NA 
HETATM    5  C   UNL     1     -10.468  12.272  67.523  1.00  0.00    -0.213 C  
HETATM    6  H   UNL     1     -11.136  14.106  66.979  1.00  0.00     0.000 HD 
HETATM    7  N   UNL     1     -10.763  11.045  67.775  1.00  0.00    -0.210 NA 
HETATM    8  N   UNL     1      -9.332  12.814  68.049  1.00  0.00    -0.207 NA 
HETATM    9  H1  UNL     1     -10.202  10.413  68.349  1.00  0.00     0.000 HD 
HETATM   10  H2  UNL     1     -11.623  10.675  67.370  1.00  0.00     0.000 HD 
HETATM   11  C   UNL     1      -8.577  13.896  67.702  1.00  0.00    -0.190 C  
HETATM   12  H   UNL     1      -8.976  12.311  68.862  1.00  0.00     0.000 HD 
HETATM   13  N   UNL     1      -7.731  14.356  68.682  1.00  0.00    -0.133 NA 
HETATM   14  N   UNL     1      -8.681  14.474  66.541  1.00  0.00    -0.461 NA 
HETATM   15  H1  UNL     1      -8.117  15.283  66.281  1.00  0.00     0.000 HD 
HETATM   16  H2  UNL     1      -9.350  14.104  65.865  1.00  0.00     0.000 HD 
HETATM   17  H   UNL     1      -7.302  13.703  69.336  1.00  0.00     0.000 HD 
BRANCH  13  18
HETATM   18  C   UNL     1      -7.458  15.746  68.779  1.00  0.00    -0.158 A  
HETATM   19  C   UNL     1      -8.358  16.698  68.274  1.00  0.00    -0.198 A  
HETATM   20  C   UNL     1      -8.056  18.060  68.305  1.00  0.00    -0.296 A  
HETATM   21  C   UNL     1      -6.862  18.480  68.878  1.00  0.00    -0.278 A  
HETATM   22  C   UNL     1      -5.994  17.556  69.461  1.00  0.00    -0.246 A  
HETATM   23 CL   UNL     1      -6.451  20.151  68.850  1.00  0.00    -0.349 Cl 
HETATM   24  C   UNL     1      -6.303  16.188  69.429  1.00  0.00    -0.179 A  
ENDBRANCH  13  18
ENDBRANCH   2   4
TORSDOF 2
ENDMDL
MODEL      101
REMARK 921   NORMALIZED FREE ENERGY PREDICTED BY IDOCK:   -3.65 KCAL/MOL
REMARK 922        TOTAL FREE ENERGY PREDICTED BY IDOCK:   -4.28 KCAL/MOL
REMARK 923 INTER-LIGAND FREE ENERGY PREDICTED BY IDOCK:   -4.02 KCAL/MOL
REMARK 924 INTRA-LIGAND FREE ENERGY PREDICTED BY IDOCK:   -0.26 KCAL/MOL
REMARK 927      BINDING AFFINITY PREDICTED BY RF-SCORE:    0.00 PKD
ROOT
HETATM    1  C   UNL     1      -7.639   4.213  64.941  1.00  0.00    -0.077 C  
HETATM    2  C   UNL     1      -8.415   3.672  66.136  1.00  0.00    -0.111 C  
HETATM    3  C   UNL     1      -7.457   3.045  67.150  1.00  0.00    -0.070 C  
ENDROOT
BRANCH   2   4
HETATM    4  N   UNL     1      -9.160   4.740  66.777  1.00  0.00    -0.114 NA 
HETATM    5  C   UNL     1     -10.443   5.112  66.538  1.00  0.00    -0.294 C  
HETATM    6  H   UNL     1      -8.662   5.273  67.490  1.00  0.00     0.000 HD 
HETATM    7  N   UNL     1     -11.061   4.959  65.419  1.00  0.00    -0.842 NA 
HETATM    8  N   UNL     1     -11.086   5.697  67.589  1.00  0.00    -0.168 NA 
HETATM    9  H1  UNL     1     -12.026   5.239  65.240  1.00  0.00     0.000 HD 
HETATM   10  H2  UNL     1     -10.546   4.524  64.653  1.00  0.00     0.000 HD 
HETATM   11  C   UNL     1     -10.867   5.676  68.935  1.00  0.00    -0.159 C  
HETATM   12  H   UNL     1     -11.890   6.262  67.314  1.00  0.00     0.000 HD 
HETATM   13  N   UNL     1     -11.479   6.682  69.642  1.00  0.00    -0.584 NA 
HETATM   14  N   UNL     1     -10.102   4.789  69.502  1.00  0.00    -0.220 NA 
HETATM   15  H1  UNL     1      -9.938   4.773  70.509  1.00  0.00     0.000 HD 
HETATM   16  H2  UNL     1      -9.650   4.084  68.919  1.00  0.00     0.000 HD 
HETATM   17  H   UNL     1     -12.385   7.041  69.343  1.00  0.00     0.000 HD 
BRANCH  13  18
HETATM   18  C   UNL     1     -10.844   7.219  70.792  1.00  0.00    -0.241 A  
HETATM   19  C   UNL     1      -9.785   8.133  70.675  1.00  0.00    -0.184 A  
HETATM   20  C   UNL     1      -9.115   8.605  71.804  1.00  0.00    -0.317 A  
HETATM   21  C   UNL     1      -9.527   8.192  73.064  1.00  0.00    -0.263 A  
HETATM   22  C   UNL     1     -10.630   7.349  73.206  1.00  0.00    -0.442 A  
HETATM   23 CL   UNL     1      -8.654   8.711  74.453  1.00  0.00     0.371 Cl 
HETATM   24  C   UNL     1     -11.303   6.879  72.068  1.00  0.00    -0.301 A  
ENDBRANCH  13  18
ENDBRANCH   2   4
TORSDOF 2
ENDMDL
MODEL      102
REMARK 921   NORMALIZED FREE ENERGY PREDICTED BY IDOCK:   -3.64 KCAL/MOL
REMARK 922        TOTAL FREE ENERGY PREDICTED BY IDOCK:   -4.28 KCAL/MOL
REMARK 923 INTER-LIGAND FREE ENERGY PREDICTED BY IDOCK:   -5.04 KCAL/MOL
REMARK 924 INTRA-LIGAND FREE ENERGY PREDICTED BY IDOCK:    0.76 KCAL/MOL
REMARK 927      BINDING AFFINITY PREDICTED BY RF-SCORE:    0.00 PKD
ROOT
HETATM    1  C   UNL     1      -8.618   7.644  65.735  1.00  0.00    -0.156 C  
HETATM    2  C   UNL     1      -7.799   8.929  65.760  1.00  0.00    -0.099 C  
HETATM    3  C   UNL     1      -6.783   8.934  64.616  1.00  0.00    -0.073 C  
ENDROOT
BRANCH   2   4
HETATM    4  N   UNL     1      -8.671  10.083  65.633  1.00  0.00    -0.149 NA 
HETATM    5  C   UNL     1      -9.622  10.300  64.690  1.00  0.00    -0.312 C  
HETATM    6  H   UNL     1      -8.554  10.815  66.333  1.00  0.00     0.000 HD 
HETATM    7  N   UNL     1      -9.605   9.817  63.498  1.00  0.00    -0.498 NA 
HETATM    8  N   UNL     1     -10.653  11.105  65.077  1.00  0.00    -0.293 NA 
HETATM    9  H1  UNL     1     -10.321   9.981  62.789  1.00  0.00     0.000 HD 
HETATM   10  H2  UNL     1      -8.815   9.225  63.241  1.00  0.00     0.000 HD 
HETATM   11  C   UNL     1     -11.143  11.458  66.301  1.00  0.00    -0.221 C  
HETATM   12  H   UNL     1     -11.158  11.527  64.298  1.00  0.00     0.000 HD 
HETATM   13  N   UNL     1     -11.938  12.577  66.312  1.00  0.00    -0.577 NA 
HETATM   14  N   UNL     1     -10.846  10.801  67.385  1.00  0.00    -0.272 NA 
HETATM   15  H1  UNL     1     -11.211  11.065  68.300  1.00  0.00     0.000 HD 
HETATM   16  H2  UNL     1     -10.225   9.995  67.317  1.00  0.00     0.000 HD 
HETATM   17  H   UNL     1     -12.536  12.789  65.513  1.00  0.00     0.000 HD 
BRANCH  13  18
HETATM   18  C   UNL     1     -11.923  13.439  67.439  1.00  0.00    -0.346 A  
HETATM   19  C   UNL     1     -11.751  14.824  67.291  1.00  0.00    -0.366 A  
HETATM   20  C   UNL     1     -11.664  15.661  68.403  1.00  0.00    -0.301 A  
HETATM   21  C   UNL     1     -11.787  15.119  69.676  1.00  0.00    -0.334 A  
HETATM   22  C   UNL     1     -12.042  13.757  69.842  1.00  0.00    -0.412 A  
HETATM   23 CL   UNL     1     -11.604  16.135  71.052  1.00  0.00    -0.457 Cl 
HETATM   24  C   UNL     1     -12.131  12.919  68.720  1.00  0.00    -0.175 A  
ENDBRANCH  13  18
ENDBRANCH   2   4
TORSDOF 2
ENDMDL
MODEL      103
REMARK 921   NORMALIZED FREE ENERGY PREDICTED BY IDOCK:   -3.64 KCAL/MOL
REMARK 922        TOTAL FREE ENERGY PREDICTED BY IDOCK:   -4.28 KCAL/MOL
REMARK 923 INTER-LIGAND FREE ENERGY PREDICTED BY IDOCK:   -4.33 KCAL/MOL
REMARK 924 INTRA-LIGAND FREE ENERGY PREDICTED BY IDOCK:    0.05 KCAL/MOL
REMARK 927      BINDING AFFINITY PREDICTED BY RF-SCORE:    0.00 PKD
ROOT
HETATM    1  C   UNL     1     -10.056   4.184  64.907  1.00  0.00    -0.213 C  
HETATM    2  C   UNL     1      -9.106   3.742  66.013  1.00  0.00    -0.152 C  
HETATM    3  C   UNL     1      -7.793   4.522  65.928  1.00  0.00    -0.095 C  
ENDROOT
BRANCH   2   4
HETATM    4  N   UNL     1      -9.711   3.961  67.314  1.00  0.00    -0.214 NA 
HETATM    5  C   UNL     1      -9.526   3.234  68.444  1.00  0.00    -0.144 C  
HETATM    6  H   UNL     1     -10.349   4.753  67.387  1.00  0.00     0.000 HD 
HETATM    7  N   UNL     1      -9.211   1.987  68.479  1.00  0.00    -0.160 NA 
HETATM    8  N   UNL     1      -9.707   3.916  69.612  1.00  0.00    -0.189 NA 
HETATM    9  H1  UNL     1      -9.072   1.441  69.329  1.00  0.00     0.000 HD 
HETATM   10  H2  UNL     1      -9.090   1.508  67.586  1.00  0.00     0.000 HD 
HETATM   11  C   UNL     1      -9.680   5.244  69.921  1.00  0.00    -0.193 C  
HETATM   12  H   UNL     1      -9.900   3.314  70.413  1.00  0.00     0.000 HD 
HETATM   13  N   UNL     1     -10.280   5.580  71.110  1.00  0.00    -0.212 NA 
HETATM   14  N   UNL     1      -9.157   6.133  69.128  1.00  0.00    -0.128 NA 
HETATM   15  H1  UNL     1      -9.137   7.127  69.358  1.00  0.00     0.000 HD 
HETATM   16  H2  UNL     1      -8.753   5.826  68.243  1.00  0.00     0.000 HD 
HETATM   17  H   UNL     1     -10.246   4.936  71.901  1.00  0.00     0.000 HD 
BRANCH  13  18
HETATM   18  C   UNL     1     -10.947   6.826  71.234  1.00  0.00    -0.249 A  
HETATM   19  C   UNL     1     -10.234   8.035  71.219  1.00  0.00    -0.230 A  
HETATM   20  C   UNL     1     -10.882   9.255  71.413  1.00  0.00    -0.434 A  
HETATM   21  C   UNL     1     -12.260   9.275  71.585  1.00  0.00    -0.370 A  
HETATM   22  C   UNL     1     -12.998   8.092  71.519  1.00  0.00    -0.326 A  
HETATM   23 CL   UNL     1     -13.054  10.769  71.901  1.00  0.00    -0.599 Cl 
HETATM   24  C   UNL     1     -12.342   6.868  71.322  1.00  0.00    -0.422 A  
ENDBRANCH  13  18
ENDBRANCH   2   4
TORSDOF 2
ENDMDL
MODEL      104
REMARK 921   NORMALIZED FREE ENERGY PREDICTED BY IDOCK:   -3.54 KCAL/MOL
REMARK 922        TOTAL FREE ENERGY PREDICTED BY IDOCK:   -4.16 KCAL/MOL
REMARK 923 INTER-LIGAND FREE ENERGY PREDICTED BY IDOCK:   -3.89 KCAL/MOL
REMARK 924 INTRA-LIGAND FREE ENERGY PREDICTED BY IDOCK:   -0.27 KCAL/MOL
REMARK 927      BINDING AFFINITY PREDICTED BY RF-SCORE:    0.00 PKD
ROOT
HETATM    1  C   UNL     1      -5.834   3.385  64.822  1.00  0.00    -0.021 C  
HETATM    2  C   UNL     1      -7.300   2.972  64.867  1.00  0.00    -0.071 C  
HETATM    3  C   UNL     1      -7.497   1.821  65.856  1.00  0.00    -0.062 C  
ENDROOT
BRANCH   2   4
HETATM    4  N   UNL     1      -8.127   4.096  65.267  1.00  0.00    -0.100 NA 
HETATM    5  C   UNL     1      -9.246   4.558  64.655  1.00  0.00    -0.145 C  
HETATM    6  H   UNL     1      -7.833   4.596  66.107  1.00  0.00     0.000 HD 
HETATM    7  N   UNL     1      -9.503   4.442  63.399  1.00  0.00    -0.279 NA 
HETATM    8  N   UNL     1     -10.136   5.195  65.469  1.00  0.00    -0.397 NA 
HETATM    9  H1  UNL     1     -10.345   4.790  62.939  1.00  0.00     0.000 HD 
HETATM   10  H2  UNL     1      -8.812   3.965  62.820  1.00  0.00     0.000 HD 
HETATM   11  C   UNL     1     -10.340   5.168  66.818  1.00  0.00    -0.261 C  
HETATM   12  H   UNL     1     -10.775   5.815  64.972  1.00  0.00     0.000 HD 
HETATM   13  N   UNL     1     -11.065   6.220  67.321  1.00  0.00    -0.539 NA 
HETATM   14  N   UNL     1      -9.849   4.231  67.577  1.00  0.00    -0.151 NA 
HETATM   15  H1  UNL     1     -10.001   4.211  68.585  1.00  0.00     0.000 HD 
HETATM   16  H2  UNL     1      -9.292   3.492  67.148  1.00  0.00     0.000 HD 
HETATM   17  H   UNL     1     -11.808   6.642  66.765  1.00  0.00     0.000 HD 
BRANCH  13  18
HETATM   18  C   UNL     1     -10.774   6.718  68.618  1.00  0.00    -0.234 A  
HETATM   19  C   UNL     1     -11.529   6.321  69.732  1.00  0.00    -0.449 A  
HETATM   20  C   UNL     1     -11.289   6.865  70.994  1.00  0.00    -0.342 A  
HETATM   21  C   UNL     1     -10.262   7.786  71.155  1.00  0.00    -0.195 A  
HETATM   22  C   UNL     1      -9.446   8.131  70.076  1.00  0.00    -0.167 A  
HETATM   23 CL   UNL     1     -10.012   8.518  72.692  1.00  0.00    -0.323 Cl 
HETATM   24  C   UNL     1      -9.690   7.579  68.810  1.00  0.00    -0.151 A  
ENDBRANCH  13  18
ENDBRANCH   2   4
TORSDOF 2
ENDMDL
MODEL      105
REMARK 921   NORMALIZED FREE ENERGY PREDICTED BY IDOCK:   -3.52 KCAL/MOL
REMARK 922        TOTAL FREE ENERGY PREDICTED BY IDOCK:   -4.14 KCAL/MOL
REMARK 923 INTER-LIGAND FREE ENERGY PREDICTED BY IDOCK:   -3.93 KCAL/MOL
REMARK 924 INTRA-LIGAND FREE ENERGY PREDICTED BY IDOCK:   -0.21 KCAL/MOL
REMARK 927      BINDING AFFINITY PREDICTED BY RF-SCORE:    0.00 PKD
ROOT
HETATM    1  C   UNL     1      -5.982  14.756  70.464  1.00  0.00    -0.156 C  
HETATM    2  C   UNL     1      -6.870  14.987  69.248  1.00  0.00    -0.149 C  
HETATM    3  C   UNL     1      -6.138  14.576  67.969  1.00  0.00    -0.161 C  
ENDROOT
BRANCH   2   4
HETATM    4  N   UNL     1      -8.096  14.218  69.367  1.00  0.00    -0.349 NA 
HETATM    5  C   UNL     1      -9.328  14.551  68.908  1.00  0.00    -0.136 C  
HETATM    6  H   UNL     1      -8.022  13.323  69.851  1.00  0.00     0.000 HD 
HETATM    7  N   UNL     1      -9.757  15.753  68.744  1.00  0.00    -0.204 NA 
HETATM    8  N   UNL     1     -10.147  13.499  68.619  1.00  0.00    -0.347 NA 
HETATM    9  H1  UNL     1     -10.684  16.004  68.400  1.00  0.00     0.000 HD 
HETATM   10  H2  UNL     1      -9.119  16.515  68.977  1.00  0.00     0.000 HD 
HETATM   11  C   UNL     1      -9.903  12.186  68.340  1.00  0.00    -0.200 C  
HETATM   12  H   UNL     1     -11.138  13.741  68.609  1.00  0.00     0.000 HD 
HETATM   13  N   UNL     1     -10.983  11.349  68.477  1.00  0.00    -0.204 NA 
HETATM   14  N   UNL     1      -8.722  11.753  68.006  1.00  0.00    -0.160 NA 
HETATM   15  H1  UNL     1      -8.539  10.772  67.798  1.00  0.00     0.000 HD 
HETATM   16  H2  UNL     1      -7.951  12.420  67.951  1.00  0.00     0.000 HD 
HETATM   17  H   UNL     1     -11.922  11.684  68.261  1.00  0.00     0.000 HD 
BRANCH  13  18
HETATM   18  C   UNL     1     -10.786  10.015  68.920  1.00  0.00    -0.220 A  
HETATM   19  C   UNL     1     -10.512   8.982  68.010  1.00  0.00    -0.270 A  
HETATM   20  C   UNL     1     -10.390   7.660  68.438  1.00  0.00    -0.228 A  
HETATM   21  C   UNL     1     -10.506   7.368  69.791  1.00  0.00    -0.229 A  
HETATM   22  C   UNL     1     -10.696   8.391  70.721  1.00  0.00    -0.244 A  
HETATM   23 CL   UNL     1     -10.434   5.730  70.314  1.00  0.00    -0.322 Cl 
HETATM   24  C   UNL     1     -10.815   9.719  70.286  1.00  0.00    -0.356 A  
ENDBRANCH  13  18
ENDBRANCH   2   4
TORSDOF 2
ENDMDL
MODEL      106
REMARK 921   NORMALIZED FREE ENERGY PREDICTED BY IDOCK:   -3.50 KCAL/MOL
REMARK 922        TOTAL FREE ENERGY PREDICTED BY IDOCK:   -4.11 KCAL/MOL
REMARK 923 INTER-LIGAND FREE ENERGY PREDICTED BY IDOCK:   -4.18 KCAL/MOL
REMARK 924 INTRA-LIGAND FREE ENERGY PREDICTED BY IDOCK:    0.06 KCAL/MOL
REMARK 927      BINDING AFFINITY PREDICTED BY RF-SCORE:    0.00 PKD
ROOT
HETATM    1  C   UNL     1     -13.468  10.540  71.758  1.00  0.00    -0.345 C  
HETATM    2  C   UNL     1     -13.263   9.125  72.284  1.00  0.00    -0.461 C  
HETATM    3  C   UNL     1     -14.405   8.217  71.822  1.00  0.00    -0.582 C  
ENDROOT
BRANCH   2   4
HETATM    4  N   UNL     1     -12.001   8.589  71.808  1.00  0.00    -0.309 NA 
HETATM    5  C   UNL     1     -11.592   7.295  71.829  1.00  0.00    -0.275 C  
HETATM    6  H   UNL     1     -11.345   9.263  71.412  1.00  0.00     0.000 HD 
HETATM    7  N   UNL     1     -11.980   6.410  72.679  1.00  0.00    -0.513 NA 
HETATM    8  N   UNL     1     -10.694   6.952  70.861  1.00  0.00    -0.226 NA 
HETATM    9  H1  UNL     1     -11.673   5.438  72.694  1.00  0.00     0.000 HD 
HETATM   10  H2  UNL     1     -12.648   6.705  73.392  1.00  0.00     0.000 HD 
HETATM   11  C   UNL     1     -10.377   7.505  69.655  1.00  0.00    -0.225 C  
HETATM   12  H   UNL     1     -10.152   6.116  71.082  1.00  0.00     0.000 HD 
HETATM   13  N   UNL     1      -9.169   7.114  69.132  1.00  0.00    -0.140 NA 
HETATM   14  N   UNL     1     -11.147   8.371  69.062  1.00  0.00    -0.415 NA 
HETATM   15  H1  UNL     1     -10.910   8.785  68.161  1.00  0.00     0.000 HD 
HETATM   16  H2  UNL     1     -12.019   8.646  69.516  1.00  0.00     0.000 HD 
HETATM   17  H   UNL     1      -8.822   6.168  69.295  1.00  0.00     0.000 HD 
BRANCH  13  18
HETATM   18  C   UNL     1      -8.405   8.031  68.364  1.00  0.00    -0.127 A  
HETATM   19  C   UNL     1      -7.951   9.238  68.918  1.00  0.00    -0.098 A  
HETATM   20  C   UNL     1      -7.262  10.171  68.142  1.00  0.00    -0.081 A  
HETATM   21  C   UNL     1      -6.991   9.883  66.811  1.00  0.00    -0.089 A  
HETATM   22  C   UNL     1      -7.361   8.653  66.264  1.00  0.00    -0.086 A  
HETATM   23 CL   UNL     1      -6.210  11.062  65.830  1.00  0.00    -0.089 Cl 
HETATM   24  C   UNL     1      -8.051   7.717  67.049  1.00  0.00    -0.117 A  
ENDBRANCH  13  18
ENDBRANCH   2   4
TORSDOF 2
ENDMDL
MODEL      107
REMARK 921   NORMALIZED FREE ENERGY PREDICTED BY IDOCK:   -3.49 KCAL/MOL
REMARK 922        TOTAL FREE ENERGY PREDICTED BY IDOCK:   -4.11 KCAL/MOL
REMARK 923 INTER-LIGAND FREE ENERGY PREDICTED BY IDOCK:   -4.15 KCAL/MOL
REMARK 924 INTRA-LIGAND FREE ENERGY PREDICTED BY IDOCK:    0.04 KCAL/MOL
REMARK 927      BINDING AFFINITY PREDICTED BY RF-SCORE:    0.00 PKD
ROOT
HETATM    1  C   UNL     1     -10.041   4.619  71.745  1.00  0.00    -0.261 C  
HETATM    2  C   UNL     1      -9.095   5.765  71.407  1.00  0.00    -0.140 C  
HETATM    3  C   UNL     1      -8.207   5.388  70.219  1.00  0.00    -0.101 C  
ENDROOT
BRANCH   2   4
HETATM    4  N   UNL     1      -9.850   6.961  71.080  1.00  0.00    -0.177 NA 
HETATM    5  C   UNL     1     -10.358   7.878  71.941  1.00  0.00    -0.215 C  
HETATM    6  H   UNL     1     -10.018   7.131  70.089  1.00  0.00     0.000 HD 
HETATM    7  N   UNL     1     -10.708   7.638  73.156  1.00  0.00    -0.389 NA 
HETATM    8  N   UNL     1     -10.501   9.137  71.435  1.00  0.00    -0.323 NA 
HETATM    9  H1  UNL     1     -11.091   8.328  73.803  1.00  0.00     0.000 HD 
HETATM   10  H2  UNL     1     -10.594   6.684  73.498  1.00  0.00     0.000 HD 
HETATM   11  C   UNL     1      -9.922   9.781  70.381  1.00  0.00    -0.233 C  
HETATM   12  H   UNL     1     -11.172   9.710  71.945  1.00  0.00     0.000 HD 
HETATM   13  N   UNL     1     -10.586  10.901  69.945  1.00  0.00    -0.451 NA 
HETATM   14  N   UNL     1      -8.839   9.342  69.806  1.00  0.00    -0.167 NA 
HETATM   15  H1  UNL     1      -8.407   9.824  69.018  1.00  0.00     0.000 HD 
HETATM   16  H2  UNL     1      -8.409   8.487  70.157  1.00  0.00     0.000 HD 
HETATM   17  H   UNL     1     -11.086  11.491  70.609  1.00  0.00     0.000 HD 
BRANCH  13  18
HETATM   18  C   UNL     1     -10.573  11.233  68.565  1.00  0.00    -0.199 A  
HETATM   19  C   UNL     1     -10.213  12.519  68.132  1.00  0.00    -0.231 A  
HETATM   20  C   UNL     1     -10.270  12.866  66.782  1.00  0.00    -0.243 A  
HETATM   21  C   UNL     1     -10.653  11.911  65.849  1.00  0.00    -0.266 A  
HETATM   22  C   UNL     1     -10.933  10.604  66.249  1.00  0.00    -0.017 A  
HETATM   23 CL   UNL     1     -10.798  12.355  64.193  1.00  0.00    -0.374 Cl 
HETATM   24  C   UNL     1     -10.872  10.260  67.608  1.00  0.00    -0.363 A  
ENDBRANCH  13  18
ENDBRANCH   2   4
TORSDOF 2
ENDMDL
MODEL      108
REMARK 921   NORMALIZED FREE ENERGY PREDICTED BY IDOCK:   -3.49 KCAL/MOL
REMARK 922        TOTAL FREE ENERGY PREDICTED BY IDOCK:   -4.11 KCAL/MOL
REMARK 923 INTER-LIGAND FREE ENERGY PREDICTED BY IDOCK:   -4.83 KCAL/MOL
REMARK 924 INTRA-LIGAND FREE ENERGY PREDICTED BY IDOCK:    0.73 KCAL/MOL
REMARK 927      BINDING AFFINITY PREDICTED BY RF-SCORE:    0.00 PKD
ROOT
HETATM    1  C   UNL     1     -10.354   4.352  66.094  1.00  0.00    -0.175 C  
HETATM    2  C   UNL     1     -10.024   4.740  67.530  1.00  0.00    -0.144 C  
HETATM    3  C   UNL     1      -8.509   4.750  67.742  1.00  0.00    -0.103 C  
ENDROOT
BRANCH   2   4
HETATM    4  N   UNL     1     -10.559   6.056  67.831  1.00  0.00    -0.241 NA 
HETATM    5  C   UNL     1     -10.608   6.671  69.039  1.00  0.00    -0.239 C  
HETATM    6  H   UNL     1     -10.943   6.578  67.043  1.00  0.00     0.000 HD 
HETATM    7  N   UNL     1     -10.666   6.068  70.174  1.00  0.00    -0.282 NA 
HETATM    8  N   UNL     1     -10.601   8.035  68.999  1.00  0.00    -0.336 NA 
HETATM    9  H1  UNL     1     -10.702   6.532  71.083  1.00  0.00     0.000 HD 
HETATM   10  H2  UNL     1     -10.675   5.048  70.165  1.00  0.00     0.000 HD 
HETATM   11  C   UNL     1     -10.197   8.931  68.054  1.00  0.00    -0.213 C  
HETATM   12  H   UNL     1     -10.971   8.471  69.844  1.00  0.00     0.000 HD 
HETATM   13  N   UNL     1     -10.691  10.203  68.205  1.00  0.00    -0.226 NA 
HETATM   14  N   UNL     1      -9.428   8.594  67.059  1.00  0.00    -0.160 NA 
HETATM   15  H1  UNL     1      -9.126   9.264  66.351  1.00  0.00     0.000 HD 
HETATM   16  H2  UNL     1      -9.117   7.625  66.983  1.00  0.00     0.000 HD 
HETATM   17  H   UNL     1     -10.856  10.581  69.137  1.00  0.00     0.000 HD 
BRANCH  13  18
HETATM   18  C   UNL     1     -10.973  10.988  67.056  1.00  0.00    -0.272 A  
HETATM   19  C   UNL     1     -11.783  12.132  67.141  1.00  0.00    -0.372 A  
HETATM   20  C   UNL     1     -12.118  12.862  66.000  1.00  0.00    -0.484 A  
HETATM   21  C   UNL     1     -11.611  12.471  64.768  1.00  0.00    -0.337 A  
HETATM   22  C   UNL     1     -10.737  11.387  64.674  1.00  0.00    -0.378 A  
HETATM   23 CL   UNL     1     -12.083  13.322  63.349  1.00  0.00    -0.583 Cl 
HETATM   24  C   UNL     1     -10.401  10.658  65.824  1.00  0.00    -0.287 A  
ENDBRANCH  13  18
ENDBRANCH   2   4
TORSDOF 2
ENDMDL
MODEL      109
REMARK 921   NORMALIZED FREE ENERGY PREDICTED BY IDOCK:   -3.45 KCAL/MOL
REMARK 922        TOTAL FREE ENERGY PREDICTED BY IDOCK:   -4.07 KCAL/MOL
REMARK 923 INTER-LIGAND FREE ENERGY PREDICTED BY IDOCK:   -3.78 KCAL/MOL
REMARK 924 INTRA-LIGAND FREE ENERGY PREDICTED BY IDOCK:   -0.28 KCAL/MOL
REMARK 927      BINDING AFFINITY PREDICTED BY RF-SCORE:    0.00 PKD
ROOT
HETATM    1  C   UNL     1     -13.001  10.035  71.457  1.00  0.00    -0.535 C  
HETATM    2  C   UNL     1     -12.653   8.607  71.857  1.00  0.00    -0.359 C  
HETATM    3  C   UNL     1     -13.816   7.667  71.536  1.00  0.00    -0.466 C  
ENDROOT
BRANCH   2   4
HETATM    4  N   UNL     1     -11.466   8.160  71.149  1.00  0.00    -0.272 NA 
HETATM    5  C   UNL     1     -10.217   7.995  71.651  1.00  0.00    -0.202 C  
HETATM    6  H   UNL     1     -11.586   7.947  70.158  1.00  0.00     0.000 HD 
HETATM    7  N   UNL     1      -9.731   8.642  72.652  1.00  0.00    -0.212 NA 
HETATM    8  N   UNL     1      -9.449   7.067  71.011  1.00  0.00    -0.160 NA 
HETATM    9  H1  UNL     1      -8.791   8.517  73.029  1.00  0.00     0.000 HD 
HETATM   10  H2  UNL     1     -10.332   9.333  73.102  1.00  0.00     0.000 HD 
HETATM   11  C   UNL     1      -9.756   6.007  70.208  1.00  0.00    -0.165 C  
HETATM   12  H   UNL     1      -8.448   7.189  71.162  1.00  0.00     0.000 HD 
HETATM   13  N   UNL     1      -8.718   5.535  69.443  1.00  0.00    -0.107 NA 
HETATM   14  N   UNL     1     -10.955   5.506  70.145  1.00  0.00    -0.238 NA 
HETATM   15  H1  UNL     1     -11.185   4.714  69.545  1.00  0.00     0.000 HD 
HETATM   16  H2  UNL     1     -11.692   5.920  70.716  1.00  0.00     0.000 HD 
HETATM   17  H   UNL     1      -7.764   5.563  69.800  1.00  0.00     0.000 HD 
BRANCH  13  18
HETATM   18  C   UNL     1      -8.981   5.007  68.151  1.00  0.00    -0.108 A  
HETATM   19  C   UNL     1      -9.106   5.850  67.036  1.00  0.00    -0.116 A  
HETATM   20  C   UNL     1      -9.435   5.337  65.781  1.00  0.00    -0.132 A  
HETATM   21  C   UNL     1      -9.606   3.968  65.627  1.00  0.00    -0.190 A  
HETATM   22  C   UNL     1      -9.404   3.105  66.706  1.00  0.00    -0.148 A  
HETATM   23 CL   UNL     1     -10.087   3.339  64.100  1.00  0.00    -0.176 Cl 
HETATM   24  C   UNL     1      -9.070   3.625  67.965  1.00  0.00    -0.198 A  
ENDBRANCH  13  18
ENDBRANCH   2   4
TORSDOF 2
ENDMDL
MODEL      110
REMARK 921   NORMALIZED FREE ENERGY PREDICTED BY IDOCK:   -3.45 KCAL/MOL
REMARK 922        TOTAL FREE ENERGY PREDICTED BY IDOCK:   -4.06 KCAL/MOL
REMARK 923 INTER-LIGAND FREE ENERGY PREDICTED BY IDOCK:   -4.51 KCAL/MOL
REMARK 924 INTRA-LIGAND FREE ENERGY PREDICTED BY IDOCK:    0.45 KCAL/MOL
REMARK 927      BINDING AFFINITY PREDICTED BY RF-SCORE:    0.00 PKD
ROOT
HETATM    1  C   UNL     1      -7.287   9.424  67.425  1.00  0.00    -0.087 C  
HETATM    2  C   UNL     1      -6.903  10.206  68.675  1.00  0.00    -0.057 C  
HETATM    3  C   UNL     1      -5.381  10.322  68.781  1.00  0.00    -0.038 C  
ENDROOT
BRANCH   2   4
HETATM    4  N   UNL     1      -7.484  11.535  68.635  1.00  0.00    -0.111 NA 
HETATM    5  C   UNL     1      -7.565  12.371  67.569  1.00  0.00    -0.155 C  
HETATM    6  H   UNL     1      -7.878  11.882  69.510  1.00  0.00     0.000 HD 
HETATM    7  N   UNL     1      -6.747  12.383  66.575  1.00  0.00    -0.254 NA 
HETATM    8  N   UNL     1      -8.603  13.255  67.598  1.00  0.00    -0.183 NA 
HETATM    9  H1  UNL     1      -6.808  13.011  65.774  1.00  0.00     0.000 HD 
HETATM   10  H2  UNL     1      -5.979  11.711  66.591  1.00  0.00     0.000 HD 
HETATM   11  C   UNL     1      -9.791  13.265  68.269  1.00  0.00    -0.231 C  
HETATM   12  H   UNL     1      -8.465  14.070  67.000  1.00  0.00     0.000 HD 
HETATM   13  N   UNL     1     -10.407  14.490  68.347  1.00  0.00    -0.235 NA 
HETATM   14  N   UNL     1     -10.284  12.198  68.828  1.00  0.00    -0.381 NA 
HETATM   15  H1  UNL     1     -11.172  12.206  69.330  1.00  0.00     0.000 HD 
HETATM   16  H2  UNL     1      -9.764  11.323  68.762  1.00  0.00     0.000 HD 
HETATM   17  H   UNL     1     -10.322  15.156  67.580  1.00  0.00     0.000 HD 
BRANCH  13  18
HETATM   18  C   UNL     1     -11.164  14.824  69.501  1.00  0.00    -0.278 A  
HETATM   19  C   UNL     1     -10.713  15.797  70.406  1.00  0.00    -0.305 A  
HETATM   20  C   UNL     1     -11.422  16.073  71.576  1.00  0.00    -0.459 A  
HETATM   21  C   UNL     1     -12.609  15.400  71.829  1.00  0.00    -0.384 A  
HETATM   22  C   UNL     1     -13.117  14.489  70.901  1.00  0.00    -0.405 A  
HETATM   23 CL   UNL     1     -13.445  15.681  73.306  1.00  0.00    -0.597 Cl 
HETATM   24  C   UNL     1     -12.403  14.217  69.725  1.00  0.00    -0.350 A  
ENDBRANCH  13  18
ENDBRANCH   2   4
TORSDOF 2
ENDMDL
MODEL      111
REMARK 921   NORMALIZED FREE ENERGY PREDICTED BY IDOCK:   -3.43 KCAL/MOL
REMARK 922        TOTAL FREE ENERGY PREDICTED BY IDOCK:   -4.04 KCAL/MOL
REMARK 923 INTER-LIGAND FREE ENERGY PREDICTED BY IDOCK:   -3.75 KCAL/MOL
REMARK 924 INTRA-LIGAND FREE ENERGY PREDICTED BY IDOCK:   -0.29 KCAL/MOL
REMARK 927      BINDING AFFINITY PREDICTED BY RF-SCORE:    0.00 PKD
ROOT
HETATM    1  C   UNL     1      -8.993   1.508  64.193  1.00  0.00    -0.096 C  
HETATM    2  C   UNL     1      -9.285   2.928  63.724  1.00  0.00    -0.103 C  
HETATM    3  C   UNL     1     -10.751   3.058  63.306  1.00  0.00    -0.239 C  
ENDROOT
BRANCH   2   4
HETATM    4  N   UNL     1      -9.003   3.876  64.787  1.00  0.00    -0.125 NA 
HETATM    5  C   UNL     1      -8.598   5.164  64.659  1.00  0.00    -0.142 C  
HETATM    6  H   UNL     1      -9.124   3.534  65.741  1.00  0.00     0.000 HD 
HETATM    7  N   UNL     1      -7.924   5.633  63.668  1.00  0.00    -0.112 NA 
HETATM    8  N   UNL     1      -8.945   5.990  65.688  1.00  0.00    -0.298 NA 
HETATM    9  H1  UNL     1      -7.619   6.602  63.572  1.00  0.00     0.000 HD 
HETATM   10  H2  UNL     1      -7.676   4.984  62.919  1.00  0.00     0.000 HD 
HETATM   11  C   UNL     1      -9.911   5.915  66.648  1.00  0.00    -0.174 C  
HETATM   12  H   UNL     1      -8.369   6.829  65.753  1.00  0.00     0.000 HD 
HETATM   13  N   UNL     1      -9.718   6.731  67.736  1.00  0.00    -0.123 NA 
HETATM   14  N   UNL     1     -10.923   5.102  66.556  1.00  0.00    -0.449 NA 
HETATM   15  H1  UNL     1     -11.645   5.045  67.274  1.00  0.00     0.000 HD 
HETATM   16  H2  UNL     1     -10.996   4.498  65.737  1.00  0.00     0.000 HD 
HETATM   17  H   UNL     1      -9.270   7.640  67.622  1.00  0.00     0.000 HD 
BRANCH  13  18
HETATM   18  C   UNL     1     -10.143   6.301  69.021  1.00  0.00    -0.172 A  
HETATM   19  C   UNL     1     -11.281   6.853  69.629  1.00  0.00    -0.289 A  
HETATM   20  C   UNL     1     -11.657   6.482  70.921  1.00  0.00    -0.417 A  
HETATM   21  C   UNL     1     -10.913   5.526  71.599  1.00  0.00    -0.168 A  
HETATM   22  C   UNL     1      -9.827   4.904  70.979  1.00  0.00    -0.266 A  
HETATM   23 CL   UNL     1     -11.327   5.122  73.220  1.00  0.00    -0.384 Cl 
HETATM   24  C   UNL     1      -9.455   5.278  69.680  1.00  0.00    -0.196 A  
ENDBRANCH  13  18
ENDBRANCH   2   4
TORSDOF 2
ENDMDL
MODEL      112
REMARK 921   NORMALIZED FREE ENERGY PREDICTED BY IDOCK:   -3.43 KCAL/MOL
REMARK 922        TOTAL FREE ENERGY PREDICTED BY IDOCK:   -4.04 KCAL/MOL
REMARK 923 INTER-LIGAND FREE ENERGY PREDICTED BY IDOCK:   -3.83 KCAL/MOL
REMARK 924 INTRA-LIGAND FREE ENERGY PREDICTED BY IDOCK:   -0.21 KCAL/MOL
REMARK 927      BINDING AFFINITY PREDICTED BY RF-SCORE:    0.00 PKD
ROOT
HETATM    1  C   UNL     1      -9.703   3.953  68.061  1.00  0.00    -0.127 C  
HETATM    2  C   UNL     1      -9.254   4.745  66.839  1.00  0.00    -0.126 C  
HETATM    3  C   UNL     1     -10.288   4.620  65.717  1.00  0.00    -0.295 C  
ENDROOT
BRANCH   2   4
HETATM    4  N   UNL     1      -9.084   6.145  67.181  1.00  0.00    -0.114 NA 
HETATM    5  C   UNL     1      -7.940   6.771  67.555  1.00  0.00    -0.115 C  
HETATM    6  H   UNL     1      -9.921   6.726  67.134  1.00  0.00     0.000 HD 
HETATM    7  N   UNL     1      -6.948   6.206  68.148  1.00  0.00    -0.077 NA 
HETATM    8  N   UNL     1      -7.884   8.104  67.269  1.00  0.00    -0.104 NA 
HETATM    9  H1  UNL     1      -6.087   6.677  68.430  1.00  0.00     0.000 HD 
HETATM   10  H2  UNL     1      -7.027   5.209  68.352  1.00  0.00     0.000 HD 
HETATM   11  C   UNL     1      -8.555   8.887  66.376  1.00  0.00    -0.126 C  
HETATM   12  H   UNL     1      -7.208   8.617  67.835  1.00  0.00     0.000 HD 
HETATM   13  N   UNL     1      -8.512  10.236  66.634  1.00  0.00    -0.123 NA 
HETATM   14  N   UNL     1      -9.219   8.389  65.374  1.00  0.00    -0.420 NA 
HETATM   15  H1  UNL     1      -9.720   8.974  64.706  1.00  0.00     0.000 HD 
HETATM   16  H2  UNL     1      -9.239   7.376  65.252  1.00  0.00     0.000 HD 
HETATM   17  H   UNL     1      -7.682  10.650  67.057  1.00  0.00     0.000 HD 
BRANCH  13  18
HETATM   18  C   UNL     1      -9.629  11.049  66.310  1.00  0.00    -0.201 A  
HETATM   19  C   UNL     1      -9.710  11.709  65.073  1.00  0.00    -0.237 A  
HETATM   20  C   UNL     1     -10.773  12.565  64.784  1.00  0.00    -0.333 A  
HETATM   21  C   UNL     1     -11.784  12.737  65.720  1.00  0.00    -0.402 A  
HETATM   22  C   UNL     1     -11.765  12.025  66.921  1.00  0.00    -0.342 A  
HETATM   23 CL   UNL     1     -13.057  13.850  65.399  1.00  0.00    -0.382 Cl 
HETATM   24  C   UNL     1     -10.695  11.164  67.206  1.00  0.00    -0.304 A  
ENDBRANCH  13  18
ENDBRANCH   2   4
TORSDOF 2
ENDMDL
MODEL      113
REMARK 921   NORMALIZED FREE ENERGY PREDICTED BY IDOCK:   -3.38 KCAL/MOL
REMARK 922        TOTAL FREE ENERGY PREDICTED BY IDOCK:   -3.98 KCAL/MOL
REMARK 923 INTER-LIGAND FREE ENERGY PREDICTED BY IDOCK:   -3.71 KCAL/MOL
REMARK 924 INTRA-LIGAND FREE ENERGY PREDICTED BY IDOCK:   -0.27 KCAL/MOL
REMARK 927      BINDING AFFINITY PREDICTED BY RF-SCORE:    0.00 PKD
ROOT
HETATM    1  C   UNL     1      -8.861   2.156  65.976  1.00  0.00    -0.123 C  
HETATM    2  C   UNL     1      -8.717   3.673  66.004  1.00  0.00    -0.120 C  
HETATM    3  C   UNL     1      -9.863   4.329  65.230  1.00  0.00    -0.214 C  
ENDROOT
BRANCH   2   4
HETATM    4  N   UNL     1      -8.726   4.154  67.374  1.00  0.00    -0.104 NA 
HETATM    5  C   UNL     1      -7.656   4.446  68.154  1.00  0.00    -0.068 C  
HETATM    6  H   UNL     1      -9.644   4.287  67.799  1.00  0.00     0.000 HD 
HETATM    7  N   UNL     1      -6.491   3.910  68.044  1.00  0.00    -0.037 NA 
HETATM    8  N   UNL     1      -7.878   5.381  69.123  1.00  0.00    -0.089 NA 
HETATM    9  H1  UNL     1      -5.686   4.130  68.631  1.00  0.00     0.000 HD 
HETATM   10  H2  UNL     1      -6.364   3.210  67.312  1.00  0.00     0.000 HD 
HETATM   11  C   UNL     1      -8.821   6.355  69.269  1.00  0.00    -0.128 C  
HETATM   12  H   UNL     1      -7.206   5.344  69.890  1.00  0.00     0.000 HD 
HETATM   13  N   UNL     1      -8.960   6.847  70.544  1.00  0.00    -0.155 NA 
HETATM   14  N   UNL     1      -9.562   6.761  68.279  1.00  0.00    -0.127 NA 
HETATM   15  H1  UNL     1     -10.268   7.490  68.388  1.00  0.00     0.000 HD 
HETATM   16  H2  UNL     1      -9.433   6.335  67.361  1.00  0.00     0.000 HD 
HETATM   17  H   UNL     1      -8.149   6.915  71.158  1.00  0.00     0.000 HD 
BRANCH  13  18
HETATM   18  C   UNL     1     -10.239   7.261  71.002  1.00  0.00    -0.192 A  
HETATM   19  C   UNL     1     -11.259   6.328  71.243  1.00  0.00    -0.355 A  
HETATM   20  C   UNL     1     -12.536   6.742  71.623  1.00  0.00    -0.398 A  
HETATM   21  C   UNL     1     -12.789   8.096  71.802  1.00  0.00    -0.333 A  
HETATM   22  C   UNL     1     -11.766   9.032  71.649  1.00  0.00    -0.431 A  
HETATM   23 CL   UNL     1     -14.381   8.616  72.196  1.00  0.00    -0.528 Cl 
HETATM   24  C   UNL     1     -10.483   8.612  71.268  1.00  0.00    -0.311 A  
ENDBRANCH  13  18
ENDBRANCH   2   4
TORSDOF 2
ENDMDL
MODEL      114
REMARK 921   NORMALIZED FREE ENERGY PREDICTED BY IDOCK:   -3.37 KCAL/MOL
REMARK 922        TOTAL FREE ENERGY PREDICTED BY IDOCK:   -3.98 KCAL/MOL
REMARK 923 INTER-LIGAND FREE ENERGY PREDICTED BY IDOCK:   -4.12 KCAL/MOL
REMARK 924 INTRA-LIGAND FREE ENERGY PREDICTED BY IDOCK:    0.15 KCAL/MOL
REMARK 927      BINDING AFFINITY PREDICTED BY RF-SCORE:    0.00 PKD
ROOT
HETATM    1  C   UNL     1      -6.275   9.221  64.736  1.00  0.00    -0.071 C  
HETATM    2  C   UNL     1      -6.943  10.292  63.881  1.00  0.00    -0.055 C  
HETATM    3  C   UNL     1      -7.431   9.690  62.562  1.00  0.00    -0.114 C  
ENDROOT
BRANCH   2   4
HETATM    4  N   UNL     1      -8.070  10.870  64.590  1.00  0.00    -0.361 NA 
HETATM    5  C   UNL     1      -8.974  10.227  65.371  1.00  0.00    -0.178 C  
HETATM    6  H   UNL     1      -8.198  11.877  64.489  1.00  0.00     0.000 HD 
HETATM    7  N   UNL     1      -9.314   8.992  65.245  1.00  0.00    -0.434 NA 
HETATM    8  N   UNL     1      -9.547  10.988  66.348  1.00  0.00    -0.193 NA 
HETATM    9  H1  UNL     1      -9.994   8.509  65.833  1.00  0.00     0.000 HD 
HETATM   10  H2  UNL     1      -8.870   8.456  64.499  1.00  0.00     0.000 HD 
HETATM   11  C   UNL     1      -9.168  12.147  66.959  1.00  0.00    -0.202 C  
HETATM   12  H   UNL     1     -10.433  10.616  66.690  1.00  0.00     0.000 HD 
HETATM   13  N   UNL     1     -10.172  12.816  67.616  1.00  0.00    -0.216 NA 
HETATM   14  N   UNL     1      -7.952  12.605  66.891  1.00  0.00    -0.387 NA 
HETATM   15  H1  UNL     1      -7.669  13.472  67.347  1.00  0.00     0.000 HD 
HETATM   16  H2  UNL     1      -7.257  12.078  66.362  1.00  0.00     0.000 HD 
HETATM   17  H   UNL     1     -10.922  12.296  68.070  1.00  0.00     0.000 HD 
BRANCH  13  18
HETATM   18  C   UNL     1     -10.160  14.235  67.659  1.00  0.00    -0.229 A  
HETATM   19  C   UNL     1     -10.597  14.997  66.564  1.00  0.00    -0.305 A  
HETATM   20  C   UNL     1     -10.518  16.389  66.580  1.00  0.00    -0.274 A  
HETATM   21  C   UNL     1     -10.033  17.032  67.712  1.00  0.00    -0.280 A  
HETATM   22  C   UNL     1      -9.672  16.296  68.842  1.00  0.00    -0.248 A  
HETATM   23 CL   UNL     1      -9.861  18.744  67.708  1.00  0.00    -0.351 Cl 
HETATM   24  C   UNL     1      -9.756  14.896  68.822  1.00  0.00    -0.225 A  
ENDBRANCH  13  18
ENDBRANCH   2   4
TORSDOF 2
ENDMDL
MODEL      115
REMARK 921   NORMALIZED FREE ENERGY PREDICTED BY IDOCK:   -3.36 KCAL/MOL
REMARK 922        TOTAL FREE ENERGY PREDICTED BY IDOCK:   -3.97 KCAL/MOL
REMARK 923 INTER-LIGAND FREE ENERGY PREDICTED BY IDOCK:   -4.67 KCAL/MOL
REMARK 924 INTRA-LIGAND FREE ENERGY PREDICTED BY IDOCK:    0.70 KCAL/MOL
REMARK 927      BINDING AFFINITY PREDICTED BY RF-SCORE:    0.00 PKD
ROOT
HETATM    1  C   UNL     1     -12.491  14.533  70.276  1.00  0.00    -0.405 C  
HETATM    2  C   UNL     1     -12.307  13.349  71.216  1.00  0.00    -0.194 C  
HETATM    3  C   UNL     1     -13.527  13.202  72.128  1.00  0.00    -0.653 C  
ENDROOT
BRANCH   2   4
HETATM    4  N   UNL     1     -12.128  12.125  70.455  1.00  0.00    -0.419 NA 
HETATM    5  C   UNL     1     -11.772  12.008  69.151  1.00  0.00    -0.330 C  
HETATM    6  H   UNL     1     -12.287  11.253  70.959  1.00  0.00     0.000 HD 
HETATM    7  N   UNL     1     -12.008  12.884  68.238  1.00  0.00    -0.311 NA 
HETATM    8  N   UNL     1     -11.125  10.852  68.825  1.00  0.00    -0.234 NA 
HETATM    9  H1  UNL     1     -11.740  12.796  67.258  1.00  0.00     0.000 HD 
HETATM   10  H2  UNL     1     -12.500  13.734  68.518  1.00  0.00     0.000 HD 
HETATM   11  C   UNL     1     -10.431   9.941  69.564  1.00  0.00    -0.241 C  
HETATM   12  H   UNL     1     -11.168  10.625  67.831  1.00  0.00     0.000 HD 
HETATM   13  N   UNL     1     -10.249   8.718  68.965  1.00  0.00    -0.203 NA 
HETATM   14  N   UNL     1     -10.005  10.199  70.767  1.00  0.00    -0.190 NA 
HETATM   15  H1  UNL     1      -9.486   9.517  71.320  1.00  0.00     0.000 HD 
HETATM   16  H2  UNL     1     -10.197  11.116  71.171  1.00  0.00     0.000 HD 
HETATM   17  H   UNL     1     -10.132   8.656  67.954  1.00  0.00     0.000 HD 
BRANCH  13  18
HETATM   18  C   UNL     1     -10.227   7.542  69.760  1.00  0.00    -0.211 A  
HETATM   19  C   UNL     1      -9.038   6.820  69.951  1.00  0.00    -0.144 A  
HETATM   20  C   UNL     1      -9.032   5.626  70.672  1.00  0.00    -0.157 A  
HETATM   21  C   UNL     1     -10.212   5.165  71.240  1.00  0.00    -0.222 A  
HETATM   22  C   UNL     1     -11.387   5.912  71.132  1.00  0.00    -0.230 A  
HETATM   23 CL   UNL     1     -10.224   3.655  72.064  1.00  0.00    -0.198 Cl 
HETATM   24  C   UNL     1     -11.388   7.113  70.408  1.00  0.00    -0.325 A  
ENDBRANCH  13  18
ENDBRANCH   2   4
TORSDOF 2
ENDMDL
MODEL      116
REMARK 921   NORMALIZED FREE ENERGY PREDICTED BY IDOCK:   -3.31 KCAL/MOL
REMARK 922        TOTAL FREE ENERGY PREDICTED BY IDOCK:   -3.90 KCAL/MOL
REMARK 923 INTER-LIGAND FREE ENERGY PREDICTED BY IDOCK:   -3.79 KCAL/MOL
REMARK 924 INTRA-LIGAND FREE ENERGY PREDICTED BY IDOCK:   -0.11 KCAL/MOL
REMARK 927      BINDING AFFINITY PREDICTED BY RF-SCORE:    0.00 PKD
ROOT
HETATM    1  C   UNL     1      -5.630  11.626  66.984  1.00  0.00    -0.124 C  
HETATM    2  C   UNL     1      -6.502  11.043  65.879  1.00  0.00    -0.002 C  
HETATM    3  C   UNL     1      -5.788   9.872  65.202  1.00  0.00    -0.088 C  
ENDROOT
BRANCH   2   4
HETATM    4  N   UNL     1      -7.766  10.583  66.426  1.00  0.00    -0.129 NA 
HETATM    5  C   UNL     1      -8.987  10.630  65.837  1.00  0.00    -0.175 C  
HETATM    6  H   UNL     1      -7.731  10.178  67.362  1.00  0.00     0.000 HD 
HETATM    7  N   UNL     1      -9.350  11.494  64.956  1.00  0.00    -0.387 NA 
HETATM    8  N   UNL     1      -9.869   9.673  66.246  1.00  0.00    -0.237 NA 
HETATM    9  H1  UNL     1     -10.269  11.529  64.513  1.00  0.00     0.000 HD 
HETATM   10  H2  UNL     1      -8.667  12.199  64.678  1.00  0.00     0.000 HD 
HETATM   11  C   UNL     1      -9.704   8.458  66.845  1.00  0.00    -0.227 C  
HETATM   12  H   UNL     1     -10.844   9.912  66.070  1.00  0.00     0.000 HD 
HETATM   13  N   UNL     1     -10.826   7.948  67.451  1.00  0.00    -0.521 NA 
HETATM   14  N   UNL     1      -8.556   7.846  66.872  1.00  0.00    -0.126 NA 
HETATM   15  H1  UNL     1      -8.432   6.938  67.321  1.00  0.00     0.000 HD 
HETATM   16  H2  UNL     1      -7.750   8.290  66.431  1.00  0.00     0.000 HD 
HETATM   17  H   UNL     1     -11.748   8.131  67.057  1.00  0.00     0.000 HD 
BRANCH  13  18
HETATM   18  C   UNL     1     -10.695   7.167  68.628  1.00  0.00    -0.163 A  
HETATM   19  C   UNL     1     -10.332   5.812  68.563  1.00  0.00    -0.274 A  
HETATM   20  C   UNL     1     -10.274   5.027  69.714  1.00  0.00    -0.336 A  
HETATM   21  C   UNL     1     -10.544   5.605  70.948  1.00  0.00    -0.258 A  
HETATM   22  C   UNL     1     -10.824   6.969  71.043  1.00  0.00    -0.264 A  
HETATM   23 CL   UNL     1     -10.548   4.624  72.361  1.00  0.00    -0.252 Cl 
HETATM   24  C   UNL     1     -10.879   7.755  69.883  1.00  0.00    -0.228 A  
ENDBRANCH  13  18
ENDBRANCH   2   4
TORSDOF 2
ENDMDL
MODEL      117
REMARK 921   NORMALIZED FREE ENERGY PREDICTED BY IDOCK:   -3.27 KCAL/MOL
REMARK 922        TOTAL FREE ENERGY PREDICTED BY IDOCK:   -3.86 KCAL/MOL
REMARK 923 INTER-LIGAND FREE ENERGY PREDICTED BY IDOCK:   -3.68 KCAL/MOL
REMARK 924 INTRA-LIGAND FREE ENERGY PREDICTED BY IDOCK:   -0.18 KCAL/MOL
REMARK 927      BINDING AFFINITY PREDICTED BY RF-SCORE:    0.00 PKD
ROOT
HETATM    1  C   UNL     1     -13.413  11.103  72.096  1.00  0.00    -0.193 C  
HETATM    2  C   UNL     1     -12.672   9.790  72.318  1.00  0.00    -0.251 C  
HETATM    3  C   UNL     1     -13.539   8.610  71.876  1.00  0.00    -0.446 C  
ENDROOT
BRANCH   2   4
HETATM    4  N   UNL     1     -11.430   9.781  71.566  1.00  0.00    -0.366 NA 
HETATM    5  C   UNL     1     -10.315   9.050  71.821  1.00  0.00    -0.337 C  
HETATM    6  H   UNL     1     -11.390  10.394  70.752  1.00  0.00     0.000 HD 
HETATM    7  N   UNL     1      -9.953   8.634  72.983  1.00  0.00     0.096 NA 
HETATM    8  N   UNL     1      -9.544   8.764  70.732  1.00  0.00    -0.191 NA 
HETATM    9  H1  UNL     1      -9.115   8.084  73.174  1.00  0.00     0.000 HD 
HETATM   10  H2  UNL     1     -10.551   8.873  73.775  1.00  0.00     0.000 HD 
HETATM   11  C   UNL     1      -9.809   8.730  69.394  1.00  0.00    -0.186 C  
HETATM   12  H   UNL     1      -8.580   8.527  70.964  1.00  0.00     0.000 HD 
HETATM   13  N   UNL     1      -8.705   8.776  68.579  1.00  0.00    -0.134 NA 
HETATM   14  N   UNL     1     -11.022   8.696  68.925  1.00  0.00    -0.438 NA 
HETATM   15  H1  UNL     1     -11.220   8.672  67.925  1.00  0.00     0.000 HD 
HETATM   16  H2  UNL     1     -11.804   8.695  69.581  1.00  0.00     0.000 HD 
HETATM   17  H   UNL     1      -7.832   8.338  68.873  1.00  0.00     0.000 HD 
BRANCH  13  18
HETATM   18  C   UNL     1      -8.783   9.437  67.325  1.00  0.00    -0.128 A  
HETATM   19  C   UNL     1      -8.370  10.771  67.182  1.00  0.00    -0.126 A  
HETATM   20  C   UNL     1      -8.515  11.442  65.968  1.00  0.00    -0.058 A  
HETATM   21  C   UNL     1      -9.042  10.767  64.875  1.00  0.00    -0.198 A  
HETATM   22  C   UNL     1      -9.381   9.417  64.974  1.00  0.00    -0.258 A  
HETATM   23 CL   UNL     1      -9.294  11.612  63.397  1.00  0.00    -0.192 Cl 
HETATM   24  C   UNL     1      -9.232   8.746  66.196  1.00  0.00    -0.273 A  
ENDBRANCH  13  18
ENDBRANCH   2   4
TORSDOF 2
ENDMDL
MODEL      118
REMARK 921   NORMALIZED FREE ENERGY PREDICTED BY IDOCK:   -3.26 KCAL/MOL
REMARK 922        TOTAL FREE ENERGY PREDICTED BY IDOCK:   -3.85 KCAL/MOL
REMARK 923 INTER-LIGAND FREE ENERGY PREDICTED BY IDOCK:   -4.08 KCAL/MOL
REMARK 924 INTRA-LIGAND FREE ENERGY PREDICTED BY IDOCK:    0.23 KCAL/MOL
REMARK 927      BINDING AFFINITY PREDICTED BY RF-SCORE:    0.00 PKD
ROOT
HETATM    1  C   UNL     1      -9.557   3.885  67.476  1.00  0.00    -0.212 C  
HETATM    2  C   UNL     1     -10.131   4.854  68.502  1.00  0.00    -0.078 C  
HETATM    3  C   UNL     1      -9.789   4.391  69.920  1.00  0.00    -0.290 C  
ENDROOT
BRANCH   2   4
HETATM    4  N   UNL     1      -9.596   6.187  68.290  1.00  0.00    -0.120 NA 
HETATM    5  C   UNL     1      -8.303   6.532  68.068  1.00  0.00    -0.116 C  
HETATM    6  H   UNL     1     -10.270   6.952  68.310  1.00  0.00     0.000 HD 
HETATM    7  N   UNL     1      -7.279   5.872  68.483  1.00  0.00    -0.081 NA 
HETATM    8  N   UNL     1      -8.121   7.680  67.353  1.00  0.00    -0.118 NA 
HETATM    9  H1  UNL     1      -6.307   6.133  68.317  1.00  0.00     0.000 HD 
HETATM   10  H2  UNL     1      -7.454   5.022  69.021  1.00  0.00     0.000 HD 
HETATM   11  C   UNL     1      -8.925   8.375  66.499  1.00  0.00    -0.157 C  
HETATM   12  H   UNL     1      -7.201   8.101  67.482  1.00  0.00     0.000 HD 
HETATM   13  N   UNL     1      -8.547   9.675  66.269  1.00  0.00    -0.126 NA 
HETATM   14  N   UNL     1      -9.996   7.855  65.972  1.00  0.00    -0.405 NA 
HETATM   15  H1  UNL     1     -10.598   8.375  65.334  1.00  0.00     0.000 HD 
HETATM   16  H2  UNL     1     -10.242   6.893  66.206  1.00  0.00     0.000 HD 
HETATM   17  H   UNL     1      -7.559   9.927  66.256  1.00  0.00     0.000 HD 
BRANCH  13  18
HETATM   18  C   UNL     1      -9.539  10.667  66.048  1.00  0.00    -0.198 A  
HETATM   19  C   UNL     1     -10.026  11.452  67.105  1.00  0.00    -0.217 A  
HETATM   20  C   UNL     1     -11.051  12.376  66.900  1.00  0.00    -0.335 A  
HETATM   21  C   UNL     1     -11.571  12.547  65.624  1.00  0.00    -0.389 A  
HETATM   22  C   UNL     1     -11.043  11.836  64.545  1.00  0.00    -0.376 A  
HETATM   23 CL   UNL     1     -12.886  13.629  65.382  1.00  0.00    -0.501 Cl 
HETATM   24  C   UNL     1     -10.010  10.910  64.755  1.00  0.00    -0.366 A  
ENDBRANCH  13  18
ENDBRANCH   2   4
TORSDOF 2
ENDMDL
MODEL      119
REMARK 921   NORMALIZED FREE ENERGY PREDICTED BY IDOCK:   -3.25 KCAL/MOL
REMARK 922        TOTAL FREE ENERGY PREDICTED BY IDOCK:   -3.84 KCAL/MOL
REMARK 923 INTER-LIGAND FREE ENERGY PREDICTED BY IDOCK:   -3.63 KCAL/MOL
REMARK 924 INTRA-LIGAND FREE ENERGY PREDICTED BY IDOCK:   -0.22 KCAL/MOL
REMARK 927      BINDING AFFINITY PREDICTED BY RF-SCORE:    0.00 PKD
ROOT
HETATM    1  C   UNL     1      -6.757  13.949  69.464  1.00  0.00    -0.062 C  
HETATM    2  C   UNL     1      -7.272  13.229  68.224  1.00  0.00    -0.108 C  
HETATM    3  C   UNL     1      -6.124  12.517  67.507  1.00  0.00    -0.154 C  
ENDROOT
BRANCH   2   4
HETATM    4  N   UNL     1      -8.285  12.256  68.592  1.00  0.00    -0.321 NA 
HETATM    5  C   UNL     1      -9.626  12.449  68.672  1.00  0.00    -0.028 C  
HETATM    6  H   UNL     1      -7.950  11.319  68.816  1.00  0.00     0.000 HD 
HETATM    7  N   UNL     1     -10.198  13.573  68.929  1.00  0.00    -0.420 NA 
HETATM    8  N   UNL     1     -10.388  11.337  68.465  1.00  0.00    -0.195 NA 
HETATM    9  H1  UNL     1     -11.206  13.717  68.989  1.00  0.00     0.000 HD 
HETATM   10  H2  UNL     1      -9.595  14.382  69.084  1.00  0.00     0.000 HD 
HETATM   11  C   UNL     1     -10.140  10.148  67.844  1.00  0.00    -0.176 C  
HETATM   12  H   UNL     1     -11.330  11.408  68.851  1.00  0.00     0.000 HD 
HETATM   13  N   UNL     1     -11.006   9.130  68.164  1.00  0.00    -0.484 NA 
HETATM   14  N   UNL     1      -9.133   9.981  67.037  1.00  0.00    -0.141 NA 
HETATM   15  H1  UNL     1      -8.948   9.091  66.573  1.00  0.00     0.000 HD 
HETATM   16  H2  UNL     1      -8.507  10.767  66.863  1.00  0.00     0.000 HD 
HETATM   17  H   UNL     1     -11.984   9.334  68.365  1.00  0.00     0.000 HD 
BRANCH  13  18
HETATM   18  C   UNL     1     -10.531   7.793  68.214  1.00  0.00    -0.168 A  
HETATM   19  C   UNL     1     -10.900   6.856  67.236  1.00  0.00    -0.426 A  
HETATM   20  C   UNL     1     -10.491   5.525  67.326  1.00  0.00    -0.300 A  
HETATM   21  C   UNL     1      -9.676   5.132  68.379  1.00  0.00    -0.147 A  
HETATM   22  C   UNL     1      -9.230   6.066  69.315  1.00  0.00    -0.133 A  
HETATM   23 CL   UNL     1      -9.233   3.477  68.536  1.00  0.00    -0.207 Cl 
HETATM   24  C   UNL     1      -9.641   7.404  69.219  1.00  0.00    -0.154 A  
ENDBRANCH  13  18
ENDBRANCH   2   4
TORSDOF 2
ENDMDL
MODEL      120
REMARK 921   NORMALIZED FREE ENERGY PREDICTED BY IDOCK:   -3.24 KCAL/MOL
REMARK 922        TOTAL FREE ENERGY PREDICTED BY IDOCK:   -3.82 KCAL/MOL
REMARK 923 INTER-LIGAND FREE ENERGY PREDICTED BY IDOCK:   -3.98 KCAL/MOL
REMARK 924 INTRA-LIGAND FREE ENERGY PREDICTED BY IDOCK:    0.15 KCAL/MOL
REMARK 927      BINDING AFFINITY PREDICTED BY RF-SCORE:    0.00 PKD
ROOT
HETATM    1  C   UNL     1      -9.917   4.071  62.539  1.00  0.00    -0.158 C  
HETATM    2  C   UNL     1     -10.910   3.441  63.508  1.00  0.00    -0.206 C  
HETATM    3  C   UNL     1     -11.070   1.949  63.210  1.00  0.00    -0.210 C  
ENDROOT
BRANCH   2   4
HETATM    4  N   UNL     1     -10.453   3.611  64.876  1.00  0.00    -0.453 NA 
HETATM    5  C   UNL     1      -9.257   3.244  65.400  1.00  0.00    -0.152 C  
HETATM    6  H   UNL     1     -11.108   4.058  65.518  1.00  0.00     0.000 HD 
HETATM    7  N   UNL     1      -8.528   2.275  64.969  1.00  0.00    -0.094 NA 
HETATM    8  N   UNL     1      -8.837   3.980  66.469  1.00  0.00    -0.117 NA 
HETATM    9  H1  UNL     1      -7.628   1.999  65.363  1.00  0.00     0.000 HD 
HETATM   10  H2  UNL     1      -8.876   1.742  64.172  1.00  0.00     0.000 HD 
HETATM   11  C   UNL     1      -9.162   5.227  66.917  1.00  0.00    -0.121 C  
HETATM   12  H   UNL     1      -8.144   3.505  67.047  1.00  0.00     0.000 HD 
HETATM   13  N   UNL     1      -8.829   5.482  68.225  1.00  0.00    -0.105 NA 
HETATM   14  N   UNL     1      -9.777   6.097  66.171  1.00  0.00    -0.361 NA 
HETATM   15  H1  UNL     1     -10.020   7.029  66.507  1.00  0.00     0.000 HD 
HETATM   16  H2  UNL     1     -10.026   5.838  65.216  1.00  0.00     0.000 HD 
HETATM   17  H   UNL     1      -7.992   5.064  68.631  1.00  0.00     0.000 HD 
BRANCH  13  18
HETATM   18  C   UNL     1      -9.655   6.329  69.009  1.00  0.00    -0.127 A  
HETATM   19  C   UNL     1      -9.281   7.653  69.285  1.00  0.00    -0.145 A  
HETATM   20  C   UNL     1     -10.058   8.462  70.114  1.00  0.00    -0.193 A  
HETATM   21  C   UNL     1     -11.239   7.960  70.644  1.00  0.00    -0.263 A  
HETATM   22  C   UNL     1     -11.672   6.674  70.314  1.00  0.00    -0.432 A  
HETATM   23 CL   UNL     1     -12.161   8.927  71.728  1.00  0.00    -0.399 Cl 
HETATM   24  C   UNL     1     -10.888   5.865  69.478  1.00  0.00    -0.442 A  
ENDBRANCH  13  18
ENDBRANCH   2   4
TORSDOF 2
ENDMDL
MODEL      121
REMARK 921   NORMALIZED FREE ENERGY PREDICTED BY IDOCK:   -3.22 KCAL/MOL
REMARK 922        TOTAL FREE ENERGY PREDICTED BY IDOCK:   -3.81 KCAL/MOL
REMARK 923 INTER-LIGAND FREE ENERGY PREDICTED BY IDOCK:   -4.31 KCAL/MOL
REMARK 924 INTRA-LIGAND FREE ENERGY PREDICTED BY IDOCK:    0.50 KCAL/MOL
REMARK 927      BINDING AFFINITY PREDICTED BY RF-SCORE:    0.00 PKD
ROOT
HETATM    1  C   UNL     1     -10.801   7.468  73.205  1.00  0.00    -0.448 C  
HETATM    2  C   UNL     1     -11.427   7.054  71.879  1.00  0.00    -0.268 C  
HETATM    3  C   UNL     1     -12.709   7.850  71.625  1.00  0.00    -0.352 C  
ENDROOT
BRANCH   2   4
HETATM    4  N   UNL     1     -10.496   7.283  70.789  1.00  0.00    -0.211 NA 
HETATM    5  C   UNL     1      -9.511   6.457  70.356  1.00  0.00    -0.162 C  
HETATM    6  H   UNL     1     -10.594   8.169  70.292  1.00  0.00     0.000 HD 
HETATM    7  N   UNL     1      -8.896   5.594  71.085  1.00  0.00    -0.134 NA 
HETATM    8  N   UNL     1      -9.173   6.592  69.041  1.00  0.00    -0.132 NA 
HETATM    9  H1  UNL     1      -8.155   4.973  70.759  1.00  0.00     0.000 HD 
HETATM   10  H2  UNL     1      -9.170   5.525  72.066  1.00  0.00     0.000 HD 
HETATM   11  C   UNL     1      -9.833   7.110  67.965  1.00  0.00    -0.138 C  
HETATM   12  H   UNL     1      -8.244   6.235  68.818  1.00  0.00     0.000 HD 
HETATM   13  N   UNL     1      -9.040   7.423  66.889  1.00  0.00    -0.135 NA 
HETATM   14  N   UNL     1     -11.116   7.327  67.973  1.00  0.00    -0.491 NA 
HETATM   15  H1  UNL     1     -11.609   7.714  67.169  1.00  0.00     0.000 HD 
HETATM   16  H2  UNL     1     -11.648   7.102  68.815  1.00  0.00     0.000 HD 
HETATM   17  H   UNL     1      -8.215   6.860  66.679  1.00  0.00     0.000 HD 
BRANCH  13  18
HETATM   18  C   UNL     1      -9.373   8.533  66.069  1.00  0.00    -0.199 A  
HETATM   19  C   UNL     1      -8.895   8.631  64.753  1.00  0.00    -0.036 A  
HETATM   20  C   UNL     1      -9.164   9.756  63.973  1.00  0.00    -0.267 A  
HETATM   21  C   UNL     1      -9.946  10.777  64.496  1.00  0.00    -0.333 A  
HETATM   22  C   UNL     1     -10.499  10.661  65.772  1.00  0.00    -0.235 A  
HETATM   23 CL   UNL     1     -10.215  12.200  63.566  1.00  0.00    -0.456 Cl 
HETATM   24  C   UNL     1     -10.229   9.527  66.552  1.00  0.00    -0.307 A  
ENDBRANCH  13  18
ENDBRANCH   2   4
TORSDOF 2
ENDMDL
MODEL      122
REMARK 921   NORMALIZED FREE ENERGY PREDICTED BY IDOCK:   -3.19 KCAL/MOL
REMARK 922        TOTAL FREE ENERGY PREDICTED BY IDOCK:   -3.77 KCAL/MOL
REMARK 923 INTER-LIGAND FREE ENERGY PREDICTED BY IDOCK:   -3.63 KCAL/MOL
REMARK 924 INTRA-LIGAND FREE ENERGY PREDICTED BY IDOCK:   -0.14 KCAL/MOL
REMARK 927      BINDING AFFINITY PREDICTED BY RF-SCORE:    0.00 PKD
ROOT
HETATM    1  C   UNL     1     -10.925  15.984  67.579  1.00  0.00    -0.261 C  
HETATM    2  C   UNL     1      -9.406  16.094  67.638  1.00  0.00    -0.214 C  
HETATM    3  C   UNL     1      -8.954  16.457  69.054  1.00  0.00    -0.239 C  
ENDROOT
BRANCH   2   4
HETATM    4  N   UNL     1      -8.795  14.837  67.247  1.00  0.00    -0.192 NA 
HETATM    5  C   UNL     1      -7.473  14.535  67.213  1.00  0.00    -0.097 C  
HETATM    6  H   UNL     1      -9.434  14.093  66.964  1.00  0.00     0.000 HD 
HETATM    7  N   UNL     1      -6.525  15.386  67.031  1.00  0.00    -0.208 NA 
HETATM    8  N   UNL     1      -7.171  13.216  67.381  1.00  0.00    -0.281 NA 
HETATM    9  H1  UNL     1      -5.530  15.159  67.006  1.00  0.00     0.000 HD 
HETATM   10  H2  UNL     1      -6.788  16.364  66.903  1.00  0.00     0.000 HD 
HETATM   11  C   UNL     1      -7.856  12.173  67.931  1.00  0.00    -0.147 C  
HETATM   12  H   UNL     1      -6.250  12.957  67.025  1.00  0.00     0.000 HD 
HETATM   13  N   UNL     1      -7.401  10.925  67.582  1.00  0.00    -0.092 NA 
HETATM   14  N   UNL     1      -8.891  12.349  68.701  1.00  0.00    -0.378 NA 
HETATM   15  H1  UNL     1      -9.404  11.569  69.113  1.00  0.00     0.000 HD 
HETATM   16  H2  UNL     1      -9.200  13.300  68.900  1.00  0.00     0.000 HD 
HETATM   17  H   UNL     1      -6.406  10.770  67.419  1.00  0.00     0.000 HD 
BRANCH  13  18
HETATM   18  C   UNL     1      -8.321   9.853  67.449  1.00  0.00    -0.118 A  
HETATM   19  C   UNL     1      -8.561   8.967  68.511  1.00  0.00    -0.133 A  
HETATM   20  C   UNL     1      -9.411   7.872  68.356  1.00  0.00    -0.140 A  
HETATM   21  C   UNL     1     -10.058   7.677  67.142  1.00  0.00    -0.253 A  
HETATM   22  C   UNL     1      -9.899   8.594  66.102  1.00  0.00    -0.269 A  
HETATM   23 CL   UNL     1     -11.047   6.286  66.922  1.00  0.00    -0.414 Cl 
HETATM   24  C   UNL     1      -9.045   9.695  66.263  1.00  0.00    -0.197 A  
ENDBRANCH  13  18
ENDBRANCH   2   4
TORSDOF 2
ENDMDL
MODEL      123
REMARK 921   NORMALIZED FREE ENERGY PREDICTED BY IDOCK:   -3.16 KCAL/MOL
REMARK 922        TOTAL FREE ENERGY PREDICTED BY IDOCK:   -3.74 KCAL/MOL
REMARK 923 INTER-LIGAND FREE ENERGY PREDICTED BY IDOCK:   -3.48 KCAL/MOL
REMARK 924 INTRA-LIGAND FREE ENERGY PREDICTED BY IDOCK:   -0.26 KCAL/MOL
REMARK 927      BINDING AFFINITY PREDICTED BY RF-SCORE:    0.00 PKD
ROOT
HETATM    1  C   UNL     1      -6.241   6.820  62.985  1.00  0.00    -0.043 C  
HETATM    2  C   UNL     1      -7.761   6.847  63.093  1.00  0.00    -0.107 C  
HETATM    3  C   UNL     1      -8.331   5.440  62.911  1.00  0.00    -0.101 C  
ENDROOT
BRANCH   2   4
HETATM    4  N   UNL     1      -8.164   7.364  64.389  1.00  0.00    -0.332 NA 
HETATM    5  C   UNL     1      -8.909   8.469  64.642  1.00  0.00     0.111 C  
HETATM    6  H   UNL     1      -7.850   6.835  65.203  1.00  0.00     0.000 HD 
HETATM    7  N   UNL     1      -8.976   9.506  63.884  1.00  0.00    -0.354 NA 
HETATM    8  N   UNL     1      -9.620   8.438  65.807  1.00  0.00    -0.451 NA 
HETATM    9  H1  UNL     1      -9.537  10.337  64.075  1.00  0.00     0.000 HD 
HETATM   10  H2  UNL     1      -8.426   9.497  63.025  1.00  0.00     0.000 HD 
HETATM   11  C   UNL     1     -10.043   7.416  66.605  1.00  0.00    -0.183 C  
HETATM   12  H   UNL     1      -9.889   9.361  66.147  1.00  0.00     0.000 HD 
HETATM   13  N   UNL     1     -10.396   7.780  67.881  1.00  0.00    -0.211 NA 
HETATM   14  N   UNL     1     -10.072   6.180  66.198  1.00  0.00    -0.406 NA 
HETATM   15  H1  UNL     1     -10.388   5.416  66.795  1.00  0.00     0.000 HD 
HETATM   16  H2  UNL     1      -9.767   5.968  65.248  1.00  0.00     0.000 HD 
HETATM   17  H   UNL     1     -10.824   8.689  68.055  1.00  0.00     0.000 HD 
BRANCH  13  18
HETATM   18  C   UNL     1     -10.163   6.885  68.958  1.00  0.00    -0.181 A  
HETATM   19  C   UNL     1     -11.228   6.250  69.617  1.00  0.00    -0.506 A  
HETATM   20  C   UNL     1     -11.002   5.427  70.720  1.00  0.00    -0.109 A  
HETATM   21  C   UNL     1      -9.700   5.203  71.149  1.00  0.00    -0.174 A  
HETATM   22  C   UNL     1      -8.623   5.757  70.456  1.00  0.00    -0.138 A  
HETATM   23 CL   UNL     1      -9.422   4.251  72.555  1.00  0.00    -0.162 Cl 
HETATM   24  C   UNL     1      -8.854   6.583  69.346  1.00  0.00    -0.133 A  
ENDBRANCH  13  18
ENDBRANCH   2   4
TORSDOF 2
ENDMDL
MODEL      124
REMARK 921   NORMALIZED FREE ENERGY PREDICTED BY IDOCK:   -3.16 KCAL/MOL
REMARK 922        TOTAL FREE ENERGY PREDICTED BY IDOCK:   -3.74 KCAL/MOL
REMARK 923 INTER-LIGAND FREE ENERGY PREDICTED BY IDOCK:   -3.78 KCAL/MOL
REMARK 924 INTRA-LIGAND FREE ENERGY PREDICTED BY IDOCK:    0.04 KCAL/MOL
REMARK 927      BINDING AFFINITY PREDICTED BY RF-SCORE:    0.00 PKD
ROOT
HETATM    1  C   UNL     1      -9.623   4.195  67.707  1.00  0.00    -0.208 C  
HETATM    2  C   UNL     1      -9.615   4.558  69.187  1.00  0.00    -0.180 C  
HETATM    3  C   UNL     1      -8.179   4.609  69.713  1.00  0.00    -0.069 C  
ENDROOT
BRANCH   2   4
HETATM    4  N   UNL     1     -10.246   5.850  69.391  1.00  0.00    -0.199 NA 
HETATM    5  C   UNL     1     -10.721   6.362  70.554  1.00  0.00    -0.257 C  
HETATM    6  H   UNL     1     -10.344   6.440  68.565  1.00  0.00     0.000 HD 
HETATM    7  N   UNL     1     -11.156   5.667  71.546  1.00  0.00    -0.213 NA 
HETATM    8  N   UNL     1     -10.727   7.725  70.632  1.00  0.00    -0.227 NA 
HETATM    9  H1  UNL     1     -11.513   6.053  72.421  1.00  0.00     0.000 HD 
HETATM   10  H2  UNL     1     -11.142   4.651  71.450  1.00  0.00     0.000 HD 
HETATM   11  C   UNL     1     -10.038   8.692  69.961  1.00  0.00    -0.189 C  
HETATM   12  H   UNL     1     -11.374   8.092  71.329  1.00  0.00     0.000 HD 
HETATM   13  N   UNL     1     -10.580   9.952  70.035  1.00  0.00    -0.268 NA 
HETATM   14  N   UNL     1      -8.968   8.432  69.268  1.00  0.00    -0.149 NA 
HETATM   15  H1  UNL     1      -8.453   9.155  68.766  1.00  0.00     0.000 HD 
HETATM   16  H2  UNL     1      -8.631   7.470  69.226  1.00  0.00     0.000 HD 
HETATM   17  H   UNL     1     -11.063  10.253  70.881  1.00  0.00     0.000 HD 
BRANCH  13  18
HETATM   18  C   UNL     1     -10.463  10.834  68.929  1.00  0.00    -0.205 A  
HETATM   19  C   UNL     1     -11.590  11.218  68.185  1.00  0.00    -0.359 A  
HETATM   20  C   UNL     1     -11.464  12.026  67.056  1.00  0.00    -0.402 A  
HETATM   21  C   UNL     1     -10.209  12.488  66.683  1.00  0.00    -0.230 A  
HETATM   22  C   UNL     1      -9.087  12.187  67.457  1.00  0.00    -0.180 A  
HETATM   23 CL   UNL     1     -10.039  13.421  65.248  1.00  0.00    -0.294 Cl 
HETATM   24  C   UNL     1      -9.218  11.375  68.594  1.00  0.00    -0.149 A  
ENDBRANCH  13  18
ENDBRANCH   2   4
TORSDOF 2
ENDMDL
MODEL      125
REMARK 921   NORMALIZED FREE ENERGY PREDICTED BY IDOCK:   -3.15 KCAL/MOL
REMARK 922        TOTAL FREE ENERGY PREDICTED BY IDOCK:   -3.73 KCAL/MOL
REMARK 923 INTER-LIGAND FREE ENERGY PREDICTED BY IDOCK:   -3.63 KCAL/MOL
REMARK 924 INTRA-LIGAND FREE ENERGY PREDICTED BY IDOCK:   -0.10 KCAL/MOL
REMARK 927      BINDING AFFINITY PREDICTED BY RF-SCORE:    0.00 PKD
ROOT
HETATM    1  C   UNL     1      -6.561   5.209  65.118  1.00  0.00    -0.040 C  
HETATM    2  C   UNL     1      -7.909   5.896  64.942  1.00  0.00    -0.108 C  
HETATM    3  C   UNL     1      -9.046   4.924  65.266  1.00  0.00    -0.154 C  
ENDROOT
BRANCH   2   4
HETATM    4  N   UNL     1      -8.003   7.052  65.815  1.00  0.00    -0.109 NA 
HETATM    5  C   UNL     1      -7.539   8.305  65.579  1.00  0.00    -0.087 C  
HETATM    6  H   UNL     1      -8.471   6.905  66.709  1.00  0.00     0.000 HD 
HETATM    7  N   UNL     1      -6.539   8.594  64.823  1.00  0.00    -0.065 NA 
HETATM    8  N   UNL     1      -8.211   9.305  66.220  1.00  0.00    -0.107 NA 
HETATM    9  H1  UNL     1      -6.191   9.537  64.646  1.00  0.00     0.000 HD 
HETATM   10  H2  UNL     1      -6.057   7.820  64.365  1.00  0.00     0.000 HD 
HETATM   11  C   UNL     1      -9.460   9.381  66.761  1.00  0.00    -0.165 C  
HETATM   12  H   UNL     1      -7.672  10.166  66.314  1.00  0.00     0.000 HD 
HETATM   13  N   UNL     1      -9.649  10.408  67.653  1.00  0.00    -0.148 NA 
HETATM   14  N   UNL     1     -10.394   8.519  66.481  1.00  0.00    -0.362 NA 
HETATM   15  H1  UNL     1     -11.329   8.576  66.886  1.00  0.00     0.000 HD 
HETATM   16  H2  UNL     1     -10.184   7.759  65.834  1.00  0.00     0.000 HD 
HETATM   17  H   UNL     1      -9.164  11.296  67.523  1.00  0.00     0.000 HD 
BRANCH  13  18
HETATM   18  C   UNL     1     -10.523  10.229  68.757  1.00  0.00    -0.203 A  
HETATM   19  C   UNL     1     -11.683  11.008  68.898  1.00  0.00    -0.400 A  
HETATM   20  C   UNL     1     -12.502  10.880  70.019  1.00  0.00    -0.332 A  
HETATM   21  C   UNL     1     -12.185   9.942  70.993  1.00  0.00    -0.353 A  
HETATM   22  C   UNL     1     -11.083   9.101  70.831  1.00  0.00    -0.356 A  
HETATM   23 CL   UNL     1     -13.150   9.835  72.414  1.00  0.00    -0.423 Cl 
HETATM   24  C   UNL     1     -10.263   9.231  69.701  1.00  0.00    -0.219 A  
ENDBRANCH  13  18
ENDBRANCH   2   4
TORSDOF 2
ENDMDL
MODEL      126
REMARK 921   NORMALIZED FREE ENERGY PREDICTED BY IDOCK:   -3.14 KCAL/MOL
REMARK 922        TOTAL FREE ENERGY PREDICTED BY IDOCK:   -3.71 KCAL/MOL
REMARK 923 INTER-LIGAND FREE ENERGY PREDICTED BY IDOCK:   -3.49 KCAL/MOL
REMARK 924 INTRA-LIGAND FREE ENERGY PREDICTED BY IDOCK:   -0.22 KCAL/MOL
REMARK 927      BINDING AFFINITY PREDICTED BY RF-SCORE:    0.00 PKD
ROOT
HETATM    1  C   UNL     1     -12.853  12.758  64.367  1.00  0.00    -0.288 C  
HETATM    2  C   UNL     1     -11.459  13.171  64.823  1.00  0.00    -0.323 C  
HETATM    3  C   UNL     1     -11.540  13.952  66.135  1.00  0.00    -0.371 C  
ENDROOT
BRANCH   2   4
HETATM    4  N   UNL     1     -10.624  11.999  65.013  1.00  0.00    -0.278 NA 
HETATM    5  C   UNL     1      -9.872  11.360  64.082  1.00  0.00    -0.268 C  
HETATM    6  H   UNL     1     -10.600  11.610  65.956  1.00  0.00     0.000 HD 
HETATM    7  N   UNL     1     -10.120  11.336  62.820  1.00  0.00    -0.614 NA 
HETATM    8  N   UNL     1      -8.782  10.698  64.567  1.00  0.00    -0.265 NA 
HETATM    9  H1  UNL     1      -9.554  10.855  62.120  1.00  0.00     0.000 HD 
HETATM   10  H2  UNL     1     -10.947  11.837  62.494  1.00  0.00     0.000 HD 
HETATM   11  C   UNL     1      -8.064  10.819  65.721  1.00  0.00    -0.135 C  
HETATM   12  H   UNL     1      -8.435   9.968  63.945  1.00  0.00     0.000 HD 
HETATM   13  N   UNL     1      -7.277   9.738  66.035  1.00  0.00    -0.098 NA 
HETATM   14  N   UNL     1      -8.149  11.867  66.487  1.00  0.00    -0.373 NA 
HETATM   15  H1  UNL     1      -7.613  11.957  67.350  1.00  0.00     0.000 HD 
HETATM   16  H2  UNL     1      -8.775  12.626  66.215  1.00  0.00     0.000 HD 
HETATM   17  H   UNL     1      -6.844   9.187  65.295  1.00  0.00     0.000 HD 
BRANCH  13  18
HETATM   18  C   UNL     1      -7.071   9.391  67.396  1.00  0.00    -0.086 A  
HETATM   19  C   UNL     1      -8.044   8.681  68.119  1.00  0.00    -0.115 A  
HETATM   20  C   UNL     1      -7.871   8.404  69.475  1.00  0.00    -0.102 A  
HETATM   21  C   UNL     1      -6.702   8.804  70.110  1.00  0.00    -0.040 A  
HETATM   22  C   UNL     1      -5.688   9.436  69.389  1.00  0.00    -0.034 A  
HETATM   23 CL   UNL     1      -6.519   8.532  71.799  1.00  0.00    -0.064 Cl 
HETATM   24  C   UNL     1      -5.865   9.711  68.025  1.00  0.00    -0.040 A  
ENDBRANCH  13  18
ENDBRANCH   2   4
TORSDOF 2
ENDMDL
MODEL      127
REMARK 921   NORMALIZED FREE ENERGY PREDICTED BY IDOCK:   -3.13 KCAL/MOL
REMARK 922        TOTAL FREE ENERGY PREDICTED BY IDOCK:   -3.71 KCAL/MOL
REMARK 923 INTER-LIGAND FREE ENERGY PREDICTED BY IDOCK:   -3.42 KCAL/MOL
REMARK 924 INTRA-LIGAND FREE ENERGY PREDICTED BY IDOCK:   -0.29 KCAL/MOL
REMARK 927      BINDING AFFINITY PREDICTED BY RF-SCORE:    0.00 PKD
ROOT
HETATM    1  C   UNL     1     -10.973   7.355  72.061  1.00  0.00    -0.273 C  
HETATM    2  C   UNL     1      -9.478   7.255  71.786  1.00  0.00    -0.150 C  
HETATM    3  C   UNL     1      -9.140   5.894  71.174  1.00  0.00    -0.152 C  
ENDROOT
BRANCH   2   4
HETATM    4  N   UNL     1      -9.063   8.307  70.875  1.00  0.00    -0.145 NA 
HETATM    5  C   UNL     1      -7.796   8.692  70.579  1.00  0.00    -0.096 C  
HETATM    6  H   UNL     1      -9.811   8.815  70.402  1.00  0.00     0.000 HD 
HETATM    7  N   UNL     1      -6.785   8.576  71.366  1.00  0.00    -0.063 NA 
HETATM    8  N   UNL     1      -7.629   9.248  69.344  1.00  0.00    -0.077 NA 
HETATM    9  H1  UNL     1      -5.832   8.866  71.144  1.00  0.00     0.000 HD 
HETATM   10  H2  UNL     1      -6.949   8.162  72.285  1.00  0.00     0.000 HD 
HETATM   11  C   UNL     1      -8.360   9.184  68.195  1.00  0.00    -0.120 C  
HETATM   12  H   UNL     1      -6.791   9.824  69.264  1.00  0.00     0.000 HD 
HETATM   13  N   UNL     1      -8.093  10.171  67.277  1.00  0.00    -0.113 NA 
HETATM   14  N   UNL     1      -9.272   8.277  67.999  1.00  0.00    -0.137 NA 
HETATM   15  H1  UNL     1      -9.819   8.229  67.139  1.00  0.00     0.000 HD 
HETATM   16  H2  UNL     1      -9.446   7.588  68.731  1.00  0.00     0.000 HD 
HETATM   17  H   UNL     1      -7.148  10.543  67.186  1.00  0.00     0.000 HD 
BRANCH  13  18
HETATM   18  C   UNL     1      -9.139  10.670  66.457  1.00  0.00    -0.162 A  
HETATM   19  C   UNL     1     -10.040  11.633  66.938  1.00  0.00    -0.238 A  
HETATM   20  C   UNL     1     -11.110  12.069  66.156  1.00  0.00    -0.367 A  
HETATM   21  C   UNL     1     -11.263  11.569  64.870  1.00  0.00    -0.173 A  
HETATM   22  C   UNL     1     -10.330  10.675  64.343  1.00  0.00    -0.347 A  
HETATM   23 CL   UNL     1     -12.624  12.047  63.931  1.00  0.00    -0.555 Cl 
HETATM   24  C   UNL     1      -9.254  10.241  65.132  1.00  0.00    -0.252 A  
ENDBRANCH  13  18
ENDBRANCH   2   4
TORSDOF 2
ENDMDL
MODEL      128
REMARK 921   NORMALIZED FREE ENERGY PREDICTED BY IDOCK:   -3.13 KCAL/MOL
REMARK 922        TOTAL FREE ENERGY PREDICTED BY IDOCK:   -3.71 KCAL/MOL
REMARK 923 INTER-LIGAND FREE ENERGY PREDICTED BY IDOCK:   -3.40 KCAL/MOL
REMARK 924 INTRA-LIGAND FREE ENERGY PREDICTED BY IDOCK:   -0.31 KCAL/MOL
REMARK 927      BINDING AFFINITY PREDICTED BY RF-SCORE:    0.00 PKD
ROOT
HETATM    1  C   UNL     1     -12.151  13.463  65.085  1.00  0.00    -0.442 C  
HETATM    2  C   UNL     1     -11.548  14.454  66.073  1.00  0.00    -0.363 C  
HETATM    3  C   UNL     1     -12.203  14.300  67.447  1.00  0.00    -0.267 C  
ENDROOT
BRANCH   2   4
HETATM    4  N   UNL     1     -10.118  14.233  66.196  1.00  0.00    -0.301 NA 
HETATM    5  C   UNL     1      -9.136  15.169  66.215  1.00  0.00    -0.278 C  
HETATM    6  H   UNL     1      -9.817  13.262  66.278  1.00  0.00     0.000 HD 
HETATM    7  N   UNL     1      -9.203  16.323  65.649  1.00  0.00    -0.423 NA 
HETATM    8  N   UNL     1      -8.005  14.814  66.890  1.00  0.00    -0.346 NA 
HETATM    9  H1  UNL     1      -8.464  17.027  65.663  1.00  0.00     0.000 HD 
HETATM   10  H2  UNL     1     -10.062  16.551  65.147  1.00  0.00     0.000 HD 
HETATM   11  C   UNL     1      -7.758  13.883  67.856  1.00  0.00    -0.160 C  
HETATM   12  H   UNL     1      -7.181  15.351  66.620  1.00  0.00     0.000 HD 
HETATM   13  N   UNL     1      -6.436  13.550  68.022  1.00  0.00    -0.117 NA 
HETATM   14  N   UNL     1      -8.711  13.324  68.543  1.00  0.00    -0.335 NA 
HETATM   15  H1  UNL     1      -8.527  12.627  69.265  1.00  0.00     0.000 HD 
HETATM   16  H2  UNL     1      -9.677  13.590  68.353  1.00  0.00     0.000 HD 
HETATM   17  H   UNL     1      -5.709  14.252  67.882  1.00  0.00     0.000 HD 
BRANCH  13  18
HETATM   18  C   UNL     1      -6.086  12.225  68.390  1.00  0.00    -0.052 A  
HETATM   19  C   UNL     1      -6.083  11.187  67.445  1.00  0.00    -0.061 A  
HETATM   20  C   UNL     1      -5.809   9.872  67.822  1.00  0.00    -0.039 A  
HETATM   21  C   UNL     1      -5.499   9.593  69.147  1.00  0.00    -0.036 A  
HETATM   22  C   UNL     1      -5.415  10.623  70.085  1.00  0.00    -0.060 A  
HETATM   23 CL   UNL     1      -5.236   7.963  69.631  1.00  0.00    -0.023 Cl 
HETATM   24  C   UNL     1      -5.689  11.944  69.701  1.00  0.00    -0.093 A  
ENDBRANCH  13  18
ENDBRANCH   2   4
TORSDOF 2
ENDMDL
MODEL      129
REMARK 921   NORMALIZED FREE ENERGY PREDICTED BY IDOCK:   -3.12 KCAL/MOL
REMARK 922        TOTAL FREE ENERGY PREDICTED BY IDOCK:   -3.69 KCAL/MOL
REMARK 923 INTER-LIGAND FREE ENERGY PREDICTED BY IDOCK:   -3.68 KCAL/MOL
REMARK 924 INTRA-LIGAND FREE ENERGY PREDICTED BY IDOCK:   -0.01 KCAL/MOL
REMARK 927      BINDING AFFINITY PREDICTED BY RF-SCORE:    0.00 PKD
ROOT
HETATM    1  C   UNL     1     -11.077  16.493  67.666  1.00  0.00    -0.127 C  
HETATM    2  C   UNL     1      -9.956  15.694  68.321  1.00  0.00    -0.213 C  
HETATM    3  C   UNL     1     -10.147  15.658  69.838  1.00  0.00    -0.272 C  
ENDROOT
BRANCH   2   4
HETATM    4  N   UNL     1      -9.940  14.337  67.807  1.00  0.00    -0.224 NA 
HETATM    5  C   UNL     1      -9.543  13.923  66.577  1.00  0.00    -0.287 C  
HETATM    6  H   UNL     1     -10.264  13.609  68.444  1.00  0.00     0.000 HD 
HETATM    7  N   UNL     1      -9.587  14.637  65.507  1.00  0.00    -0.520 NA 
HETATM    8  N   UNL     1      -9.077  12.643  66.514  1.00  0.00    -0.359 NA 
HETATM    9  H1  UNL     1      -9.289  14.326  64.582  1.00  0.00     0.000 HD 
HETATM   10  H2  UNL     1      -9.948  15.588  65.590  1.00  0.00     0.000 HD 
HETATM   11  C   UNL     1      -8.578  11.793  67.457  1.00  0.00    -0.157 C  
HETATM   12  H   UNL     1      -9.106  12.241  65.577  1.00  0.00     0.000 HD 
HETATM   13  N   UNL     1      -8.568  10.467  67.102  1.00  0.00    -0.129 NA 
HETATM   14  N   UNL     1      -8.176  12.207  68.624  1.00  0.00    -0.315 NA 
HETATM   15  H1  UNL     1      -7.803  11.571  69.330  1.00  0.00     0.000 HD 
HETATM   16  H2  UNL     1      -8.237  13.201  68.842  1.00  0.00     0.000 HD 
HETATM   17  H   UNL     1      -8.411  10.198  66.131  1.00  0.00     0.000 HD 
BRANCH  13  18
HETATM   18  C   UNL     1      -8.776   9.472  68.093  1.00  0.00    -0.120 A  
HETATM   19  C   UNL     1      -7.693   8.836  68.721  1.00  0.00    -0.097 A  
HETATM   20  C   UNL     1      -7.899   7.809  69.642  1.00  0.00    -0.107 A  
HETATM   21  C   UNL     1      -9.195   7.435  69.968  1.00  0.00    -0.148 A  
HETATM   22  C   UNL     1     -10.286   8.111  69.418  1.00  0.00    -0.211 A  
HETATM   23 CL   UNL     1      -9.453   6.118  71.045  1.00  0.00    -0.182 Cl 
HETATM   24  C   UNL     1     -10.074   9.145  68.494  1.00  0.00    -0.212 A  
ENDBRANCH  13  18
ENDBRANCH   2   4
TORSDOF 2
ENDMDL
MODEL      130
REMARK 921   NORMALIZED FREE ENERGY PREDICTED BY IDOCK:   -3.08 KCAL/MOL
REMARK 922        TOTAL FREE ENERGY PREDICTED BY IDOCK:   -3.65 KCAL/MOL
REMARK 923 INTER-LIGAND FREE ENERGY PREDICTED BY IDOCK:   -3.86 KCAL/MOL
REMARK 924 INTRA-LIGAND FREE ENERGY PREDICTED BY IDOCK:    0.21 KCAL/MOL
REMARK 927      BINDING AFFINITY PREDICTED BY RF-SCORE:    0.00 PKD
ROOT
HETATM    1  C   UNL     1      -9.053   5.031  66.416  1.00  0.00    -0.129 C  
HETATM    2  C   UNL     1      -8.032   5.988  67.018  1.00  0.00    -0.102 C  
HETATM    3  C   UNL     1      -6.612   5.483  66.756  1.00  0.00    -0.056 C  
ENDROOT
BRANCH   2   4
HETATM    4  N   UNL     1      -8.184   7.313  66.443  1.00  0.00    -0.115 NA 
HETATM    5  C   UNL     1      -8.265   7.639  65.129  1.00  0.00    -0.128 C  
HETATM    6  H   UNL     1      -8.235   8.088  67.104  1.00  0.00     0.000 HD 
HETATM    7  N   UNL     1      -7.743   6.964  64.166  1.00  0.00    -0.112 NA 
HETATM    8  N   UNL     1      -8.955   8.783  64.853  1.00  0.00    -0.412 NA 
HETATM    9  H1  UNL     1      -7.804   7.209  63.177  1.00  0.00     0.000 HD 
HETATM   10  H2  UNL     1      -7.228   6.117  64.410  1.00  0.00     0.000 HD 
HETATM   11  C   UNL     1      -9.890   9.490  65.551  1.00  0.00    -0.234 C  
HETATM   12  H   UNL     1      -8.728   9.190  63.946  1.00  0.00     0.000 HD 
HETATM   13  N   UNL     1     -10.077  10.784  65.131  1.00  0.00    -0.281 NA 
HETATM   14  N   UNL     1     -10.529   8.986  66.566  1.00  0.00    -0.190 NA 
HETATM   15  H1  UNL     1     -11.228   9.515  67.089  1.00  0.00     0.000 HD 
HETATM   16  H2  UNL     1     -10.324   8.028  66.851  1.00  0.00     0.000 HD 
HETATM   17  H   UNL     1      -9.983  11.021  64.143  1.00  0.00     0.000 HD 
BRANCH  13  18
HETATM   18  C   UNL     1     -10.401  11.791  66.077  1.00  0.00    -0.239 A  
HETATM   19  C   UNL     1     -11.629  12.469  66.023  1.00  0.00    -0.456 A  
HETATM   20  C   UNL     1     -11.918  13.506  66.909  1.00  0.00    -0.447 A  
HETATM   21  C   UNL     1     -10.989  13.849  67.883  1.00  0.00    -0.250 A  
HETATM   22  C   UNL     1      -9.798  13.132  68.008  1.00  0.00    -0.231 A  
HETATM   23 CL   UNL     1     -11.308  15.178  68.928  1.00  0.00    -0.293 Cl 
HETATM   24  C   UNL     1      -9.514  12.087  67.116  1.00  0.00    -0.187 A  
ENDBRANCH  13  18
ENDBRANCH   2   4
TORSDOF 2
ENDMDL
MODEL      131
REMARK 921   NORMALIZED FREE ENERGY PREDICTED BY IDOCK:   -3.05 KCAL/MOL
REMARK 922        TOTAL FREE ENERGY PREDICTED BY IDOCK:   -3.62 KCAL/MOL
REMARK 923 INTER-LIGAND FREE ENERGY PREDICTED BY IDOCK:   -4.37 KCAL/MOL
REMARK 924 INTRA-LIGAND FREE ENERGY PREDICTED BY IDOCK:    0.75 KCAL/MOL
REMARK 927      BINDING AFFINITY PREDICTED BY RF-SCORE:    0.00 PKD
ROOT
HETATM    1  C   UNL     1      -5.751   9.694  71.536  1.00  0.00    -0.050 C  
HETATM    2  C   UNL     1      -6.597   8.444  71.739  1.00  0.00    -0.070 C  
HETATM    3  C   UNL     1      -6.884   8.234  73.227  1.00  0.00    -0.136 C  
ENDROOT
BRANCH   2   4
HETATM    4  N   UNL     1      -7.852   8.563  71.020  1.00  0.00    -0.098 NA 
HETATM    5  C   UNL     1      -9.094   8.711  71.545  1.00  0.00    -0.239 C  
HETATM    6  H   UNL     1      -7.793   8.532  70.002  1.00  0.00     0.000 HD 
HETATM    7  N   UNL     1      -9.464   8.287  72.703  1.00  0.00    -0.274 NA 
HETATM    8  N   UNL     1      -9.992   9.357  70.746  1.00  0.00    -0.284 NA 
HETATM    9  H1  UNL     1     -10.398   8.399  73.097  1.00  0.00     0.000 HD 
HETATM   10  H2  UNL     1      -8.767   7.803  73.270  1.00  0.00     0.000 HD 
HETATM   11  C   UNL     1      -9.845  10.207  69.689  1.00  0.00    -0.225 C  
HETATM   12  H   UNL     1     -10.965   9.167  70.986  1.00  0.00     0.000 HD 
HETATM   13  N   UNL     1     -10.959  10.353  68.898  1.00  0.00    -0.232 NA 
HETATM   14  N   UNL     1      -8.720  10.806  69.428  1.00  0.00    -0.383 NA 
HETATM   15  H1  UNL     1      -8.610  11.441  68.638  1.00  0.00     0.000 HD 
HETATM   16  H2  UNL     1      -7.918  10.633  70.036  1.00  0.00     0.000 HD 
HETATM   17  H   UNL     1     -11.890  10.311  69.312  1.00  0.00     0.000 HD 
BRANCH  13  18
HETATM   18  C   UNL     1     -10.807  10.564  67.503  1.00  0.00    -0.301 A  
HETATM   19  C   UNL     1     -10.168   9.613  66.692  1.00  0.00    -0.302 A  
HETATM   20  C   UNL     1      -9.955   9.853  65.334  1.00  0.00    -0.349 A  
HETATM   21  C   UNL     1     -10.416  11.036  64.770  1.00  0.00    -0.316 A  
HETATM   22  C   UNL     1     -11.127  11.956  65.542  1.00  0.00    -0.356 A  
HETATM   23 CL   UNL     1     -10.088  11.370  63.115  1.00  0.00    -0.387 Cl 
HETATM   24  C   UNL     1     -11.341  11.710  66.906  1.00  0.00    -0.364 A  
ENDBRANCH  13  18
ENDBRANCH   2   4
TORSDOF 2
ENDMDL
MODEL      132
REMARK 921   NORMALIZED FREE ENERGY PREDICTED BY IDOCK:   -3.05 KCAL/MOL
REMARK 922        TOTAL FREE ENERGY PREDICTED BY IDOCK:   -3.61 KCAL/MOL
REMARK 923 INTER-LIGAND FREE ENERGY PREDICTED BY IDOCK:   -3.31 KCAL/MOL
REMARK 924 INTRA-LIGAND FREE ENERGY PREDICTED BY IDOCK:   -0.30 KCAL/MOL
REMARK 927      BINDING AFFINITY PREDICTED BY RF-SCORE:    0.00 PKD
ROOT
HETATM    1  C   UNL     1      -9.508   3.069  73.783  1.00  0.00    -0.113 C  
HETATM    2  C   UNL     1      -9.515   4.584  73.622  1.00  0.00    -0.123 C  
HETATM    3  C   UNL     1      -8.082   5.117  73.559  1.00  0.00    -0.110 C  
ENDROOT
BRANCH   2   4
HETATM    4  N   UNL     1     -10.219   4.957  72.408  1.00  0.00    -0.193 NA 
HETATM    5  C   UNL     1     -11.460   5.496  72.306  1.00  0.00    -0.156 C  
HETATM    6  H   UNL     1      -9.724   4.795  71.531  1.00  0.00     0.000 HD 
HETATM    7  N   UNL     1     -12.413   5.324  73.153  1.00  0.00    -0.104 NA 
HETATM    8  N   UNL     1     -11.672   6.267  71.200  1.00  0.00    -0.287 NA 
HETATM    9  H1  UNL     1     -13.346   5.730  73.075  1.00  0.00     0.000 HD 
HETATM   10  H2  UNL     1     -12.221   4.737  73.965  1.00  0.00     0.000 HD 
HETATM   11  C   UNL     1     -10.826   6.918  70.351  1.00  0.00    -0.261 C  
HETATM   12  H   UNL     1     -12.657   6.378  70.960  1.00  0.00     0.000 HD 
HETATM   13  N   UNL     1     -11.370   7.271  69.141  1.00  0.00    -0.450 NA 
HETATM   14  N   UNL     1      -9.582   7.154  70.653  1.00  0.00    -0.165 NA 
HETATM   15  H1  UNL     1      -8.949   7.641  70.018  1.00  0.00     0.000 HD 
HETATM   16  H2  UNL     1      -9.227   6.841  71.556  1.00  0.00     0.000 HD 
HETATM   17  H   UNL     1     -12.354   7.531  69.078  1.00  0.00     0.000 HD 
BRANCH  13  18
HETATM   18  C   UNL     1     -10.556   7.272  67.978  1.00  0.00    -0.189 A  
HETATM   19  C   UNL     1     -10.178   6.071  67.357  1.00  0.00    -0.230 A  
HETATM   20  C   UNL     1      -9.320   6.069  66.257  1.00  0.00    -0.165 A  
HETATM   21  C   UNL     1      -8.863   7.277  65.747  1.00  0.00    -0.066 A  
HETATM   22  C   UNL     1      -9.295   8.485  66.298  1.00  0.00    -0.287 A  
HETATM   23 CL   UNL     1      -7.745   7.277  64.440  1.00  0.00    -0.115 Cl 
HETATM   24  C   UNL     1     -10.159   8.482  67.402  1.00  0.00    -0.298 A  
ENDBRANCH  13  18
ENDBRANCH   2   4
TORSDOF 2
ENDMDL
MODEL      133
REMARK 921   NORMALIZED FREE ENERGY PREDICTED BY IDOCK:   -2.97 KCAL/MOL
REMARK 922        TOTAL FREE ENERGY PREDICTED BY IDOCK:   -3.53 KCAL/MOL
REMARK 923 INTER-LIGAND FREE ENERGY PREDICTED BY IDOCK:   -4.25 KCAL/MOL
REMARK 924 INTRA-LIGAND FREE ENERGY PREDICTED BY IDOCK:    0.72 KCAL/MOL
REMARK 927      BINDING AFFINITY PREDICTED BY RF-SCORE:    0.00 PKD
ROOT
HETATM    1  C   UNL     1      -8.625   5.153  65.216  1.00  0.00    -0.148 C  
HETATM    2  C   UNL     1      -8.221   6.256  66.186  1.00  0.00    -0.121 C  
HETATM    3  C   UNL     1      -7.777   7.502  65.417  1.00  0.00    -0.109 C  
ENDROOT
BRANCH   2   4
HETATM    4  N   UNL     1      -9.336   6.598  67.051  1.00  0.00    -0.136 NA 
HETATM    5  C   UNL     1      -9.927   5.813  67.986  1.00  0.00    -0.144 C  
HETATM    6  H   UNL     1      -9.719   7.538  66.943  1.00  0.00     0.000 HD 
HETATM    7  N   UNL     1      -9.971   4.527  67.952  1.00  0.00    -0.100 NA 
HETATM    8  N   UNL     1     -10.516   6.480  69.020  1.00  0.00    -0.197 NA 
HETATM    9  H1  UNL     1     -10.417   3.937  68.655  1.00  0.00     0.000 HD 
HETATM   10  H2  UNL     1      -9.527   4.063  67.160  1.00  0.00     0.000 HD 
HETATM   11  C   UNL     1     -10.344   7.735  69.528  1.00  0.00    -0.219 C  
HETATM   12  H   UNL     1     -11.223   5.934  69.511  1.00  0.00     0.000 HD 
HETATM   13  N   UNL     1     -11.370   8.190  70.320  1.00  0.00    -0.429 NA 
HETATM   14  N   UNL     1      -9.301   8.461  69.251  1.00  0.00    -0.154 NA 
HETATM   15  H1  UNL     1      -9.173   9.400  69.631  1.00  0.00     0.000 HD 
HETATM   16  H2  UNL     1      -8.585   8.080  68.632  1.00  0.00     0.000 HD 
HETATM   17  H   UNL     1     -11.894   7.538  70.904  1.00  0.00     0.000 HD 
BRANCH  13  18
HETATM   18  C   UNL     1     -11.699   9.571  70.320  1.00  0.00    -0.117 A  
HETATM   19  C   UNL     1     -11.283  10.415  69.278  1.00  0.00    -0.304 A  
HETATM   20  C   UNL     1     -11.544  11.784  69.315  1.00  0.00    -0.378 A  
HETATM   21  C   UNL     1     -12.258  12.314  70.381  1.00  0.00    -0.288 A  
HETATM   22  C   UNL     1     -12.753  11.479  71.385  1.00  0.00    -0.469 A  
HETATM   23 CL   UNL     1     -12.516  14.013  70.469  1.00  0.00    -0.418 Cl 
HETATM   24  C   UNL     1     -12.490  10.102  71.342  1.00  0.00    -0.524 A  
ENDBRANCH  13  18
ENDBRANCH   2   4
TORSDOF 2
ENDMDL
MODEL      134
REMARK 921   NORMALIZED FREE ENERGY PREDICTED BY IDOCK:   -2.97 KCAL/MOL
REMARK 922        TOTAL FREE ENERGY PREDICTED BY IDOCK:   -3.53 KCAL/MOL
REMARK 923 INTER-LIGAND FREE ENERGY PREDICTED BY IDOCK:   -4.25 KCAL/MOL
REMARK 924 INTRA-LIGAND FREE ENERGY PREDICTED BY IDOCK:    0.73 KCAL/MOL
REMARK 927      BINDING AFFINITY PREDICTED BY RF-SCORE:    0.00 PKD
ROOT
HETATM    1  C   UNL     1     -10.851  19.635  66.929  1.00  0.00    -0.505 C  
HETATM    2  C   UNL     1      -9.579  18.863  66.601  1.00  0.00    -0.336 C  
HETATM    3  C   UNL     1      -8.350  19.751  66.808  1.00  0.00    -0.354 C  
ENDROOT
BRANCH   2   4
HETATM    4  N   UNL     1      -9.470  17.689  67.448  1.00  0.00    -0.253 NA 
HETATM    5  C   UNL     1      -9.829  17.574  68.751  1.00  0.00    -0.326 C  
HETATM    6  H   UNL     1      -9.079  16.853  67.013  1.00  0.00     0.000 HD 
HETATM    7  N   UNL     1      -9.853  18.542  69.599  1.00  0.00     0.133 NA 
HETATM    8  N   UNL     1     -10.175  16.317  69.153  1.00  0.00    -0.249 NA 
HETATM    9  H1  UNL     1     -10.123  18.455  70.580  1.00  0.00     0.000 HD 
HETATM   10  H2  UNL     1      -9.582  19.467  69.265  1.00  0.00     0.000 HD 
HETATM   11  C   UNL     1     -10.591  15.211  68.472  1.00  0.00    -0.237 C  
HETATM   12  H   UNL     1     -10.109  16.176  70.161  1.00  0.00     0.000 HD 
HETATM   13  N   UNL     1     -10.479  14.026  69.158  1.00  0.00    -0.402 NA 
HETATM   14  N   UNL     1     -11.027  15.270  67.247  1.00  0.00    -0.323 NA 
HETATM   15  H1  UNL     1     -11.338  14.442  66.738  1.00  0.00     0.000 HD 
HETATM   16  H2  UNL     1     -11.059  16.176  66.779  1.00  0.00     0.000 HD 
HETATM   17  H   UNL     1     -10.611  14.005  70.169  1.00  0.00     0.000 HD 
BRANCH  13  18
HETATM   18  C   UNL     1     -10.177  12.832  68.453  1.00  0.00    -0.236 A  
HETATM   19  C   UNL     1     -10.641  11.586  68.906  1.00  0.00    -0.236 A  
HETATM   20  C   UNL     1     -10.284  10.406  68.254  1.00  0.00    -0.184 A  
HETATM   21  C   UNL     1      -9.488  10.469  67.117  1.00  0.00    -0.159 A  
HETATM   22  C   UNL     1      -9.087  11.703  66.603  1.00  0.00    -0.196 A  
HETATM   23 CL   UNL     1      -8.983   9.012  66.354  1.00  0.00    -0.174 Cl 
HETATM   24  C   UNL     1      -9.450  12.887  67.261  1.00  0.00    -0.216 A  
ENDBRANCH  13  18
ENDBRANCH   2   4
TORSDOF 2
ENDMDL
MODEL      135
REMARK 921   NORMALIZED FREE ENERGY PREDICTED BY IDOCK:   -2.97 KCAL/MOL
REMARK 922        TOTAL FREE ENERGY PREDICTED BY IDOCK:   -3.52 KCAL/MOL
REMARK 923 INTER-LIGAND FREE ENERGY PREDICTED BY IDOCK:   -3.33 KCAL/MOL
REMARK 924 INTRA-LIGAND FREE ENERGY PREDICTED BY IDOCK:   -0.19 KCAL/MOL
REMARK 927      BINDING AFFINITY PREDICTED BY RF-SCORE:    0.00 PKD
ROOT
HETATM    1  C   UNL     1     -11.141   7.477  72.777  1.00  0.00    -0.416 C  
HETATM    2  C   UNL     1     -10.454   8.702  72.184  1.00  0.00    -0.340 C  
HETATM    3  C   UNL     1      -8.959   8.681  72.508  1.00  0.00    -0.163 C  
ENDROOT
BRANCH   2   4
HETATM    4  N   UNL     1     -10.632   8.729  70.743  1.00  0.00    -0.209 NA 
HETATM    5  C   UNL     1     -11.257   9.681  70.006  1.00  0.00    -0.231 C  
HETATM    6  H   UNL     1     -10.241   7.942  70.225  1.00  0.00     0.000 HD 
HETATM    7  N   UNL     1     -12.207  10.439  70.429  1.00  0.00    -0.354 NA 
HETATM    8  N   UNL     1     -10.820   9.803  68.719  1.00  0.00    -0.319 NA 
HETATM    9  H1  UNL     1     -12.678  11.154  69.874  1.00  0.00     0.000 HD 
HETATM   10  H2  UNL     1     -12.514  10.314  71.394  1.00  0.00     0.000 HD 
HETATM   11  C   UNL     1      -9.659   9.444  68.099  1.00  0.00    -0.142 C  
HETATM   12  H   UNL     1     -11.492  10.253  68.098  1.00  0.00     0.000 HD 
HETATM   13  N   UNL     1      -9.725   9.378  66.729  1.00  0.00    -0.183 NA 
HETATM   14  N   UNL     1      -8.579   9.146  68.761  1.00  0.00    -0.130 NA 
HETATM   15  H1  UNL     1      -7.711   8.877  68.298  1.00  0.00     0.000 HD 
HETATM   16  H2  UNL     1      -8.601   9.184  69.781  1.00  0.00     0.000 HD 
HETATM   17  H   UNL     1     -10.326  10.021  66.214  1.00  0.00     0.000 HD 
BRANCH  13  18
HETATM   18  C   UNL     1      -8.952   8.412  66.033  1.00  0.00    -0.184 A  
HETATM   19  C   UNL     1      -7.974   8.799  65.103  1.00  0.00    -0.125 A  
HETATM   20  C   UNL     1      -7.266   7.848  64.368  1.00  0.00    -0.081 A  
HETATM   21  C   UNL     1      -7.507   6.498  64.587  1.00  0.00    -0.089 A  
HETATM   22  C   UNL     1      -8.415   6.092  65.567  1.00  0.00    -0.149 A  
HETATM   23 CL   UNL     1      -6.691   5.325  63.629  1.00  0.00    -0.040 Cl 
HETATM   24  C   UNL     1      -9.123   7.052  66.305  1.00  0.00    -0.178 A  
ENDBRANCH  13  18
ENDBRANCH   2   4
TORSDOF 2
ENDMDL
MODEL      136
REMARK 921   NORMALIZED FREE ENERGY PREDICTED BY IDOCK:   -2.91 KCAL/MOL
REMARK 922        TOTAL FREE ENERGY PREDICTED BY IDOCK:   -3.46 KCAL/MOL
REMARK 923 INTER-LIGAND FREE ENERGY PREDICTED BY IDOCK:   -3.21 KCAL/MOL
REMARK 924 INTRA-LIGAND FREE ENERGY PREDICTED BY IDOCK:   -0.26 KCAL/MOL
REMARK 927      BINDING AFFINITY PREDICTED BY RF-SCORE:    0.00 PKD
ROOT
HETATM    1  C   UNL     1     -12.000  14.850  67.956  1.00  0.00    -0.216 C  
HETATM    2  C   UNL     1     -10.681  15.547  68.266  1.00  0.00    -0.271 C  
HETATM    3  C   UNL     1     -10.415  15.534  69.773  1.00  0.00    -0.308 C  
ENDROOT
BRANCH   2   4
HETATM    4  N   UNL     1      -9.587  14.882  67.580  1.00  0.00    -0.200 NA 
HETATM    5  C   UNL     1      -8.432  15.436  67.134  1.00  0.00    -0.214 C  
HETATM    6  H   UNL     1      -9.701  13.881  67.415  1.00  0.00     0.000 HD 
HETATM    7  N   UNL     1      -8.290  16.665  66.781  1.00  0.00    -0.210 NA 
HETATM    8  N   UNL     1      -7.367  14.587  67.063  1.00  0.00    -0.333 NA 
HETATM    9  H1  UNL     1      -7.421  17.082  66.445  1.00  0.00     0.000 HD 
HETATM   10  H2  UNL     1      -9.110  17.270  66.842  1.00  0.00     0.000 HD 
HETATM   11  C   UNL     1      -7.090  13.397  67.670  1.00  0.00    -0.162 C  
HETATM   12  H   UNL     1      -6.632  14.904  66.431  1.00  0.00     0.000 HD 
HETATM   13  N   UNL     1      -6.106  12.650  67.070  1.00  0.00    -0.491 NA 
HETATM   14  N   UNL     1      -7.739  12.984  68.720  1.00  0.00    -0.293 NA 
HETATM   15  H1  UNL     1      -7.532  12.094  69.174  1.00  0.00     0.000 HD 
HETATM   16  H2  UNL     1      -8.481  13.570  69.102  1.00  0.00     0.000 HD 
HETATM   17  H   UNL     1      -5.321  13.111  66.612  1.00  0.00     0.000 HD 
BRANCH  13  18
HETATM   18  C   UNL     1      -6.188  11.233  67.092  1.00  0.00    -0.096 A  
HETATM   19  C   UNL     1      -6.868  10.531  66.084  1.00  0.00    -0.131 A  
HETATM   20  C   UNL     1      -7.009   9.145  66.145  1.00  0.00    -0.086 A  
HETATM   21  C   UNL     1      -6.437   8.446  67.199  1.00  0.00    -0.058 A  
HETATM   22  C   UNL     1      -5.686   9.116  68.166  1.00  0.00    -0.038 A  
HETATM   23 CL   UNL     1      -6.674   6.746  67.319  1.00  0.00    -0.064 Cl 
HETATM   24  C   UNL     1      -5.544  10.510  68.100  1.00  0.00    -0.036 A  
ENDBRANCH  13  18
ENDBRANCH   2   4
TORSDOF 2
ENDMDL
MODEL      137
REMARK 921   NORMALIZED FREE ENERGY PREDICTED BY IDOCK:   -2.88 KCAL/MOL
REMARK 922        TOTAL FREE ENERGY PREDICTED BY IDOCK:   -3.42 KCAL/MOL
REMARK 923 INTER-LIGAND FREE ENERGY PREDICTED BY IDOCK:   -3.68 KCAL/MOL
REMARK 924 INTRA-LIGAND FREE ENERGY PREDICTED BY IDOCK:    0.26 KCAL/MOL
REMARK 927      BINDING AFFINITY PREDICTED BY RF-SCORE:    0.00 PKD
ROOT
HETATM    1  C   UNL     1     -10.436  18.845  66.784  1.00  0.00    -0.497 C  
HETATM    2  C   UNL     1      -9.175  18.965  67.630  1.00  0.00    -0.286 C  
HETATM    3  C   UNL     1      -9.538  19.274  69.084  1.00  0.00    -0.355 C  
ENDROOT
BRANCH   2   4
HETATM    4  N   UNL     1      -8.415  17.729  67.579  1.00  0.00    -0.225 NA 
HETATM    5  C   UNL     1      -7.232  17.460  68.186  1.00  0.00    -0.199 C  
HETATM    6  H   UNL     1      -8.817  16.975  67.021  1.00  0.00     0.000 HD 
HETATM    7  N   UNL     1      -6.339  18.336  68.487  1.00  0.00    -0.207 NA 
HETATM    8  N   UNL     1      -7.011  16.145  68.475  1.00  0.00    -0.132 NA 
HETATM    9  H1  UNL     1      -5.449  18.133  68.944  1.00  0.00     0.000 HD 
HETATM   10  H2  UNL     1      -6.536  19.309  68.250  1.00  0.00     0.000 HD 
HETATM   11  C   UNL     1      -7.847  15.077  68.624  1.00  0.00    -0.138 C  
HETATM   12  H   UNL     1      -6.026  15.914  68.607  1.00  0.00     0.000 HD 
HETATM   13  N   UNL     1      -7.244  13.846  68.534  1.00  0.00    -0.099 NA 
HETATM   14  N   UNL     1      -9.129  15.216  68.800  1.00  0.00    -0.191 NA 
HETATM   15  H1  UNL     1      -9.754  14.417  68.910  1.00  0.00     0.000 HD 
HETATM   16  H2  UNL     1      -9.523  16.156  68.827  1.00  0.00     0.000 HD 
HETATM   17  H   UNL     1      -6.290  13.717  68.870  1.00  0.00     0.000 HD 
BRANCH  13  18
HETATM   18  C   UNL     1      -7.955  12.755  67.970  1.00  0.00    -0.160 A  
HETATM   19  C   UNL     1      -7.798  11.452  68.469  1.00  0.00    -0.140 A  
HETATM   20  C   UNL     1      -8.441  10.370  67.868  1.00  0.00    -0.114 A  
HETATM   21  C   UNL     1      -9.279  10.592  66.783  1.00  0.00    -0.155 A  
HETATM   22  C   UNL     1      -9.514  11.889  66.325  1.00  0.00    -0.238 A  
HETATM   23 CL   UNL     1     -10.014   9.252  65.992  1.00  0.00    -0.362 Cl 
HETATM   24  C   UNL     1      -8.867  12.974  66.933  1.00  0.00    -0.184 A  
ENDBRANCH  13  18
ENDBRANCH   2   4
TORSDOF 2
ENDMDL
MODEL      138
REMARK 921   NORMALIZED FREE ENERGY PREDICTED BY IDOCK:   -2.87 KCAL/MOL
REMARK 922        TOTAL FREE ENERGY PREDICTED BY IDOCK:   -3.41 KCAL/MOL
REMARK 923 INTER-LIGAND FREE ENERGY PREDICTED BY IDOCK:   -3.11 KCAL/MOL
REMARK 924 INTRA-LIGAND FREE ENERGY PREDICTED BY IDOCK:   -0.30 KCAL/MOL
REMARK 927      BINDING AFFINITY PREDICTED BY RF-SCORE:    0.00 PKD
ROOT
HETATM    1  C   UNL     1      -9.291   1.650  63.122  1.00  0.00    -0.091 C  
HETATM    2  C   UNL     1      -9.267   3.174  63.115  1.00  0.00    -0.094 C  
HETATM    3  C   UNL     1     -10.669   3.726  62.848  1.00  0.00    -0.175 C  
ENDROOT
BRANCH   2   4
HETATM    4  N   UNL     1      -8.790   3.675  64.392  1.00  0.00    -0.114 NA 
HETATM    5  C   UNL     1      -7.571   4.202  64.669  1.00  0.00    -0.077 C  
HETATM    6  H   UNL     1      -9.447   3.626  65.170  1.00  0.00     0.000 HD 
HETATM    7  N   UNL     1      -6.482   3.916  64.045  1.00  0.00    -0.036 NA 
HETATM    8  N   UNL     1      -7.542   5.093  65.702  1.00  0.00    -0.085 NA 
HETATM    9  H1  UNL     1      -5.565   4.312  64.254  1.00  0.00     0.000 HD 
HETATM   10  H2  UNL     1      -6.541   3.240  63.283  1.00  0.00     0.000 HD 
HETATM   11  C   UNL     1      -8.506   5.854  66.294  1.00  0.00    -0.128 C  
HETATM   12  H   UNL     1      -6.616   5.215  66.112  1.00  0.00     0.000 HD 
HETATM   13  N   UNL     1      -8.186   6.337  67.539  1.00  0.00    -0.113 NA 
HETATM   14  N   UNL     1      -9.661   6.074  65.735  1.00  0.00    -0.371 NA 
HETATM   15  H1  UNL     1     -10.382   6.642  66.178  1.00  0.00     0.000 HD 
HETATM   16  H2  UNL     1      -9.851   5.662  64.821  1.00  0.00     0.000 HD 
HETATM   17  H   UNL     1      -7.222   6.586  67.760  1.00  0.00     0.000 HD 
BRANCH  13  18
HETATM   18  C   UNL     1      -9.204   6.488  68.517  1.00  0.00    -0.125 A  
HETATM   19  C   UNL     1      -9.720   5.377  69.203  1.00  0.00    -0.217 A  
HETATM   20  C   UNL     1     -10.770   5.518  70.111  1.00  0.00    -0.348 A  
HETATM   21  C   UNL     1     -11.286   6.782  70.367  1.00  0.00    -0.328 A  
HETATM   22  C   UNL     1     -10.731   7.908  69.758  1.00  0.00    -0.233 A  
HETATM   23 CL   UNL     1     -12.630   6.950  71.428  1.00  0.00    -0.414 Cl 
HETATM   24  C   UNL     1      -9.674   7.762  68.847  1.00  0.00    -0.160 A  
ENDBRANCH  13  18
ENDBRANCH   2   4
TORSDOF 2
ENDMDL
MODEL      139
REMARK 921   NORMALIZED FREE ENERGY PREDICTED BY IDOCK:   -2.85 KCAL/MOL
REMARK 922        TOTAL FREE ENERGY PREDICTED BY IDOCK:   -3.40 KCAL/MOL
REMARK 923 INTER-LIGAND FREE ENERGY PREDICTED BY IDOCK:   -3.11 KCAL/MOL
REMARK 924 INTRA-LIGAND FREE ENERGY PREDICTED BY IDOCK:   -0.29 KCAL/MOL
REMARK 927      BINDING AFFINITY PREDICTED BY RF-SCORE:    0.00 PKD
ROOT
HETATM    1  C   UNL     1     -10.864   6.264  72.701  1.00  0.00    -0.273 C  
HETATM    2  C   UNL     1     -11.598   7.113  71.670  1.00  0.00    -0.276 C  
HETATM    3  C   UNL     1     -12.379   8.232  72.362  1.00  0.00    -0.385 C  
ENDROOT
BRANCH   2   4
HETATM    4  N   UNL     1     -10.653   7.696  70.734  1.00  0.00    -0.218 NA 
HETATM    5  C   UNL     1     -10.614   7.529  69.388  1.00  0.00    -0.223 C  
HETATM    6  H   UNL     1      -9.937   8.301  71.135  1.00  0.00     0.000 HD 
HETATM    7  N   UNL     1     -11.042   6.492  68.758  1.00  0.00    -0.480 NA 
HETATM    8  N   UNL     1     -10.061   8.562  68.688  1.00  0.00    -0.186 NA 
HETATM    9  H1  UNL     1     -11.012   6.367  67.746  1.00  0.00     0.000 HD 
HETATM   10  H2  UNL     1     -11.443   5.736  69.315  1.00  0.00     0.000 HD 
HETATM   11  C   UNL     1      -9.863   9.879  68.985  1.00  0.00    -0.190 C  
HETATM   12  H   UNL     1      -9.732   8.298  67.760  1.00  0.00     0.000 HD 
HETATM   13  N   UNL     1      -8.940  10.522  68.197  1.00  0.00    -0.134 NA 
HETATM   14  N   UNL     1     -10.476  10.471  69.969  1.00  0.00    -0.449 NA 
HETATM   15  H1  UNL     1     -10.327  11.455  70.191  1.00  0.00     0.000 HD 
HETATM   16  H2  UNL     1     -11.128   9.931  70.538  1.00  0.00     0.000 HD 
HETATM   17  H   UNL     1      -8.836  10.264  67.216  1.00  0.00     0.000 HD 
BRANCH  13  18
HETATM   18  C   UNL     1      -8.133  11.548  68.755  1.00  0.00    -0.093 A  
HETATM   19  C   UNL     1      -6.959  11.243  69.461  1.00  0.00    -0.089 A  
HETATM   20  C   UNL     1      -6.205  12.246  70.070  1.00  0.00    -0.085 A  
HETATM   21  C   UNL     1      -6.604  13.570  69.944  1.00  0.00     0.060 A  
HETATM   22  C   UNL     1      -7.722  13.902  69.177  1.00  0.00     0.109 A  
HETATM   23 CL   UNL     1      -5.721  14.803  70.758  1.00  0.00    -0.152 Cl 
HETATM   24  C   UNL     1      -8.475  12.890  68.564  1.00  0.00    -0.045 A  
ENDBRANCH  13  18
ENDBRANCH   2   4
TORSDOF 2
ENDMDL
MODEL      140
REMARK 921   NORMALIZED FREE ENERGY PREDICTED BY IDOCK:   -2.85 KCAL/MOL
REMARK 922        TOTAL FREE ENERGY PREDICTED BY IDOCK:   -3.39 KCAL/MOL
REMARK 923 INTER-LIGAND FREE ENERGY PREDICTED BY IDOCK:   -3.61 KCAL/MOL
REMARK 924 INTRA-LIGAND FREE ENERGY PREDICTED BY IDOCK:    0.22 KCAL/MOL
REMARK 927      BINDING AFFINITY PREDICTED BY RF-SCORE:    0.00 PKD
ROOT
HETATM    1  C   UNL     1     -10.066   8.466  71.461  1.00  0.00    -0.293 C  
HETATM    2  C   UNL     1      -8.564   8.718  71.487  1.00  0.00    -0.186 C  
HETATM    3  C   UNL     1      -7.809   7.478  71.004  1.00  0.00    -0.091 C  
ENDROOT
BRANCH   2   4
HETATM    4  N   UNL     1      -8.228   9.846  70.636  1.00  0.00    -0.400 NA 
HETATM    5  C   UNL     1      -6.997  10.215  70.201  1.00  0.00    -0.155 C  
HETATM    6  H   UNL     1      -9.008  10.428  70.331  1.00  0.00     0.000 HD 
HETATM    7  N   UNL     1      -5.893   9.980  70.818  1.00  0.00    -0.083 NA 
HETATM    8  N   UNL     1      -6.976  10.894  69.017  1.00  0.00    -0.080 NA 
HETATM    9  H1  UNL     1      -4.967  10.258  70.491  1.00  0.00     0.000 HD 
HETATM   10  H2  UNL     1      -5.948   9.476  71.704  1.00  0.00     0.000 HD 
HETATM   11  C   UNL     1      -7.864  10.980  67.985  1.00  0.00    -0.112 C  
HETATM   12  H   UNL     1      -6.130  11.445  68.876  1.00  0.00     0.000 HD 
HETATM   13  N   UNL     1      -7.678  12.048  67.143  1.00  0.00    -0.175 NA 
HETATM   14  N   UNL     1      -8.839  10.131  67.833  1.00  0.00    -0.125 NA 
HETATM   15  H1  UNL     1      -9.503  10.196  67.061  1.00  0.00     0.000 HD 
HETATM   16  H2  UNL     1      -8.943   9.375  68.509  1.00  0.00     0.000 HD 
HETATM   17  H   UNL     1      -6.738  12.395  66.954  1.00  0.00     0.000 HD 
BRANCH  13  18
HETATM   18  C   UNL     1      -8.802  12.669  66.537  1.00  0.00    -0.062 A  
HETATM   19  C   UNL     1      -9.469  12.067  65.459  1.00  0.00    -0.116 A  
HETATM   20  C   UNL     1     -10.528  12.711  64.818  1.00  0.00    -0.343 A  
HETATM   21  C   UNL     1     -10.951  13.951  65.279  1.00  0.00    -0.331 A  
HETATM   22  C   UNL     1     -10.356  14.528  66.402  1.00  0.00    -0.296 A  
HETATM   23 CL   UNL     1     -12.205  14.783  64.445  1.00  0.00    -0.504 Cl 
HETATM   24  C   UNL     1      -9.293  13.875  67.044  1.00  0.00    -0.255 A  
ENDBRANCH  13  18
ENDBRANCH   2   4
TORSDOF 2
ENDMDL
MODEL      141
REMARK 921   NORMALIZED FREE ENERGY PREDICTED BY IDOCK:   -2.68 KCAL/MOL
REMARK 922        TOTAL FREE ENERGY PREDICTED BY IDOCK:   -3.21 KCAL/MOL
REMARK 923 INTER-LIGAND FREE ENERGY PREDICTED BY IDOCK:   -3.36 KCAL/MOL
REMARK 924 INTRA-LIGAND FREE ENERGY PREDICTED BY IDOCK:    0.15 KCAL/MOL
REMARK 927      BINDING AFFINITY PREDICTED BY RF-SCORE:    0.00 PKD
ROOT
HETATM    1  C   UNL     1      -6.309   7.343  62.880  1.00  0.00    -0.054 C  
HETATM    2  C   UNL     1      -7.829   7.273  62.824  1.00  0.00    -0.131 C  
HETATM    3  C   UNL     1      -8.283   5.858  62.458  1.00  0.00    -0.098 C  
ENDROOT
BRANCH   2   4
HETATM    4  N   UNL     1      -8.398   7.643  64.107  1.00  0.00    -0.366 NA 
HETATM    5  C   UNL     1      -8.145   7.081  65.316  1.00  0.00    -0.134 C  
HETATM    6  H   UNL     1      -9.065   8.414  64.100  1.00  0.00     0.000 HD 
HETATM    7  N   UNL     1      -7.778   5.861  65.502  1.00  0.00    -0.087 NA 
HETATM    8  N   UNL     1      -8.313   7.905  66.390  1.00  0.00    -0.123 NA 
HETATM    9  H1  UNL     1      -7.588   5.439  66.412  1.00  0.00     0.000 HD 
HETATM   10  H2  UNL     1      -7.668   5.272  64.677  1.00  0.00     0.000 HD 
HETATM   11  C   UNL     1      -8.330   9.263  66.519  1.00  0.00    -0.126 C  
HETATM   12  H   UNL     1      -8.454   7.409  67.269  1.00  0.00     0.000 HD 
HETATM   13  N   UNL     1      -8.902   9.733  67.676  1.00  0.00    -0.125 NA 
HETATM   14  N   UNL     1      -7.871  10.056  65.595  1.00  0.00    -0.131 NA 
HETATM   15  H1  UNL     1      -7.884  11.072  65.691  1.00  0.00     0.000 HD 
HETATM   16  H2  UNL     1      -7.486   9.648  64.743  1.00  0.00     0.000 HD 
HETATM   17  H   UNL     1      -8.815   9.202  68.542  1.00  0.00     0.000 HD 
BRANCH  13  18
HETATM   18  C   UNL     1      -9.615  10.960  67.660  1.00  0.00    -0.163 A  
HETATM   19  C   UNL     1     -10.950  11.017  67.228  1.00  0.00    -0.356 A  
HETATM   20  C   UNL     1     -11.627  12.233  67.145  1.00  0.00    -0.423 A  
HETATM   21  C   UNL     1     -10.981  13.401  67.529  1.00  0.00    -0.267 A  
HETATM   22  C   UNL     1      -9.683  13.355  68.040  1.00  0.00    -0.222 A  
HETATM   23 CL   UNL     1     -11.786  14.912  67.355  1.00  0.00    -0.354 Cl 
HETATM   24  C   UNL     1      -9.007  12.129  68.124  1.00  0.00    -0.195 A  
ENDBRANCH  13  18
ENDBRANCH   2   4
TORSDOF 2
ENDMDL
MODEL      142
REMARK 921   NORMALIZED FREE ENERGY PREDICTED BY IDOCK:   -2.66 KCAL/MOL
REMARK 922        TOTAL FREE ENERGY PREDICTED BY IDOCK:   -3.18 KCAL/MOL
REMARK 923 INTER-LIGAND FREE ENERGY PREDICTED BY IDOCK:   -2.92 KCAL/MOL
REMARK 924 INTRA-LIGAND FREE ENERGY PREDICTED BY IDOCK:   -0.26 KCAL/MOL
REMARK 927      BINDING AFFINITY PREDICTED BY RF-SCORE:    0.00 PKD
ROOT
HETATM    1  C   UNL     1     -10.438   6.907  73.909  1.00  0.00    -0.352 C  
HETATM    2  C   UNL     1     -11.138   6.777  72.562  1.00  0.00    -0.264 C  
HETATM    3  C   UNL     1     -11.752   8.116  72.151  1.00  0.00    -0.418 C  
ENDROOT
BRANCH   2   4
HETATM    4  N   UNL     1     -10.194   6.350  71.544  1.00  0.00    -0.192 NA 
HETATM    5  C   UNL     1      -9.928   5.081  71.145  1.00  0.00    -0.207 C  
HETATM    6  H   UNL     1      -9.672   7.089  71.075  1.00  0.00     0.000 HD 
HETATM    7  N   UNL     1     -10.055   4.032  71.880  1.00  0.00    -0.172 NA 
HETATM    8  N   UNL     1      -9.485   4.954  69.861  1.00  0.00    -0.144 NA 
HETATM    9  H1  UNL     1      -9.855   3.078  71.579  1.00  0.00     0.000 HD 
HETATM   10  H2  UNL     1     -10.383   4.165  72.837  1.00  0.00     0.000 HD 
HETATM   11  C   UNL     1      -9.585   5.760  68.764  1.00  0.00    -0.127 C  
HETATM   12  H   UNL     1      -8.980   4.086  69.685  1.00  0.00     0.000 HD 
HETATM   13  N   UNL     1      -8.697   5.484  67.754  1.00  0.00    -0.108 NA 
HETATM   14  N   UNL     1     -10.436   6.742  68.698  1.00  0.00    -0.192 NA 
HETATM   15  H1  UNL     1     -10.511   7.345  67.878  1.00  0.00     0.000 HD 
HETATM   16  H2  UNL     1     -11.050   6.916  69.494  1.00  0.00     0.000 HD 
HETATM   17  H   UNL     1      -8.403   4.524  67.578  1.00  0.00     0.000 HD 
BRANCH  13  18
HETATM   18  C   UNL     1      -8.189   6.543  66.957  1.00  0.00    -0.113 A  
HETATM   19  C   UNL     1      -7.270   7.467  67.479  1.00  0.00    -0.090 A  
HETATM   20  C   UNL     1      -6.826   8.549  66.718  1.00  0.00    -0.069 A  
HETATM   21  C   UNL     1      -7.274   8.692  65.411  1.00  0.00    -0.083 A  
HETATM   22  C   UNL     1      -8.122   7.738  64.846  1.00  0.00    -0.136 A  
HETATM   23 CL   UNL     1      -6.790  10.065  64.495  1.00  0.00    -0.125 Cl 
HETATM   24  C   UNL     1      -8.563   6.651  65.615  1.00  0.00    -0.130 A  
ENDBRANCH  13  18
ENDBRANCH   2   4
TORSDOF 2
ENDMDL
MODEL      143
REMARK 921   NORMALIZED FREE ENERGY PREDICTED BY IDOCK:   -2.62 KCAL/MOL
REMARK 922        TOTAL FREE ENERGY PREDICTED BY IDOCK:   -3.14 KCAL/MOL
REMARK 923 INTER-LIGAND FREE ENERGY PREDICTED BY IDOCK:   -3.43 KCAL/MOL
REMARK 924 INTRA-LIGAND FREE ENERGY PREDICTED BY IDOCK:    0.29 KCAL/MOL
REMARK 927      BINDING AFFINITY PREDICTED BY RF-SCORE:    0.00 PKD
ROOT
HETATM    1  C   UNL     1     -11.758  10.572  69.211  1.00  0.00    -0.281 C  
HETATM    2  C   UNL     1     -12.708  11.147  70.254  1.00  0.00    -0.139 C  
HETATM    3  C   UNL     1     -12.334  10.642  71.649  1.00  0.00    -0.336 C  
ENDROOT
BRANCH   2   4
HETATM    4  N   UNL     1     -12.654  12.598  70.239  1.00  0.00    -0.053 NA 
HETATM    5  C   UNL     1     -12.992  13.448  71.241  1.00  0.00    -0.287 C  
HETATM    6  H   UNL     1     -12.325  13.028  69.375  1.00  0.00     0.000 HD 
HETATM    7  N   UNL     1     -13.857  13.200  72.161  1.00  0.00    -0.469 NA 
HETATM    8  N   UNL     1     -12.346  14.650  71.228  1.00  0.00    -0.321 NA 
HETATM    9  H1  UNL     1     -14.110  13.840  72.915  1.00  0.00     0.000 HD 
HETATM   10  H2  UNL     1     -14.324  12.293  72.135  1.00  0.00     0.000 HD 
HETATM   11  C   UNL     1     -11.180  15.067  70.657  1.00  0.00    -0.242 C  
HETATM   12  H   UNL     1     -12.831  15.381  71.749  1.00  0.00     0.000 HD 
HETATM   13  N   UNL     1     -11.044  16.428  70.536  1.00  0.00    -0.382 NA 
HETATM   14  N   UNL     1     -10.280  14.233  70.224  1.00  0.00     0.226 NA 
HETATM   15  H1  UNL     1      -9.408  14.546  69.796  1.00  0.00     0.000 HD 
HETATM   16  H2  UNL     1     -10.452  13.232  70.314  1.00  0.00     0.000 HD 
HETATM   17  H   UNL     1     -11.443  17.048  71.240  1.00  0.00     0.000 HD 
BRANCH  13  18
HETATM   18  C   UNL     1     -10.344  16.968  69.425  1.00  0.00    -0.230 A  
HETATM   19  C   UNL     1      -8.941  17.023  69.409  1.00  0.00     0.249 A  
HETATM   20  C   UNL     1      -8.257  17.619  68.350  1.00  0.00    -0.289 A  
HETATM   21  C   UNL     1      -8.975  18.133  67.278  1.00  0.00    -0.248 A  
HETATM   22  C   UNL     1     -10.365  18.013  67.235  1.00  0.00    -0.387 A  
HETATM   23 CL   UNL     1      -8.141  18.937  66.006  1.00  0.00    -0.232 Cl 
HETATM   24  C   UNL     1     -11.048  17.411  68.302  1.00  0.00    -0.010 A  
ENDBRANCH  13  18
ENDBRANCH   2   4
TORSDOF 2
ENDMDL
MODEL      144
REMARK 921   NORMALIZED FREE ENERGY PREDICTED BY IDOCK:   -2.61 KCAL/MOL
REMARK 922        TOTAL FREE ENERGY PREDICTED BY IDOCK:   -3.12 KCAL/MOL
REMARK 923 INTER-LIGAND FREE ENERGY PREDICTED BY IDOCK:   -3.22 KCAL/MOL
REMARK 924 INTRA-LIGAND FREE ENERGY PREDICTED BY IDOCK:    0.09 KCAL/MOL
REMARK 927      BINDING AFFINITY PREDICTED BY RF-SCORE:    0.00 PKD
ROOT
HETATM    1  C   UNL     1      -7.598  17.301  69.102  1.00  0.00    -0.103 C  
HETATM    2  C   UNL     1      -8.809  16.817  68.314  1.00  0.00    -0.228 C  
HETATM    3  C   UNL     1      -8.567  16.984  66.813  1.00  0.00    -0.266 C  
ENDROOT
BRANCH   2   4
HETATM    4  N   UNL     1      -9.074  15.420  68.605  1.00  0.00    -0.185 NA 
HETATM    5  C   UNL     1     -10.189  14.889  69.166  1.00  0.00    -0.242 C  
HETATM    6  H   UNL     1      -8.335  14.760  68.359  1.00  0.00     0.000 HD 
HETATM    7  N   UNL     1     -10.975  15.507  69.976  1.00  0.00    -0.292 NA 
HETATM    8  N   UNL     1     -10.456  13.596  68.824  1.00  0.00    -0.322 NA 
HETATM    9  H1  UNL     1     -11.814  15.108  70.398  1.00  0.00     0.000 HD 
HETATM   10  H2  UNL     1     -10.741  16.471  70.215  1.00  0.00     0.000 HD 
HETATM   11  C   UNL     1     -10.067  12.819  67.772  1.00  0.00    -0.224 C  
HETATM   12  H   UNL     1     -11.066  13.114  69.484  1.00  0.00     0.000 HD 
HETATM   13  N   UNL     1     -10.217  11.466  67.958  1.00  0.00    -0.180 NA 
HETATM   14  N   UNL     1      -9.556  13.322  66.686  1.00  0.00    -0.257 NA 
HETATM   15  H1  UNL     1      -9.265  12.741  65.900  1.00  0.00     0.000 HD 
HETATM   16  H2  UNL     1      -9.441  14.333  66.619  1.00  0.00     0.000 HD 
HETATM   17  H   UNL     1     -10.993  11.109  68.516  1.00  0.00     0.000 HD 
BRANCH  13  18
HETATM   18  C   UNL     1      -9.288  10.568  67.371  1.00  0.00    -0.142 A  
HETATM   19  C   UNL     1      -7.926  10.894  67.278  1.00  0.00    -0.123 A  
HETATM   20  C   UNL     1      -7.025  10.043  66.637  1.00  0.00    -0.087 A  
HETATM   21  C   UNL     1      -7.479   8.838  66.116  1.00  0.00    -0.090 A  
HETATM   22  C   UNL     1      -8.813   8.458  66.273  1.00  0.00    -0.190 A  
HETATM   23 CL   UNL     1      -6.388   7.821  65.258  1.00  0.00    -0.038 Cl 
HETATM   24  C   UNL     1      -9.714   9.316  66.920  1.00  0.00    -0.248 A  
ENDBRANCH  13  18
ENDBRANCH   2   4
TORSDOF 2
ENDMDL
MODEL      145
REMARK 921   NORMALIZED FREE ENERGY PREDICTED BY IDOCK:   -2.58 KCAL/MOL
REMARK 922        TOTAL FREE ENERGY PREDICTED BY IDOCK:   -3.09 KCAL/MOL
REMARK 923 INTER-LIGAND FREE ENERGY PREDICTED BY IDOCK:   -2.80 KCAL/MOL
REMARK 924 INTRA-LIGAND FREE ENERGY PREDICTED BY IDOCK:   -0.29 KCAL/MOL
REMARK 927      BINDING AFFINITY PREDICTED BY RF-SCORE:    0.00 PKD
ROOT
HETATM    1  C   UNL     1      -8.884   2.274  66.656  1.00  0.00    -0.138 C  
HETATM    2  C   UNL     1      -8.656   3.183  65.455  1.00  0.00    -0.110 C  
HETATM    3  C   UNL     1      -9.951   3.345  64.658  1.00  0.00    -0.117 C  
ENDROOT
BRANCH   2   4
HETATM    4  N   UNL     1      -8.195   4.489  65.893  1.00  0.00    -0.109 NA 
HETATM    5  C   UNL     1      -6.921   4.954  65.904  1.00  0.00    -0.066 C  
HETATM    6  H   UNL     1      -8.913   5.130  66.231  1.00  0.00     0.000 HD 
HETATM    7  N   UNL     1      -5.867   4.224  66.014  1.00  0.00    -0.022 NA 
HETATM    8  N   UNL     1      -6.794   6.309  65.796  1.00  0.00    -0.052 NA 
HETATM    9  H1  UNL     1      -4.909   4.575  66.023  1.00  0.00     0.000 HD 
HETATM   10  H2  UNL     1      -6.001   3.216  66.100  1.00  0.00     0.000 HD 
HETATM   11  C   UNL     1      -7.625   7.280  65.320  1.00  0.00    -0.102 C  
HETATM   12  H   UNL     1      -5.902   6.665  66.138  1.00  0.00     0.000 HD 
HETATM   13  N   UNL     1      -7.319   8.558  65.720  1.00  0.00    -0.079 NA 
HETATM   14  N   UNL     1      -8.655   7.010  64.572  1.00  0.00    -0.333 NA 
HETATM   15  H1  UNL     1      -9.277   7.737  64.216  1.00  0.00     0.000 HD 
HETATM   16  H2  UNL     1      -8.849   6.037  64.333  1.00  0.00     0.000 HD 
HETATM   17  H   UNL     1      -6.347   8.831  65.862  1.00  0.00     0.000 HD 
BRANCH  13  18
HETATM   18  C   UNL     1      -8.363   9.496  65.934  1.00  0.00    -0.120 A  
HETATM   19  C   UNL     1      -9.113   9.486  67.121  1.00  0.00    -0.152 A  
HETATM   20  C   UNL     1     -10.185  10.361  67.300  1.00  0.00    -0.258 A  
HETATM   21  C   UNL     1     -10.489  11.280  66.304  1.00  0.00    -0.258 A  
HETATM   22  C   UNL     1      -9.703  11.362  65.154  1.00  0.00    -0.280 A  
HETATM   23 CL   UNL     1     -11.856  12.308  66.489  1.00  0.00    -0.423 Cl 
HETATM   24  C   UNL     1      -8.625  10.482  64.979  1.00  0.00    -0.184 A  
ENDBRANCH  13  18
ENDBRANCH   2   4
TORSDOF 2
ENDMDL
MODEL      146
REMARK 921   NORMALIZED FREE ENERGY PREDICTED BY IDOCK:   -2.56 KCAL/MOL
REMARK 922        TOTAL FREE ENERGY PREDICTED BY IDOCK:   -3.06 KCAL/MOL
REMARK 923 INTER-LIGAND FREE ENERGY PREDICTED BY IDOCK:   -4.01 KCAL/MOL
REMARK 924 INTRA-LIGAND FREE ENERGY PREDICTED BY IDOCK:    0.94 KCAL/MOL
REMARK 927      BINDING AFFINITY PREDICTED BY RF-SCORE:    0.00 PKD
ROOT
HETATM    1  C   UNL     1     -12.652   8.295  71.581  1.00  0.00    -0.355 C  
HETATM    2  C   UNL     1     -12.745   9.697  70.992  1.00  0.00    -0.271 C  
HETATM    3  C   UNL     1     -13.153  10.701  72.072  1.00  0.00    -0.501 C  
ENDROOT
BRANCH   2   4
HETATM    4  N   UNL     1     -11.466  10.091  70.429  1.00  0.00    -0.292 NA 
HETATM    5  C   UNL     1     -10.755   9.454  69.466  1.00  0.00    -0.222 C  
HETATM    6  H   UNL     1     -11.054  10.947  70.802  1.00  0.00     0.000 HD 
HETATM    7  N   UNL     1     -10.797   8.189  69.230  1.00  0.00    -0.408 NA 
HETATM    8  N   UNL     1      -9.940  10.252  68.718  1.00  0.00    -0.171 NA 
HETATM    9  H1  UNL     1     -10.262   7.710  68.505  1.00  0.00     0.000 HD 
HETATM   10  H2  UNL     1     -11.413   7.623  69.814  1.00  0.00     0.000 HD 
HETATM   11  C   UNL     1      -9.934  11.593  68.469  1.00  0.00    -0.194 C  
HETATM   12  H   UNL     1      -9.186   9.747  68.252  1.00  0.00     0.000 HD 
HETATM   13  N   UNL     1      -8.749  12.092  67.986  1.00  0.00    -0.173 NA 
HETATM   14  N   UNL     1     -10.965  12.351  68.709  1.00  0.00    -0.240 NA 
HETATM   15  H1  UNL     1     -10.960  13.354  68.523  1.00  0.00     0.000 HD 
HETATM   16  H2  UNL     1     -11.807  11.926  69.097  1.00  0.00     0.000 HD 
HETATM   17  H   UNL     1      -8.163  11.522  67.376  1.00  0.00     0.000 HD 
BRANCH  13  18
HETATM   18  C   UNL     1      -8.343  13.406  68.340  1.00  0.00    -0.137 A  
HETATM   19  C   UNL     1      -9.264  14.465  68.372  1.00  0.00    -0.195 A  
HETATM   20  C   UNL     1      -8.851  15.768  68.650  1.00  0.00    -0.199 A  
HETATM   21  C   UNL     1      -7.514  16.014  68.934  1.00  0.00    -0.188 A  
HETATM   22  C   UNL     1      -6.598  14.962  68.989  1.00  0.00    -0.109 A  
HETATM   23 CL   UNL     1      -6.987  17.630  69.201  1.00  0.00    -0.247 Cl 
HETATM   24  C   UNL     1      -7.018  13.653  68.712  1.00  0.00    -0.106 A  
ENDBRANCH  13  18
ENDBRANCH   2   4
TORSDOF 2
ENDMDL
MODEL      147
REMARK 921   NORMALIZED FREE ENERGY PREDICTED BY IDOCK:   -2.54 KCAL/MOL
REMARK 922        TOTAL FREE ENERGY PREDICTED BY IDOCK:   -3.05 KCAL/MOL
REMARK 923 INTER-LIGAND FREE ENERGY PREDICTED BY IDOCK:   -3.46 KCAL/MOL
REMARK 924 INTRA-LIGAND FREE ENERGY PREDICTED BY IDOCK:    0.41 KCAL/MOL
REMARK 927      BINDING AFFINITY PREDICTED BY RF-SCORE:    0.00 PKD
ROOT
HETATM    1  C   UNL     1     -10.996   4.696  74.171  1.00  0.00    -0.157 C  
HETATM    2  C   UNL     1     -10.183   3.660  73.405  1.00  0.00    -0.148 C  
HETATM    3  C   UNL     1     -11.022   2.405  73.157  1.00  0.00    -0.236 C  
ENDROOT
BRANCH   2   4
HETATM    4  N   UNL     1      -9.746   4.204  72.132  1.00  0.00    -0.154 NA 
HETATM    5  C   UNL     1      -9.613   3.545  70.954  1.00  0.00    -0.172 C  
HETATM    6  H   UNL     1      -9.511   5.197  72.122  1.00  0.00     0.000 HD 
HETATM    7  N   UNL     1      -9.362   2.288  70.833  1.00  0.00    -0.127 NA 
HETATM    8  N   UNL     1      -9.757   4.314  69.836  1.00  0.00    -0.213 NA 
HETATM    9  H1  UNL     1      -9.262   1.793  69.946  1.00  0.00     0.000 HD 
HETATM   10  H2  UNL     1      -9.254   1.746  71.691  1.00  0.00     0.000 HD 
HETATM   11  C   UNL     1     -10.356   5.519  69.613  1.00  0.00    -0.289 C  
HETATM   12  H   UNL     1      -9.333   3.908  69.002  1.00  0.00     0.000 HD 
HETATM   13  N   UNL     1      -9.973   6.157  68.459  1.00  0.00    -0.140 NA 
HETATM   14  N   UNL     1     -11.201   6.042  70.453  1.00  0.00    -0.337 NA 
HETATM   15  H1  UNL     1     -11.649   6.943  70.287  1.00  0.00     0.000 HD 
HETATM   16  H2  UNL     1     -11.424   5.533  71.309  1.00  0.00     0.000 HD 
HETATM   17  H   UNL     1      -9.736   5.615  67.628  1.00  0.00     0.000 HD 
BRANCH  13  18
HETATM   18  C   UNL     1      -9.908   7.575  68.429  1.00  0.00    -0.164 A  
HETATM   19  C   UNL     1      -9.060   8.280  69.298  1.00  0.00    -0.151 A  
HETATM   20  C   UNL     1      -9.050   9.675  69.317  1.00  0.00    -0.174 A  
HETATM   21  C   UNL     1      -9.865  10.375  68.436  1.00  0.00    -0.162 A  
HETATM   22  C   UNL     1     -10.652   9.692  67.507  1.00  0.00    -0.339 A  
HETATM   23 CL   UNL     1      -9.913  12.093  68.509  1.00  0.00    -0.203 Cl 
HETATM   24  C   UNL     1     -10.657   8.290  67.490  1.00  0.00    -0.291 A  
ENDBRANCH  13  18
ENDBRANCH   2   4
TORSDOF 2
ENDMDL
MODEL      148
REMARK 921   NORMALIZED FREE ENERGY PREDICTED BY IDOCK:   -2.52 KCAL/MOL
REMARK 922        TOTAL FREE ENERGY PREDICTED BY IDOCK:   -3.03 KCAL/MOL
REMARK 923 INTER-LIGAND FREE ENERGY PREDICTED BY IDOCK:   -2.74 KCAL/MOL
REMARK 924 INTRA-LIGAND FREE ENERGY PREDICTED BY IDOCK:   -0.29 KCAL/MOL
REMARK 927      BINDING AFFINITY PREDICTED BY RF-SCORE:    0.00 PKD
ROOT
HETATM    1  C   UNL     1     -12.193  13.788  68.032  1.00  0.00    -0.179 C  
HETATM    2  C   UNL     1     -10.952  13.981  68.895  1.00  0.00    -0.259 C  
HETATM    3  C   UNL     1     -11.310  13.849  70.377  1.00  0.00     0.058 C  
ENDROOT
BRANCH   2   4
HETATM    4  N   UNL     1      -9.944  12.993  68.555  1.00  0.00    -0.344 NA 
HETATM    5  C   UNL     1      -8.612  13.052  68.805  1.00  0.00     0.161 C  
HETATM    6  H   UNL     1     -10.276  12.158  68.073  1.00  0.00     0.000 HD 
HETATM    7  N   UNL     1      -7.928  14.136  68.919  1.00  0.00    -0.276 NA 
HETATM    8  N   UNL     1      -7.989  11.845  68.931  1.00  0.00    -0.338 NA 
HETATM    9  H1  UNL     1      -6.926  14.180  69.107  1.00  0.00     0.000 HD 
HETATM   10  H2  UNL     1      -8.427  15.020  68.813  1.00  0.00     0.000 HD 
HETATM   11  C   UNL     1      -8.446  10.593  69.220  1.00  0.00    -0.091 C  
HETATM   12  H   UNL     1      -6.981  11.887  68.778  1.00  0.00     0.000 HD 
HETATM   13  N   UNL     1      -7.595   9.568  68.885  1.00  0.00    -0.074 NA 
HETATM   14  N   UNL     1      -9.621  10.384  69.740  1.00  0.00    -0.413 NA 
HETATM   15  H1  UNL     1      -9.963   9.448  69.956  1.00  0.00     0.000 HD 
HETATM   16  H2  UNL     1     -10.221  11.185  69.939  1.00  0.00     0.000 HD 
HETATM   17  H   UNL     1      -6.586   9.700  68.946  1.00  0.00     0.000 HD 
BRANCH  13  18
HETATM   18  C   UNL     1      -8.128   8.325  68.455  1.00  0.00    -0.123 A  
HETATM   19  C   UNL     1      -8.117   7.201  69.297  1.00  0.00    -0.120 A  
HETATM   20  C   UNL     1      -8.575   5.963  68.848  1.00  0.00    -0.110 A  
HETATM   21  C   UNL     1      -9.083   5.849  67.560  1.00  0.00    -0.106 A  
HETATM   22  C   UNL     1      -9.180   6.972  66.737  1.00  0.00    -0.181 A  
HETATM   23 CL   UNL     1      -9.577   4.308  66.977  1.00  0.00    -0.211 Cl 
HETATM   24  C   UNL     1      -8.721   8.216  67.194  1.00  0.00    -0.130 A  
ENDBRANCH  13  18
ENDBRANCH   2   4
TORSDOF 2
ENDMDL
MODEL      149
REMARK 921   NORMALIZED FREE ENERGY PREDICTED BY IDOCK:   -2.48 KCAL/MOL
REMARK 922        TOTAL FREE ENERGY PREDICTED BY IDOCK:   -2.98 KCAL/MOL
REMARK 923 INTER-LIGAND FREE ENERGY PREDICTED BY IDOCK:   -4.14 KCAL/MOL
REMARK 924 INTRA-LIGAND FREE ENERGY PREDICTED BY IDOCK:    1.17 KCAL/MOL
REMARK 927      BINDING AFFINITY PREDICTED BY RF-SCORE:    0.00 PKD
ROOT
HETATM    1  C   UNL     1      -5.251  13.375  71.761  1.00  0.00    -0.168 C  
HETATM    2  C   UNL     1      -6.024  14.091  70.661  1.00  0.00    -0.186 C  
HETATM    3  C   UNL     1      -5.164  15.192  70.037  1.00  0.00    -0.105 C  
ENDROOT
BRANCH   2   4
HETATM    4  N   UNL     1      -6.420  13.149  69.629  1.00  0.00    -0.266 NA 
HETATM    5  C   UNL     1      -6.242  11.804  69.626  1.00  0.00    -0.128 C  
HETATM    6  H   UNL     1      -6.885  13.544  68.812  1.00  0.00     0.000 HD 
HETATM    7  N   UNL     1      -5.297  11.181  70.240  1.00  0.00    -0.081 NA 
HETATM    8  N   UNL     1      -7.152  11.097  68.897  1.00  0.00    -0.092 NA 
HETATM    9  H1  UNL     1      -5.164  10.170  70.237  1.00  0.00     0.000 HD 
HETATM   10  H2  UNL     1      -4.631  11.743  70.770  1.00  0.00     0.000 HD 
HETATM   11  C   UNL     1      -8.412  11.386  68.459  1.00  0.00    -0.152 C  
HETATM   12  H   UNL     1      -6.828  10.169  68.625  1.00  0.00     0.000 HD 
HETATM   13  N   UNL     1      -8.872  10.592  67.437  1.00  0.00    -0.132 NA 
HETATM   14  N   UNL     1      -9.111  12.368  68.949  1.00  0.00    -0.366 NA 
HETATM   15  H1  UNL     1     -10.053  12.584  68.622  1.00  0.00     0.000 HD 
HETATM   16  H2  UNL     1      -8.703  12.942  69.687  1.00  0.00     0.000 HD 
HETATM   17  H   UNL     1      -8.594   9.612  67.386  1.00  0.00     0.000 HD 
BRANCH  13  18
HETATM   18  C   UNL     1      -9.734  11.142  66.454  1.00  0.00    -0.204 A  
HETATM   19  C   UNL     1      -9.402  11.096  65.091  1.00  0.00    -0.237 A  
HETATM   20  C   UNL     1     -10.216  11.700  64.132  1.00  0.00    -0.372 A  
HETATM   21  C   UNL     1     -11.391  12.324  64.530  1.00  0.00    -0.329 A  
HETATM   22  C   UNL     1     -11.781  12.307  65.870  1.00  0.00    -0.451 A  
HETATM   23 CL   UNL     1     -12.358  13.136  63.361  1.00  0.00    -0.534 Cl 
HETATM   24  C   UNL     1     -10.961  11.697  66.830  1.00  0.00    -0.342 A  
ENDBRANCH  13  18
ENDBRANCH   2   4
TORSDOF 2
ENDMDL
MODEL      150
REMARK 921   NORMALIZED FREE ENERGY PREDICTED BY IDOCK:   -2.47 KCAL/MOL
REMARK 922        TOTAL FREE ENERGY PREDICTED BY IDOCK:   -2.97 KCAL/MOL
REMARK 923 INTER-LIGAND FREE ENERGY PREDICTED BY IDOCK:   -3.32 KCAL/MOL
REMARK 924 INTRA-LIGAND FREE ENERGY PREDICTED BY IDOCK:    0.34 KCAL/MOL
REMARK 927      BINDING AFFINITY PREDICTED BY RF-SCORE:    0.00 PKD
ROOT
HETATM    1  C   UNL     1      -5.474  13.896  70.929  1.00  0.00    -0.170 C  
HETATM    2  C   UNL     1      -6.179  15.042  70.215  1.00  0.00    -0.132 C  
HETATM    3  C   UNL     1      -5.176  15.851  69.390  1.00  0.00    -0.111 C  
ENDROOT
BRANCH   2   4
HETATM    4  N   UNL     1      -7.217  14.528  69.340  1.00  0.00    -0.231 NA 
HETATM    5  C   UNL     1      -7.583  15.004  68.124  1.00  0.00    -0.111 C  
HETATM    6  H   UNL     1      -7.730  13.714  69.679  1.00  0.00     0.000 HD 
HETATM    7  N   UNL     1      -7.462  16.226  67.741  1.00  0.00    -0.129 NA 
HETATM    8  N   UNL     1      -8.125  14.083  67.275  1.00  0.00    -0.277 NA 
HETATM    9  H1  UNL     1      -7.737  16.584  66.826  1.00  0.00     0.000 HD 
HETATM   10  H2  UNL     1      -7.058  16.889  68.404  1.00  0.00     0.000 HD 
HETATM   11  C   UNL     1      -8.060  12.721  67.225  1.00  0.00    -0.172 C  
HETATM   12  H   UNL     1      -8.690  14.492  66.532  1.00  0.00     0.000 HD 
HETATM   13  N   UNL     1      -9.034  12.117  66.469  1.00  0.00    -0.277 NA 
HETATM   14  N   UNL     1      -7.162  12.042  67.879  1.00  0.00    -0.093 NA 
HETATM   15  H1  UNL     1      -7.114  11.024  67.841  1.00  0.00     0.000 HD 
HETATM   16  H2  UNL     1      -6.483  12.546  68.449  1.00  0.00     0.000 HD 
HETATM   17  H   UNL     1      -9.394  12.579  65.634  1.00  0.00     0.000 HD 
BRANCH  13  18
HETATM   18  C   UNL     1      -9.539  10.848  66.856  1.00  0.00    -0.178 A  
HETATM   19  C   UNL     1     -10.392  10.714  67.962  1.00  0.00    -0.208 A  
HETATM   20  C   UNL     1     -10.829   9.458  68.384  1.00  0.00    -0.156 A  
HETATM   21  C   UNL     1     -10.443   8.328  67.676  1.00  0.00    -0.235 A  
HETATM   22  C   UNL     1      -9.663   8.448  66.524  1.00  0.00    -0.330 A  
HETATM   23 CL   UNL     1     -10.916   6.772  68.238  1.00  0.00    -0.283 Cl 
HETATM   24  C   UNL     1      -9.228   9.712  66.102  1.00  0.00    -0.222 A  
ENDBRANCH  13  18
ENDBRANCH   2   4
TORSDOF 2
ENDMDL
MODEL      151
REMARK 921   NORMALIZED FREE ENERGY PREDICTED BY IDOCK:   -2.44 KCAL/MOL
REMARK 922        TOTAL FREE ENERGY PREDICTED BY IDOCK:   -2.93 KCAL/MOL
REMARK 923 INTER-LIGAND FREE ENERGY PREDICTED BY IDOCK:   -3.89 KCAL/MOL
REMARK 924 INTRA-LIGAND FREE ENERGY PREDICTED BY IDOCK:    0.96 KCAL/MOL
REMARK 927      BINDING AFFINITY PREDICTED BY RF-SCORE:    0.00 PKD
ROOT
HETATM    1  C   UNL     1     -14.146  13.479  72.085  1.00  0.00    -0.506 C  
HETATM    2  C   UNL     1     -14.217  14.639  71.100  1.00  0.00    -0.161 C  
HETATM    3  C   UNL     1     -14.381  15.963  71.850  1.00  0.00     0.033 C  
ENDROOT
BRANCH   2   4
HETATM    4  N   UNL     1     -13.009  14.691  70.296  1.00  0.00    -0.566 NA 
HETATM    5  C   UNL     1     -11.862  15.362  70.568  1.00  0.00    -0.339 C  
HETATM    6  H   UNL     1     -13.025  14.160  69.425  1.00  0.00     0.000 HD 
HETATM    7  N   UNL     1     -11.783  16.433  71.278  1.00  0.00    -0.639 NA 
HETATM    8  N   UNL     1     -10.731  14.831  70.021  1.00  0.00    -0.460 NA 
HETATM    9  H1  UNL     1     -10.920  16.938  71.482  1.00  0.00     0.000 HD 
HETATM   10  H2  UNL     1     -12.650  16.806  71.665  1.00  0.00     0.000 HD 
HETATM   11  C   UNL     1     -10.424  13.584  69.561  1.00  0.00     0.392 C  
HETATM   12  H   UNL     1      -9.963  15.497  69.941  1.00  0.00     0.000 HD 
HETATM   13  N   UNL     1      -9.328  13.520  68.736  1.00  0.00    -0.399 NA 
HETATM   14  N   UNL     1     -11.142  12.538  69.851  1.00  0.00    -0.420 NA 
HETATM   15  H1  UNL     1     -10.913  11.606  69.506  1.00  0.00     0.000 HD 
HETATM   16  H2  UNL     1     -11.964  12.655  70.444  1.00  0.00     0.000 HD 
HETATM   17  H   UNL     1      -8.539  14.148  68.883  1.00  0.00     0.000 HD 
BRANCH  13  18
HETATM   18  C   UNL     1      -9.298  12.574  67.679  1.00  0.00    -0.189 A  
HETATM   19  C   UNL     1      -9.242  12.986  66.338  1.00  0.00    -0.141 A  
HETATM   20  C   UNL     1      -9.286  12.058  65.298  1.00  0.00     0.150 A  
HETATM   21  C   UNL     1      -9.349  10.703  65.595  1.00  0.00    -0.201 A  
HETATM   22  C   UNL     1      -9.321  10.268  66.921  1.00  0.00    -0.183 A  
HETATM   23 CL   UNL     1      -9.481   9.560  64.316  1.00  0.00    -0.103 Cl 
HETATM   24  C   UNL     1      -9.275  11.205  67.964  1.00  0.00    -0.159 A  
ENDBRANCH  13  18
ENDBRANCH   2   4
TORSDOF 2
ENDMDL
MODEL      152
REMARK 921   NORMALIZED FREE ENERGY PREDICTED BY IDOCK:   -2.39 KCAL/MOL
REMARK 922        TOTAL FREE ENERGY PREDICTED BY IDOCK:   -2.88 KCAL/MOL
REMARK 923 INTER-LIGAND FREE ENERGY PREDICTED BY IDOCK:   -3.71 KCAL/MOL
REMARK 924 INTRA-LIGAND FREE ENERGY PREDICTED BY IDOCK:    0.83 KCAL/MOL
REMARK 927      BINDING AFFINITY PREDICTED BY RF-SCORE:    0.00 PKD
ROOT
HETATM    1  C   UNL     1      -7.117  15.862  67.248  1.00  0.00    -0.242 C  
HETATM    2  C   UNL     1      -7.768  15.402  68.547  1.00  0.00    -0.132 C  
HETATM    3  C   UNL     1      -8.777  16.444  69.033  1.00  0.00    -0.233 C  
ENDROOT
BRANCH   2   4
HETATM    4  N   UNL     1      -8.446  14.134  68.347  1.00  0.00    -0.167 NA 
HETATM    5  C   UNL     1      -9.752  13.850  68.579  1.00  0.00    -0.202 C  
HETATM    6  H   UNL     1      -7.874  13.367  67.992  1.00  0.00     0.000 HD 
HETATM    7  N   UNL     1     -10.495  14.442  69.447  1.00  0.00    -0.419 NA 
HETATM    8  N   UNL     1     -10.275  12.847  67.816  1.00  0.00    -0.219 NA 
HETATM    9  H1  UNL     1     -11.478  14.229  69.620  1.00  0.00     0.000 HD 
HETATM   10  H2  UNL     1     -10.069  15.183  70.004  1.00  0.00     0.000 HD 
HETATM   11  C   UNL     1      -9.899  12.299  66.625  1.00  0.00    -0.220 C  
HETATM   12  H   UNL     1     -11.113  12.423  68.215  1.00  0.00     0.000 HD 
HETATM   13  N   UNL     1     -10.437  11.064  66.355  1.00  0.00    -0.254 NA 
HETATM   14  N   UNL     1      -9.062  12.888  65.821  1.00  0.00    -0.349 NA 
HETATM   15  H1  UNL     1      -8.781  12.478  64.930  1.00  0.00     0.000 HD 
HETATM   16  H2  UNL     1      -8.673  13.791  66.091  1.00  0.00     0.000 HD 
HETATM   17  H   UNL     1     -11.376  10.833  66.677  1.00  0.00     0.000 HD 
BRANCH  13  18
HETATM   18  C   UNL     1      -9.678  10.112  65.625  1.00  0.00    -0.259 A  
HETATM   19  C   UNL     1      -9.551  10.201  64.230  1.00  0.00    -0.354 A  
HETATM   20  C   UNL     1      -8.865   9.225  63.507  1.00  0.00    -0.145 A  
HETATM   21  C   UNL     1      -8.268   8.169  64.183  1.00  0.00    -0.080 A  
HETATM   22  C   UNL     1      -8.311   8.107  65.576  1.00  0.00    -0.160 A  
HETATM   23 CL   UNL     1      -7.488   6.923  63.289  1.00  0.00    -0.080 Cl 
HETATM   24  C   UNL     1      -9.000   9.092  66.300  1.00  0.00    -0.194 A  
ENDBRANCH  13  18
ENDBRANCH   2   4
TORSDOF 2
ENDMDL
MODEL      153
REMARK 921   NORMALIZED FREE ENERGY PREDICTED BY IDOCK:   -2.38 KCAL/MOL
REMARK 922        TOTAL FREE ENERGY PREDICTED BY IDOCK:   -2.87 KCAL/MOL
REMARK 923 INTER-LIGAND FREE ENERGY PREDICTED BY IDOCK:   -2.60 KCAL/MOL
REMARK 924 INTRA-LIGAND FREE ENERGY PREDICTED BY IDOCK:   -0.27 KCAL/MOL
REMARK 927      BINDING AFFINITY PREDICTED BY RF-SCORE:    0.00 PKD
ROOT
HETATM    1  C   UNL     1     -10.207   5.842  72.215  1.00  0.00    -0.233 C  
HETATM    2  C   UNL     1     -10.921   5.480  70.918  1.00  0.00    -0.124 C  
HETATM    3  C   UNL     1     -11.665   6.697  70.364  1.00  0.00    -0.446 C  
ENDROOT
BRANCH   2   4
HETATM    4  N   UNL     1      -9.964   5.013  69.931  1.00  0.00    -0.231 NA 
HETATM    5  C   UNL     1      -9.592   3.732  69.682  1.00  0.00    -0.172 C  
HETATM    6  H   UNL     1      -9.520   5.731  69.358  1.00  0.00     0.000 HD 
HETATM    7  N   UNL     1      -9.608   2.777  70.544  1.00  0.00    -0.129 NA 
HETATM    8  N   UNL     1      -9.166   3.485  68.410  1.00  0.00    -0.153 NA 
HETATM    9  H1  UNL     1      -9.328   1.813  70.356  1.00  0.00     0.000 HD 
HETATM   10  H2  UNL     1      -9.927   3.000  71.487  1.00  0.00     0.000 HD 
HETATM   11  C   UNL     1      -9.361   4.136  67.227  1.00  0.00    -0.176 C  
HETATM   12  H   UNL     1      -8.587   2.649  68.326  1.00  0.00     0.000 HD 
HETATM   13  N   UNL     1      -8.472   3.815  66.230  1.00  0.00    -0.108 NA 
HETATM   14  N   UNL     1     -10.298   5.024  67.067  1.00  0.00    -0.211 NA 
HETATM   15  H1  UNL     1     -10.444   5.511  66.182  1.00  0.00     0.000 HD 
HETATM   16  H2  UNL     1     -10.909   5.242  67.854  1.00  0.00     0.000 HD 
HETATM   17  H   UNL     1      -8.096   2.869  66.164  1.00  0.00     0.000 HD 
BRANCH  13  18
HETATM   18  C   UNL     1      -8.078   4.806  65.294  1.00  0.00    -0.105 A  
HETATM   19  C   UNL     1      -7.178   5.823  65.649  1.00  0.00    -0.075 A  
HETATM   20  C   UNL     1      -6.848   6.837  64.751  1.00  0.00    -0.050 A  
HETATM   21  C   UNL     1      -7.390   6.819  63.472  1.00  0.00    -0.073 A  
HETATM   22  C   UNL     1      -8.221   5.771  63.072  1.00  0.00    -0.084 A  
HETATM   23 CL   UNL     1      -7.046   8.109  62.387  1.00  0.00    -0.089 Cl 
HETATM   24  C   UNL     1      -8.548   4.752  63.978  1.00  0.00    -0.137 A  
ENDBRANCH  13  18
ENDBRANCH   2   4
TORSDOF 2
ENDMDL
MODEL      154
REMARK 921   NORMALIZED FREE ENERGY PREDICTED BY IDOCK:   -2.34 KCAL/MOL
REMARK 922        TOTAL FREE ENERGY PREDICTED BY IDOCK:   -2.83 KCAL/MOL
REMARK 923 INTER-LIGAND FREE ENERGY PREDICTED BY IDOCK:   -3.14 KCAL/MOL
REMARK 924 INTRA-LIGAND FREE ENERGY PREDICTED BY IDOCK:    0.31 KCAL/MOL
REMARK 927      BINDING AFFINITY PREDICTED BY RF-SCORE:    0.00 PKD
ROOT
HETATM    1  C   UNL     1      -5.572   8.338  65.044  1.00  0.00    -0.044 C  
HETATM    2  C   UNL     1      -6.939   8.915  64.699  1.00  0.00    -0.084 C  
HETATM    3  C   UNL     1      -7.391   8.423  63.323  1.00  0.00    -0.104 C  
ENDROOT
BRANCH   2   4
HETATM    4  N   UNL     1      -7.919   8.519  65.695  1.00  0.00    -0.101 NA 
HETATM    5  C   UNL     1      -9.261   8.711  65.656  1.00  0.00    -0.139 C  
HETATM    6  H   UNL     1      -7.555   8.042  66.520  1.00  0.00     0.000 HD 
HETATM    7  N   UNL     1      -9.854   9.667  65.031  1.00  0.00    -0.434 NA 
HETATM    8  N   UNL     1     -10.001   7.800  66.353  1.00  0.00    -0.458 NA 
HETATM    9  H1  UNL     1     -10.864   9.811  65.002  1.00  0.00     0.000 HD 
HETATM   10  H2  UNL     1      -9.268  10.333  64.526  1.00  0.00     0.000 HD 
HETATM   11  C   UNL     1      -9.739   6.534  66.787  1.00  0.00    -0.164 C  
HETATM   12  H   UNL     1     -10.934   8.131  66.597  1.00  0.00     0.000 HD 
HETATM   13  N   UNL     1     -10.571   6.072  67.777  1.00  0.00    -0.239 NA 
HETATM   14  N   UNL     1      -8.748   5.829  66.322  1.00  0.00    -0.129 NA 
HETATM   15  H1  UNL     1      -8.552   4.883  66.647  1.00  0.00     0.000 HD 
HETATM   16  H2  UNL     1      -8.145   6.239  65.608  1.00  0.00     0.000 HD 
HETATM   17  H   UNL     1     -11.549   6.359  67.799  1.00  0.00     0.000 HD 
BRANCH  13  18
HETATM   18  C   UNL     1     -10.062   5.194  68.770  1.00  0.00    -0.161 A  
HETATM   19  C   UNL     1      -9.592   3.915  68.434  1.00  0.00    -0.179 A  
HETATM   20  C   UNL     1      -9.159   3.027  69.419  1.00  0.00    -0.198 A  
HETATM   21  C   UNL     1      -9.160   3.429  70.748  1.00  0.00    -0.113 A  
HETATM   22  C   UNL     1      -9.544   4.726  71.094  1.00  0.00    -0.235 A  
HETATM   23 CL   UNL     1      -8.700   2.311  71.973  1.00  0.00    -0.089 Cl 
HETATM   24  C   UNL     1      -9.976   5.616  70.100  1.00  0.00    -0.270 A  
ENDBRANCH  13  18
ENDBRANCH   2   4
TORSDOF 2
ENDMDL
MODEL      155
REMARK 921   NORMALIZED FREE ENERGY PREDICTED BY IDOCK:   -2.32 KCAL/MOL
REMARK 922        TOTAL FREE ENERGY PREDICTED BY IDOCK:   -2.80 KCAL/MOL
REMARK 923 INTER-LIGAND FREE ENERGY PREDICTED BY IDOCK:   -2.85 KCAL/MOL
REMARK 924 INTRA-LIGAND FREE ENERGY PREDICTED BY IDOCK:    0.04 KCAL/MOL
REMARK 927      BINDING AFFINITY PREDICTED BY RF-SCORE:    0.00 PKD
ROOT
HETATM    1  C   UNL     1     -10.864   8.681  72.533  1.00  0.00    -0.210 C  
HETATM    2  C   UNL     1     -10.115   8.105  71.338  1.00  0.00    -0.198 C  
HETATM    3  C   UNL     1     -11.093   7.767  70.211  1.00  0.00    -0.242 C  
ENDROOT
BRANCH   2   4
HETATM    4  N   UNL     1      -9.134   9.059  70.852  1.00  0.00    -0.231 NA 
HETATM    5  C   UNL     1      -7.961   8.791  70.226  1.00  0.00    -0.106 C  
HETATM    6  H   UNL     1      -9.353  10.045  70.997  1.00  0.00     0.000 HD 
HETATM    7  N   UNL     1      -7.268   7.718  70.382  1.00  0.00    -0.057 NA 
HETATM    8  N   UNL     1      -7.513   9.766  69.383  1.00  0.00    -0.089 NA 
HETATM    9  H1  UNL     1      -6.385   7.517  69.911  1.00  0.00     0.000 HD 
HETATM   10  H2  UNL     1      -7.630   7.013  71.025  1.00  0.00     0.000 HD 
HETATM   11  C   UNL     1      -8.140  10.794  68.743  1.00  0.00    -0.143 C  
HETATM   12  H   UNL     1      -6.512   9.717  69.194  1.00  0.00     0.000 HD 
HETATM   13  N   UNL     1      -7.312  11.791  68.288  1.00  0.00    -0.088 NA 
HETATM   14  N   UNL     1      -9.434  10.845  68.607  1.00  0.00    -0.184 NA 
HETATM   15  H1  UNL     1      -9.903  11.614  68.129  1.00  0.00     0.000 HD 
HETATM   16  H2  UNL     1      -9.999  10.088  68.994  1.00  0.00     0.000 HD 
HETATM   17  H   UNL     1      -6.373  11.567  67.961  1.00  0.00     0.000 HD 
BRANCH  13  18
HETATM   18  C   UNL     1      -7.770  13.135  68.277  1.00  0.00    -0.141 A  
HETATM   19  C   UNL     1      -7.204  14.101  69.124  1.00  0.00    -0.086 A  
HETATM   20  C   UNL     1      -7.703  15.403  69.163  1.00  0.00    -0.207 A  
HETATM   21  C   UNL     1      -8.751  15.757  68.325  1.00  0.00    -0.172 A  
HETATM   22  C   UNL     1      -9.272  14.835  67.416  1.00  0.00    -0.200 A  
HETATM   23 CL   UNL     1      -9.420  17.339  68.425  1.00  0.00    -0.274 Cl 
HETATM   24  C   UNL     1      -8.766  13.527  67.378  1.00  0.00    -0.220 A  
ENDBRANCH  13  18
ENDBRANCH   2   4
TORSDOF 2
ENDMDL
MODEL      156
REMARK 921   NORMALIZED FREE ENERGY PREDICTED BY IDOCK:   -2.31 KCAL/MOL
REMARK 922        TOTAL FREE ENERGY PREDICTED BY IDOCK:   -2.79 KCAL/MOL
REMARK 923 INTER-LIGAND FREE ENERGY PREDICTED BY IDOCK:   -3.41 KCAL/MOL
REMARK 924 INTRA-LIGAND FREE ENERGY PREDICTED BY IDOCK:    0.62 KCAL/MOL
REMARK 927      BINDING AFFINITY PREDICTED BY RF-SCORE:    0.00 PKD
ROOT
HETATM    1  C   UNL     1      -5.128  14.498  71.992  1.00  0.00    -0.181 C  
HETATM    2  C   UNL     1      -6.018  14.585  70.758  1.00  0.00    -0.173 C  
HETATM    3  C   UNL     1      -5.463  15.617  69.775  1.00  0.00    -0.118 C  
ENDROOT
BRANCH   2   4
HETATM    4  N   UNL     1      -6.096  13.291  70.103  1.00  0.00    -0.272 NA 
HETATM    5  C   UNL     1      -6.030  12.066  70.682  1.00  0.00     0.034 C  
HETATM    6  H   UNL     1      -6.214  13.306  69.090  1.00  0.00     0.000 HD 
HETATM    7  N   UNL     1      -5.410  11.798  71.777  1.00  0.00    -0.355 NA 
HETATM    8  N   UNL     1      -6.677  11.069  70.012  1.00  0.00    -0.266 NA 
HETATM    9  H1  UNL     1      -5.361  10.877  72.212  1.00  0.00     0.000 HD 
HETATM   10  H2  UNL     1      -4.932  12.568  72.247  1.00  0.00     0.000 HD 
HETATM   11  C   UNL     1      -7.677  11.076  69.085  1.00  0.00    -0.102 C  
HETATM   12  H   UNL     1      -6.349  10.134  70.252  1.00  0.00     0.000 HD 
HETATM   13  N   UNL     1      -7.808   9.918  68.358  1.00  0.00    -0.084 NA 
HETATM   14  N   UNL     1      -8.428  12.119  68.878  1.00  0.00    -0.361 NA 
HETATM   15  H1  UNL     1      -9.176  12.124  68.184  1.00  0.00     0.000 HD 
HETATM   16  H2  UNL     1      -8.263  12.961  69.429  1.00  0.00     0.000 HD 
HETATM   17  H   UNL     1      -7.604   9.017  68.789  1.00  0.00     0.000 HD 
BRANCH  13  18
HETATM   18  C   UNL     1      -8.227   9.982  67.003  1.00  0.00    -0.117 A  
HETATM   19  C   UNL     1      -7.297  10.134  65.963  1.00  0.00    -0.118 A  
HETATM   20  C   UNL     1      -7.714  10.269  64.639  1.00  0.00    -0.114 A  
HETATM   21  C   UNL     1      -9.070  10.215  64.343  1.00  0.00    -0.245 A  
HETATM   22  C   UNL     1     -10.005   9.980  65.352  1.00  0.00    -0.364 A  
HETATM   23 CL   UNL     1      -9.594  10.457  62.722  1.00  0.00    -0.339 Cl 
HETATM   24  C   UNL     1      -9.580   9.843  66.682  1.00  0.00    -0.235 A  
ENDBRANCH  13  18
ENDBRANCH   2   4
TORSDOF 2
ENDMDL
MODEL      157
REMARK 921   NORMALIZED FREE ENERGY PREDICTED BY IDOCK:   -2.27 KCAL/MOL
REMARK 922        TOTAL FREE ENERGY PREDICTED BY IDOCK:   -2.74 KCAL/MOL
REMARK 923 INTER-LIGAND FREE ENERGY PREDICTED BY IDOCK:   -3.57 KCAL/MOL
REMARK 924 INTRA-LIGAND FREE ENERGY PREDICTED BY IDOCK:    0.83 KCAL/MOL
REMARK 927      BINDING AFFINITY PREDICTED BY RF-SCORE:    0.00 PKD
ROOT
HETATM    1  C   UNL     1     -11.031  11.482  64.038  1.00  0.00    -0.454 C  
HETATM    2  C   UNL     1     -10.575  12.735  64.776  1.00  0.00    -0.327 C  
HETATM    3  C   UNL     1     -11.763  13.404  65.471  1.00  0.00    -0.366 C  
ENDROOT
BRANCH   2   4
HETATM    4  N   UNL     1      -9.569  12.396  65.767  1.00  0.00    -0.395 NA 
HETATM    5  C   UNL     1      -8.990  13.223  66.673  1.00  0.00    -0.126 C  
HETATM    6  H   UNL     1      -9.261  11.424  65.783  1.00  0.00     0.000 HD 
HETATM    7  N   UNL     1      -8.832  14.492  66.521  1.00  0.00    -0.454 NA 
HETATM    8  N   UNL     1      -8.548  12.621  67.814  1.00  0.00    -0.167 NA 
HETATM    9  H1  UNL     1      -8.396  15.114  67.203  1.00  0.00     0.000 HD 
HETATM   10  H2  UNL     1      -9.168  14.907  65.652  1.00  0.00     0.000 HD 
HETATM   11  C   UNL     1      -8.869  11.442  68.421  1.00  0.00    -0.167 C  
HETATM   12  H   UNL     1      -7.839  13.158  68.313  1.00  0.00     0.000 HD 
HETATM   13  N   UNL     1      -7.954  10.991  69.341  1.00  0.00    -0.368 NA 
HETATM   14  N   UNL     1      -9.945  10.775  68.121  1.00  0.00    -0.157 NA 
HETATM   15  H1  UNL     1     -10.185   9.893  68.575  1.00  0.00     0.000 HD 
HETATM   16  H2  UNL     1     -10.572  11.146  67.407  1.00  0.00     0.000 HD 
HETATM   17  H   UNL     1      -7.426  11.655  69.906  1.00  0.00     0.000 HD 
BRANCH  13  18
HETATM   18  C   UNL     1      -7.748   9.596  69.501  1.00  0.00    -0.109 A  
HETATM   19  C   UNL     1      -6.759   9.104  70.368  1.00  0.00    -0.058 A  
HETATM   20  C   UNL     1      -6.510   7.735  70.470  1.00  0.00    -0.038 A  
HETATM   21  C   UNL     1      -7.276   6.845  69.730  1.00  0.00    -0.079 A  
HETATM   22  C   UNL     1      -8.319   7.308  68.927  1.00  0.00    -0.126 A  
HETATM   23 CL   UNL     1      -6.921   5.162  69.794  1.00  0.00    -0.052 Cl 
HETATM   24  C   UNL     1      -8.569   8.685  68.829  1.00  0.00    -0.130 A  
ENDBRANCH  13  18
ENDBRANCH   2   4
TORSDOF 2
ENDMDL
MODEL      158
REMARK 921   NORMALIZED FREE ENERGY PREDICTED BY IDOCK:   -2.21 KCAL/MOL
REMARK 922        TOTAL FREE ENERGY PREDICTED BY IDOCK:   -2.68 KCAL/MOL
REMARK 923 INTER-LIGAND FREE ENERGY PREDICTED BY IDOCK:   -2.49 KCAL/MOL
REMARK 924 INTRA-LIGAND FREE ENERGY PREDICTED BY IDOCK:   -0.19 KCAL/MOL
REMARK 927      BINDING AFFINITY PREDICTED BY RF-SCORE:    0.00 PKD
ROOT
HETATM    1  C   UNL     1      -7.415   4.832  64.839  1.00  0.00    -0.076 C  
HETATM    2  C   UNL     1      -7.343   4.661  66.351  1.00  0.00    -0.081 C  
HETATM    3  C   UNL     1      -5.903   4.835  66.837  1.00  0.00    -0.026 C  
ENDROOT
BRANCH   2   4
HETATM    4  N   UNL     1      -8.192   5.638  67.009  1.00  0.00    -0.102 NA 
HETATM    5  C   UNL     1      -8.693   5.583  68.269  1.00  0.00    -0.098 C  
HETATM    6  H   UNL     1      -8.441   6.461  66.460  1.00  0.00     0.000 HD 
HETATM    7  N   UNL     1      -8.939   4.501  68.920  1.00  0.00    -0.104 NA 
HETATM    8  N   UNL     1      -8.948   6.791  68.848  1.00  0.00    -0.131 NA 
HETATM    9  H1  UNL     1      -9.315   4.460  69.868  1.00  0.00     0.000 HD 
HETATM   10  H2  UNL     1      -8.741   3.615  68.453  1.00  0.00     0.000 HD 
HETATM   11  C   UNL     1      -8.488   8.051  68.602  1.00  0.00    -0.128 C  
HETATM   12  H   UNL     1      -9.616   6.744  69.618  1.00  0.00     0.000 HD 
HETATM   13  N   UNL     1      -9.249   9.065  69.129  1.00  0.00    -0.143 NA 
HETATM   14  N   UNL     1      -7.424   8.276  67.886  1.00  0.00    -0.096 NA 
HETATM   15  H1  UNL     1      -7.080   9.218  67.701  1.00  0.00     0.000 HD 
HETATM   16  H2  UNL     1      -6.917   7.482  67.495  1.00  0.00     0.000 HD 
HETATM   17  H   UNL     1      -9.735   8.933  70.015  1.00  0.00     0.000 HD 
BRANCH  13  18
HETATM   18  C   UNL     1      -9.356  10.298  68.434  1.00  0.00    -0.143 A  
HETATM   19  C   UNL     1     -10.436  10.556  67.576  1.00  0.00    -0.284 A  
HETATM   20  C   UNL     1     -10.503  11.738  66.839  1.00  0.00    -0.256 A  
HETATM   21  C   UNL     1      -9.503  12.690  66.985  1.00  0.00    -0.220 A  
HETATM   22  C   UNL     1      -8.464  12.490  67.895  1.00  0.00    -0.171 A  
HETATM   23 CL   UNL     1      -9.541  14.115  66.021  1.00  0.00    -0.287 Cl 
HETATM   24  C   UNL     1      -8.402  11.300  68.636  1.00  0.00    -0.146 A  
ENDBRANCH  13  18
ENDBRANCH   2   4
TORSDOF 2
ENDMDL
MODEL      159
REMARK 921   NORMALIZED FREE ENERGY PREDICTED BY IDOCK:   -2.16 KCAL/MOL
REMARK 922        TOTAL FREE ENERGY PREDICTED BY IDOCK:   -2.62 KCAL/MOL
REMARK 923 INTER-LIGAND FREE ENERGY PREDICTED BY IDOCK:   -2.39 KCAL/MOL
REMARK 924 INTRA-LIGAND FREE ENERGY PREDICTED BY IDOCK:   -0.23 KCAL/MOL
REMARK 927      BINDING AFFINITY PREDICTED BY RF-SCORE:    0.00 PKD
ROOT
HETATM    1  C   UNL     1     -13.146  13.912  65.422  1.00  0.00    -0.236 C  
HETATM    2  C   UNL     1     -11.945  14.477  66.170  1.00  0.00    -0.312 C  
HETATM    3  C   UNL     1     -12.126  14.296  67.678  1.00  0.00    -0.332 C  
ENDROOT
BRANCH   2   4
HETATM    4  N   UNL     1     -10.729  13.805  65.749  1.00  0.00    -0.276 NA 
HETATM    5  C   UNL     1      -9.460  14.065  66.150  1.00  0.00    -0.185 C  
HETATM    6  H   UNL     1     -10.842  13.049  65.073  1.00  0.00     0.000 HD 
HETATM    7  N   UNL     1      -9.032  15.209  66.556  1.00  0.00    -0.297 NA 
HETATM    8  N   UNL     1      -8.601  13.006  66.095  1.00  0.00    -0.161 NA 
HETATM    9  H1  UNL     1      -8.077  15.405  66.858  1.00  0.00     0.000 HD 
HETATM   10  H2  UNL     1      -9.701  15.980  66.578  1.00  0.00     0.000 HD 
HETATM   11  C   UNL     1      -8.798  11.657  66.072  1.00  0.00    -0.105 C  
HETATM   12  H   UNL     1      -7.618  13.276  66.066  1.00  0.00     0.000 HD 
HETATM   13  N   UNL     1      -7.728  10.918  65.631  1.00  0.00    -0.340 NA 
HETATM   14  N   UNL     1      -9.932  11.113  66.407  1.00  0.00    -0.210 NA 
HETATM   15  H1  UNL     1     -10.080  10.103  66.389  1.00  0.00     0.000 HD 
HETATM   16  H2  UNL     1     -10.701  11.717  66.697  1.00  0.00     0.000 HD 
HETATM   17  H   UNL     1      -6.776  11.227  65.828  1.00  0.00     0.000 HD 
BRANCH  13  18
HETATM   18  C   UNL     1      -7.952   9.721  64.901  1.00  0.00    -0.133 A  
HETATM   19  C   UNL     1      -8.269   9.755  63.534  1.00  0.00    -0.156 A  
HETATM   20  C   UNL     1      -8.560   8.584  62.835  1.00  0.00    -0.026 A  
HETATM   21  C   UNL     1      -8.499   7.363  63.494  1.00  0.00     0.326 A  
HETATM   22  C   UNL     1      -8.104   7.301  64.831  1.00  0.00    -0.108 A  
HETATM   23 CL   UNL     1      -8.932   5.924  62.655  1.00  0.00     0.264 Cl 
HETATM   24  C   UNL     1      -7.810   8.481  65.530  1.00  0.00    -0.104 A  
ENDBRANCH  13  18
ENDBRANCH   2   4
TORSDOF 2
ENDMDL
MODEL      160
REMARK 921   NORMALIZED FREE ENERGY PREDICTED BY IDOCK:   -1.84 KCAL/MOL
REMARK 922        TOTAL FREE ENERGY PREDICTED BY IDOCK:   -2.26 KCAL/MOL
REMARK 923 INTER-LIGAND FREE ENERGY PREDICTED BY IDOCK:   -3.71 KCAL/MOL
REMARK 924 INTRA-LIGAND FREE ENERGY PREDICTED BY IDOCK:    1.45 KCAL/MOL
REMARK 927      BINDING AFFINITY PREDICTED BY RF-SCORE:    0.00 PKD
ROOT
HETATM    1  C   UNL     1      -8.833   3.545  74.127  1.00  0.00    -0.089 C  
HETATM    2  C   UNL     1      -8.941   5.064  74.157  1.00  0.00    -0.112 C  
HETATM    3  C   UNL     1      -7.599   5.684  74.551  1.00  0.00    -0.094 C  
ENDROOT
BRANCH   2   4
HETATM    4  N   UNL     1      -9.336   5.566  72.853  1.00  0.00    -0.138 NA 
HETATM    5  C   UNL     1      -9.933   4.878  71.848  1.00  0.00    -0.190 C  
HETATM    6  H   UNL     1      -9.141   6.551  72.671  1.00  0.00     0.000 HD 
HETATM    7  N   UNL     1      -9.817   3.612  71.648  1.00  0.00    -0.172 NA 
HETATM    8  N   UNL     1     -10.702   5.626  71.005  1.00  0.00    -0.248 NA 
HETATM    9  H1  UNL     1     -10.266   3.094  70.892  1.00  0.00     0.000 HD 
HETATM   10  H2  UNL     1      -9.229   3.086  72.295  1.00  0.00     0.000 HD 
HETATM   11  C   UNL     1     -11.303   6.843  71.136  1.00  0.00    -0.290 C  
HETATM   12  H   UNL     1     -10.858   5.189  70.097  1.00  0.00     0.000 HD 
HETATM   13  N   UNL     1     -11.669   7.444  69.957  1.00  0.00    -0.507 NA 
HETATM   14  N   UNL     1     -11.481   7.410  72.294  1.00  0.00    -0.276 NA 
HETATM   15  H1  UNL     1     -11.931   8.321  72.392  1.00  0.00     0.000 HD 
HETATM   16  H2  UNL     1     -11.160   6.927  73.133  1.00  0.00     0.000 HD 
HETATM   17  H   UNL     1     -11.976   6.877  69.167  1.00  0.00     0.000 HD 
BRANCH  13  18
HETATM   18  C   UNL     1     -11.619   8.858  69.843  1.00  0.00     0.218 A  
HETATM   19  C   UNL     1     -12.005   9.685  70.909  1.00  0.00    -0.391 A  
HETATM   20  C   UNL     1     -12.024  11.073  70.772  1.00  0.00    -0.436 A  
HETATM   21  C   UNL     1     -11.618  11.645  69.574  1.00  0.00    -0.331 A  
HETATM   22  C   UNL     1     -11.150  10.844  68.531  1.00  0.00    -0.311 A  
HETATM   23 CL   UNL     1     -11.711  13.352  69.374  1.00  0.00    -0.361 Cl 
HETATM   24  C   UNL     1     -11.131   9.449  68.674  1.00  0.00     0.015 A  
ENDBRANCH  13  18
ENDBRANCH   2   4
TORSDOF 2
ENDMDL
MODEL      161
REMARK 921   NORMALIZED FREE ENERGY PREDICTED BY IDOCK:   -1.32 KCAL/MOL
REMARK 922        TOTAL FREE ENERGY PREDICTED BY IDOCK:   -1.68 KCAL/MOL
REMARK 923 INTER-LIGAND FREE ENERGY PREDICTED BY IDOCK:   -1.72 KCAL/MOL
REMARK 924 INTRA-LIGAND FREE ENERGY PREDICTED BY IDOCK:    0.04 KCAL/MOL
REMARK 927      BINDING AFFINITY PREDICTED BY RF-SCORE:    0.00 PKD
ROOT
HETATM    1  C   UNL     1      -9.221   7.721  65.487  1.00  0.00     0.182 C  
HETATM    2  C   UNL     1      -9.866   7.669  66.867  1.00  0.00    -0.234 C  
HETATM    3  C   UNL     1     -11.121   6.795  66.834  1.00  0.00    -0.283 C  
ENDROOT
BRANCH   2   4
HETATM    4  N   UNL     1      -8.932   7.130  67.839  1.00  0.00    -0.123 NA 
HETATM    5  C   UNL     1      -7.773   7.689  68.269  1.00  0.00    -0.120 C  
HETATM    6  H   UNL     1      -9.175   6.227  68.245  1.00  0.00     0.000 HD 
HETATM    7  N   UNL     1      -7.043   8.498  67.585  1.00  0.00    -0.078 NA 
HETATM    8  N   UNL     1      -7.384   7.330  69.527  1.00  0.00    -0.083 NA 
HETATM    9  H1  UNL     1      -6.171   8.918  67.909  1.00  0.00     0.000 HD 
HETATM   10  H2  UNL     1      -7.362   8.739  66.646  1.00  0.00     0.000 HD 
HETATM   11  C   UNL     1      -8.063   6.823  70.595  1.00  0.00    -0.119 C  
HETATM   12  H   UNL     1      -6.389   7.469  69.703  1.00  0.00     0.000 HD 
HETATM   13  N   UNL     1      -7.281   6.232  71.557  1.00  0.00    -0.081 NA 
HETATM   14  N   UNL     1      -9.362   6.863  70.678  1.00  0.00    -0.162 NA 
HETATM   15  H1  UNL     1      -9.870   6.484  71.477  1.00  0.00     0.000 HD 
HETATM   16  H2  UNL     1      -9.890   7.289  69.916  1.00  0.00     0.000 HD 
HETATM   17  H   UNL     1      -6.348   6.593  71.752  1.00  0.00     0.000 HD 
BRANCH  13  18
HETATM   18  C   UNL     1      -7.779   5.116  72.279  1.00  0.00    -0.100 A  
HETATM   19  C   UNL     1      -7.924   3.861  71.666  1.00  0.00    -0.066 A  
HETATM   20  C   UNL     1      -8.480   2.784  72.355  1.00  0.00    -0.077 A  
HETATM   21  C   UNL     1      -8.863   2.947  73.680  1.00  0.00    -0.079 A  
HETATM   22  C   UNL     1      -8.650   4.162  74.333  1.00  0.00    -0.095 A  
HETATM   23 CL   UNL     1      -9.620   1.643  74.511  1.00  0.00    -0.091 Cl 
HETATM   24  C   UNL     1      -8.088   5.242  73.637  1.00  0.00    -0.110 A  
ENDBRANCH  13  18
ENDBRANCH   2   4
TORSDOF 2
ENDMDL
MODEL      162
REMARK 921   NORMALIZED FREE ENERGY PREDICTED BY IDOCK:   -1.29 KCAL/MOL
REMARK 922        TOTAL FREE ENERGY PREDICTED BY IDOCK:   -1.65 KCAL/MOL
REMARK 923 INTER-LIGAND FREE ENERGY PREDICTED BY IDOCK:   -1.78 KCAL/MOL
REMARK 924 INTRA-LIGAND FREE ENERGY PREDICTED BY IDOCK:    0.13 KCAL/MOL
REMARK 927      BINDING AFFINITY PREDICTED BY RF-SCORE:    0.00 PKD
ROOT
HETATM    1  C   UNL     1      -5.702  14.572  70.674  1.00  0.00    -0.169 C  
HETATM    2  C   UNL     1      -6.858  13.818  70.029  1.00  0.00     0.228 C  
HETATM    3  C   UNL     1      -7.377  14.583  68.810  1.00  0.00    -0.129 C  
ENDROOT
BRANCH   2   4
HETATM    4  N   UNL     1      -6.428  12.494  69.617  1.00  0.00    -0.281 NA 
HETATM    5  C   UNL     1      -5.975  11.489  70.408  1.00  0.00    -0.138 C  
HETATM    6  H   UNL     1      -6.472  12.296  68.617  1.00  0.00     0.000 HD 
HETATM    7  N   UNL     1      -5.380  11.648  71.538  1.00  0.00    -0.358 NA 
HETATM    8  N   UNL     1      -6.179  10.230  69.925  1.00  0.00    -0.059 NA 
HETATM    9  H1  UNL     1      -5.039  10.892  72.132  1.00  0.00     0.000 HD 
HETATM   10  H2  UNL     1      -5.238  12.605  71.864  1.00  0.00     0.000 HD 
HETATM   11  C   UNL     1      -7.049   9.721  69.006  1.00  0.00    -0.067 C  
HETATM   12  H   UNL     1      -5.560   9.529  70.332  1.00  0.00     0.000 HD 
HETATM   13  N   UNL     1      -6.711   8.491  68.499  1.00  0.00    -0.059 NA 
HETATM   14  N   UNL     1      -8.103  10.374  68.610  1.00  0.00    -0.111 NA 
HETATM   15  H1  UNL     1      -8.754   9.994  67.922  1.00  0.00     0.000 HD 
HETATM   16  H2  UNL     1      -8.285  11.299  69.001  1.00  0.00     0.000 HD 
HETATM   17  H   UNL     1      -6.233   7.808  69.088  1.00  0.00     0.000 HD 
BRANCH  13  18
HETATM   18  C   UNL     1      -7.029   8.173  67.153  1.00  0.00    -0.075 A  
HETATM   19  C   UNL     1      -6.426   8.857  66.085  1.00  0.00    -0.065 A  
HETATM   20  C   UNL     1      -6.792   8.594  64.765  1.00  0.00    -0.073 A  
HETATM   21  C   UNL     1      -7.741   7.615  64.503  1.00  0.00    -0.126 A  
HETATM   22  C   UNL     1      -8.290   6.865  65.545  1.00  0.00    -0.138 A  
HETATM   23 CL   UNL     1      -8.251   7.340  62.882  1.00  0.00    -0.047 Cl 
HETATM   24  C   UNL     1      -7.917   7.132  66.870  1.00  0.00    -0.115 A  
ENDBRANCH  13  18
ENDBRANCH   2   4
TORSDOF 2
ENDMDL
MODEL      163
REMARK 921   NORMALIZED FREE ENERGY PREDICTED BY IDOCK:   -1.03 KCAL/MOL
REMARK 922        TOTAL FREE ENERGY PREDICTED BY IDOCK:   -1.36 KCAL/MOL
REMARK 923 INTER-LIGAND FREE ENERGY PREDICTED BY IDOCK:   -1.22 KCAL/MOL
REMARK 924 INTRA-LIGAND FREE ENERGY PREDICTED BY IDOCK:   -0.14 KCAL/MOL
REMARK 927      BINDING AFFINITY PREDICTED BY RF-SCORE:    0.00 PKD
ROOT
HETATM    1  C   UNL     1     -10.022  11.125  64.896  1.00  0.00    -0.331 C  
HETATM    2  C   UNL     1     -10.140  10.701  66.355  1.00  0.00    -0.225 C  
HETATM    3  C   UNL     1     -11.011   9.448  66.474  1.00  0.00     0.355 C  
ENDROOT
BRANCH   2   4
HETATM    4  N   UNL     1      -8.826  10.425  66.906  1.00  0.00    -0.133 NA 
HETATM    5  C   UNL     1      -7.939  11.317  67.414  1.00  0.00    -0.132 C  
HETATM    6  H   UNL     1      -8.536   9.447  66.913  1.00  0.00     0.000 HD 
HETATM    7  N   UNL     1      -7.854  12.554  67.068  1.00  0.00    -0.355 NA 
HETATM    8  N   UNL     1      -7.084  10.820  68.354  1.00  0.00    -0.073 NA 
HETATM    9  H1  UNL     1      -7.186  13.225  67.449  1.00  0.00     0.000 HD 
HETATM   10  H2  UNL     1      -8.504  12.889  66.357  1.00  0.00     0.000 HD 
HETATM   11  C   UNL     1      -7.141   9.728  69.169  1.00  0.00    -0.067 C  
HETATM   12  H   UNL     1      -6.237  11.375  68.472  1.00  0.00     0.000 HD 
HETATM   13  N   UNL     1      -5.938   9.337  69.705  1.00  0.00    -0.035 NA 
HETATM   14  N   UNL     1      -8.248   9.081  69.391  1.00  0.00    -0.114 NA 
HETATM   15  H1  UNL     1      -8.290   8.264  70.001  1.00  0.00     0.000 HD 
HETATM   16  H2  UNL     1      -9.104   9.402  68.940  1.00  0.00     0.000 HD 
HETATM   17  H   UNL     1      -5.231  10.033  69.939  1.00  0.00     0.000 HD 
BRANCH  13  18
HETATM   18  C   UNL     1      -5.685   7.959  69.932  1.00  0.00    -0.023 A  
HETATM   19  C   UNL     1      -5.615   7.049  68.865  1.00  0.00    -0.018 A  
HETATM   20  C   UNL     1      -5.438   5.685  69.094  1.00  0.00    -0.007 A  
HETATM   21  C   UNL     1      -5.291   5.225  70.396  1.00  0.00    -0.004 A  
HETATM   22  C   UNL     1      -5.274   6.123  71.465  1.00  0.00    -0.021 A  
HETATM   23 CL   UNL     1      -5.149   3.535  70.688  1.00  0.00    -0.003 Cl 
HETATM   24  C   UNL     1      -5.450   7.494  71.229  1.00  0.00    -0.034 A  
ENDBRANCH  13  18
ENDBRANCH   2   4
TORSDOF 2
ENDMDL
MODEL      164
REMARK 921   NORMALIZED FREE ENERGY PREDICTED BY IDOCK:   -0.99 KCAL/MOL
REMARK 922        TOTAL FREE ENERGY PREDICTED BY IDOCK:   -1.32 KCAL/MOL
REMARK 923 INTER-LIGAND FREE ENERGY PREDICTED BY IDOCK:   -1.90 KCAL/MOL
REMARK 924 INTRA-LIGAND FREE ENERGY PREDICTED BY IDOCK:    0.59 KCAL/MOL
REMARK 927      BINDING AFFINITY PREDICTED BY RF-SCORE:    0.00 PKD
ROOT
HETATM    1  C   UNL     1      -8.391   9.255  65.501  1.00  0.00    -0.139 C  
HETATM    2  C   UNL     1      -9.122   9.210  66.837  1.00  0.00    -0.135 C  
HETATM    3  C   UNL     1     -10.120   8.050  66.858  1.00  0.00    -0.362 C  
ENDROOT
BRANCH   2   4
HETATM    4  N   UNL     1      -8.174   9.047  67.924  1.00  0.00    -0.109 NA 
HETATM    5  C   UNL     1      -7.368   9.993  68.467  1.00  0.00    -0.077 C  
HETATM    6  H   UNL     1      -8.106   8.112  68.326  1.00  0.00     0.000 HD 
HETATM    7  N   UNL     1      -6.922  11.029  67.847  1.00  0.00    -0.071 NA 
HETATM    8  N   UNL     1      -7.023   9.787  69.771  1.00  0.00    -0.074 NA 
HETATM    9  H1  UNL     1      -6.315  11.740  68.256  1.00  0.00     0.000 HD 
HETATM   10  H2  UNL     1      -7.195  11.147  66.871  1.00  0.00     0.000 HD 
HETATM   11  C   UNL     1      -7.582   9.045  70.770  1.00  0.00    -0.120 C  
HETATM   12  H   UNL     1      -6.181  10.287  70.056  1.00  0.00     0.000 HD 
HETATM   13  N   UNL     1      -6.753   8.776  71.831  1.00  0.00    -0.159 NA 
HETATM   14  N   UNL     1      -8.800   8.592  70.702  1.00  0.00    -0.152 NA 
HETATM   15  H1  UNL     1      -9.218   8.037  71.449  1.00  0.00     0.000 HD 
HETATM   16  H2  UNL     1      -9.357   8.800  69.873  1.00  0.00     0.000 HD 
HETATM   17  H   UNL     1      -6.053   9.458  72.120  1.00  0.00     0.000 HD 
BRANCH  13  18
HETATM   18  C   UNL     1      -6.876   7.543  72.524  1.00  0.00    -0.064 A  
HETATM   19  C   UNL     1      -5.745   6.780  72.852  1.00  0.00    -0.042 A  
HETATM   20  C   UNL     1      -5.872   5.535  73.468  1.00  0.00    -0.032 A  
HETATM   21  C   UNL     1      -7.136   5.061  73.796  1.00  0.00    -0.082 A  
HETATM   22  C   UNL     1      -8.267   5.842  73.554  1.00  0.00    -0.111 A  
HETATM   23 CL   UNL     1      -7.302   3.494  74.486  1.00  0.00    -0.052 Cl 
HETATM   24  C   UNL     1      -8.135   7.095  72.936  1.00  0.00    -0.120 A  
ENDBRANCH  13  18
ENDBRANCH   2   4
TORSDOF 2
ENDMDL
MODEL      165
REMARK 921   NORMALIZED FREE ENERGY PREDICTED BY IDOCK:   -0.89 KCAL/MOL
REMARK 922        TOTAL FREE ENERGY PREDICTED BY IDOCK:   -1.21 KCAL/MOL
REMARK 923 INTER-LIGAND FREE ENERGY PREDICTED BY IDOCK:   -1.86 KCAL/MOL
REMARK 924 INTRA-LIGAND FREE ENERGY PREDICTED BY IDOCK:    0.65 KCAL/MOL
REMARK 927      BINDING AFFINITY PREDICTED BY RF-SCORE:    0.00 PKD
ROOT
HETATM    1  C   UNL     1     -11.651  17.064  65.214  1.00  0.00     1.169 C  
HETATM    2  C   UNL     1     -10.324  16.413  65.583  1.00  0.00    -0.350 C  
HETATM    3  C   UNL     1      -9.678  17.152  66.757  1.00  0.00    -0.277 C  
ENDROOT
BRANCH   2   4
HETATM    4  N   UNL     1     -10.529  15.022  65.946  1.00  0.00    -0.309 NA 
HETATM    5  C   UNL     1     -11.707  14.355  66.029  1.00  0.00    -0.375 C  
HETATM    6  H   UNL     1      -9.690  14.484  66.164  1.00  0.00     0.000 HD 
HETATM    7  N   UNL     1     -12.846  14.894  66.293  1.00  0.00     0.179 NA 
HETATM    8  N   UNL     1     -11.632  13.009  65.817  1.00  0.00    -0.339 NA 
HETATM    9  H1  UNL     1     -13.732  14.392  66.356  1.00  0.00     0.000 HD 
HETATM   10  H2  UNL     1     -12.863  15.902  66.453  1.00  0.00     0.000 HD 
HETATM   11  C   UNL     1     -10.712  12.222  65.188  1.00  0.00    -0.293 C  
HETATM   12  H   UNL     1     -12.419  12.488  66.204  1.00  0.00     0.000 HD 
HETATM   13  N   UNL     1     -10.773  10.887  65.502  1.00  0.00    -0.167 NA 
HETATM   14  N   UNL     1      -9.817  12.709  64.378  1.00  0.00    -0.570 NA 
HETATM   15  H1  UNL     1      -9.128  12.120  63.908  1.00  0.00     0.000 HD 
HETATM   16  H2  UNL     1      -9.802  13.715  64.208  1.00  0.00     0.000 HD 
HETATM   17  H   UNL     1     -11.672  10.449  65.705  1.00  0.00     0.000 HD 
BRANCH  13  18
HETATM   18  C   UNL     1      -9.580  10.119  65.543  1.00  0.00    -0.250 A  
HETATM   19  C   UNL     1      -9.358   9.075  64.631  1.00  0.00     0.217 A  
HETATM   20  C   UNL     1      -8.219   8.275  64.718  1.00  0.00    -0.147 A  
HETATM   21  C   UNL     1      -7.273   8.540  65.699  1.00  0.00    -0.079 A  
HETATM   22  C   UNL     1      -7.435   9.625  66.563  1.00  0.00    -0.094 A  
HETATM   23 CL   UNL     1      -5.904   7.509  65.858  1.00  0.00    -0.037 Cl 
HETATM   24  C   UNL     1      -8.581  10.428  66.470  1.00  0.00    -0.134 A  
ENDBRANCH  13  18
ENDBRANCH   2   4
TORSDOF 2
ENDMDL
MODEL      166
REMARK 921   NORMALIZED FREE ENERGY PREDICTED BY IDOCK:   -0.63 KCAL/MOL
REMARK 922        TOTAL FREE ENERGY PREDICTED BY IDOCK:   -0.92 KCAL/MOL
REMARK 923 INTER-LIGAND FREE ENERGY PREDICTED BY IDOCK:   -1.04 KCAL/MOL
REMARK 924 INTRA-LIGAND FREE ENERGY PREDICTED BY IDOCK:    0.12 KCAL/MOL
REMARK 927      BINDING AFFINITY PREDICTED BY RF-SCORE:    0.00 PKD
ROOT
HETATM    1  C   UNL     1      -5.332  12.578  70.929  1.00  0.00    -0.166 C  
HETATM    2  C   UNL     1      -6.101  12.591  69.613  1.00  0.00    -0.133 C  
HETATM    3  C   UNL     1      -5.131  12.558  68.431  1.00  0.00    -0.057 C  
ENDROOT
BRANCH   2   4
HETATM    4  N   UNL     1      -6.988  11.444  69.538  1.00  0.00    -0.268 NA 
HETATM    5  C   UNL     1      -8.300  11.435  69.191  1.00  0.00     0.137 C  
HETATM    6  H   UNL     1      -6.578  10.540  69.774  1.00  0.00     0.000 HD 
HETATM    7  N   UNL     1      -9.113  12.420  69.347  1.00  0.00     0.400 NA 
HETATM    8  N   UNL     1      -8.751  10.269  68.646  1.00  0.00    -0.126 NA 
HETATM    9  H1  UNL     1     -10.099  12.413  69.086  1.00  0.00     0.000 HD 
HETATM   10  H2  UNL     1      -8.742  13.275  69.764  1.00  0.00     0.000 HD 
HETATM   11  C   UNL     1      -8.116   9.227  68.035  1.00  0.00    -0.104 C  
HETATM   12  H   UNL     1      -9.762  10.152  68.706  1.00  0.00     0.000 HD 
HETATM   13  N   UNL     1      -8.842   8.064  67.959  1.00  0.00    -0.128 NA 
HETATM   14  N   UNL     1      -6.896   9.319  67.592  1.00  0.00    -0.075 NA 
HETATM   15  H1  UNL     1      -6.421   8.539  67.136  1.00  0.00     0.000 HD 
HETATM   16  H2  UNL     1      -6.396  10.201  67.705  1.00  0.00     0.000 HD 
HETATM   17  H   UNL     1      -9.855   8.099  67.845  1.00  0.00     0.000 HD 
BRANCH  13  18
HETATM   18  C   UNL     1      -8.177   6.813  68.041  1.00  0.00    -0.114 A  
HETATM   19  C   UNL     1      -7.044   6.646  68.853  1.00  0.00    -0.085 A  
HETATM   20  C   UNL     1      -6.348   5.437  68.877  1.00  0.00    -0.034 A  
HETATM   21  C   UNL     1      -6.807   4.372  68.113  1.00  0.00    -0.055 A  
HETATM   22  C   UNL     1      -7.979   4.491  67.365  1.00  0.00    -0.100 A  
HETATM   23 CL   UNL     1      -5.909   2.904  68.080  1.00  0.00    -0.023 Cl 
HETATM   24  C   UNL     1      -8.676   5.708  67.346  1.00  0.00    -0.107 A  
ENDBRANCH  13  18
ENDBRANCH   2   4
TORSDOF 2
ENDMDL
MODEL      167
REMARK 921   NORMALIZED FREE ENERGY PREDICTED BY IDOCK:   -0.18 KCAL/MOL
REMARK 922        TOTAL FREE ENERGY PREDICTED BY IDOCK:   -0.41 KCAL/MOL
REMARK 923 INTER-LIGAND FREE ENERGY PREDICTED BY IDOCK:   -0.09 KCAL/MOL
REMARK 924 INTRA-LIGAND FREE ENERGY PREDICTED BY IDOCK:   -0.32 KCAL/MOL
REMARK 927      BINDING AFFINITY PREDICTED BY RF-SCORE:    0.00 PKD
ROOT
HETATM    1  C   UNL     1     -10.865  20.207  70.578  1.00  0.00     2.366 C  
HETATM    2  C   UNL     1      -9.848  20.021  69.460  1.00  0.00     0.092 C  
HETATM    3  C   UNL     1      -8.452  19.794  70.044  1.00  0.00     0.992 C  
ENDROOT
BRANCH   2   4
HETATM    4  N   UNL     1     -10.212  18.884  68.633  1.00  0.00    -0.441 NA 
HETATM    5  C   UNL     1      -9.880  18.666  67.336  1.00  0.00    -0.318 C  
HETATM    6  H   UNL     1     -10.784  18.167  69.079  1.00  0.00     0.000 HD 
HETATM    7  N   UNL     1      -9.633  19.586  66.470  1.00  0.00    -0.355 NA 
HETATM    8  N   UNL     1      -9.824  17.355  66.961  1.00  0.00    -0.275 NA 
HETATM    9  H1  UNL     1      -9.384  19.421  65.495  1.00  0.00     0.000 HD 
HETATM   10  H2  UNL     1      -9.692  20.555  66.785  1.00  0.00     0.000 HD 
HETATM   11  C   UNL     1      -9.671  16.197  67.666  1.00  0.00    -0.233 C  
HETATM   12  H   UNL     1      -9.912  17.212  65.955  1.00  0.00     0.000 HD 
HETATM   13  N   UNL     1     -10.043  15.055  67.000  1.00  0.00    -0.241 NA 
HETATM   14  N   UNL     1      -9.241  16.182  68.894  1.00  0.00    -0.223 NA 
HETATM   15  H1  UNL     1      -9.127  15.316  69.421  1.00  0.00     0.000 HD 
HETATM   16  H2  UNL     1      -9.009  17.066  69.346  1.00  0.00     0.000 HD 
HETATM   17  H   UNL     1      -9.912  14.984  65.991  1.00  0.00     0.000 HD 
BRANCH  13  18
HETATM   18  C   UNL     1     -10.610  13.973  67.723  1.00  0.00    -0.242 A  
HETATM   19  C   UNL     1     -11.931  14.029  68.195  1.00  0.00    -0.382 A  
HETATM   20  C   UNL     1     -12.463  12.997  68.967  1.00  0.00     0.310 A  
HETATM   21  C   UNL     1     -11.685  11.880  69.241  1.00  0.00    -0.328 A  
HETATM   22  C   UNL     1     -10.398  11.767  68.711  1.00  0.00    -0.198 A  
HETATM   23 CL   UNL     1     -12.310  10.639  70.256  1.00  0.00    -0.395 Cl 
HETATM   24  C   UNL     1      -9.868  12.807  67.934  1.00  0.00    -0.223 A  
ENDBRANCH  13  18
ENDBRANCH   2   4
TORSDOF 2
ENDMDL
MODEL      168
REMARK 921   NORMALIZED FREE ENERGY PREDICTED BY IDOCK:    0.94 KCAL/MOL
REMARK 922        TOTAL FREE ENERGY PREDICTED BY IDOCK:    0.84 KCAL/MOL
REMARK 923 INTER-LIGAND FREE ENERGY PREDICTED BY IDOCK:    0.48 KCAL/MOL
REMARK 924 INTRA-LIGAND FREE ENERGY PREDICTED BY IDOCK:    0.36 KCAL/MOL
REMARK 927      BINDING AFFINITY PREDICTED BY RF-SCORE:    0.00 PKD
ROOT
HETATM    1  C   UNL     1      -5.452  10.401  71.757  1.00  0.00     0.126 C  
HETATM    2  C   UNL     1      -5.409   8.878  71.741  1.00  0.00    -0.048 C  
HETATM    3  C   UNL     1      -5.173   8.339  73.153  1.00  0.00    -0.044 C  
ENDROOT
BRANCH   2   4
HETATM    4  N   UNL     1      -6.658   8.345  71.227  1.00  0.00    -0.048 NA 
HETATM    5  C   UNL     1      -7.911   8.817  71.447  1.00  0.00    -0.128 C  
HETATM    6  H   UNL     1      -6.585   7.521  70.630  1.00  0.00     0.000 HD 
HETATM    7  N   UNL     1      -8.283   9.467  72.494  1.00  0.00     0.702 NA 
HETATM    8  N   UNL     1      -8.816   8.551  70.461  1.00  0.00    -0.145 NA 
HETATM    9  H1  UNL     1      -9.226   9.821  72.659  1.00  0.00     0.000 HD 
HETATM   10  H2  UNL     1      -7.581   9.641  73.213  1.00  0.00     0.000 HD 
HETATM   11  C   UNL     1      -8.680   8.235  69.142  1.00  0.00    -0.143 C  
HETATM   12  H   UNL     1      -9.786   8.599  70.772  1.00  0.00     0.000 HD 
HETATM   13  N   UNL     1      -9.786   7.666  68.560  1.00  0.00    -0.162 NA 
HETATM   14  N   UNL     1      -7.568   8.424  68.491  1.00  0.00    -0.094 NA 
HETATM   15  H1  UNL     1      -7.466   8.187  67.504  1.00  0.00     0.000 HD 
HETATM   16  H2  UNL     1      -6.770   8.823  68.986  1.00  0.00     0.000 HD 
HETATM   17  H   UNL     1     -10.721   7.942  68.859  1.00  0.00     0.000 HD 
BRANCH  13  18
HETATM   18  C   UNL     1      -9.622   6.692  67.541  1.00  0.00    -0.126 A  
HETATM   19  C   UNL     1      -8.764   5.595  67.718  1.00  0.00    -0.107 A  
HETATM   20  C   UNL     1      -8.548   4.678  66.689  1.00  0.00    -0.108 A  
HETATM   21  C   UNL     1      -9.222   4.834  65.484  1.00  0.00    -0.154 A  
HETATM   22  C   UNL     1     -10.142   5.870  65.318  1.00  0.00     1.055 A  
HETATM   23 CL   UNL     1      -8.900   3.750  64.187  1.00  0.00    -0.106 Cl 
HETATM   24  C   UNL     1     -10.358   6.788  66.356  1.00  0.00     0.014 A  
ENDBRANCH  13  18
ENDBRANCH   2   4
TORSDOF 2
ENDMDL
MODEL      169
REMARK 921   NORMALIZED FREE ENERGY PREDICTED BY IDOCK:    1.40 KCAL/MOL
REMARK 922        TOTAL FREE ENERGY PREDICTED BY IDOCK:    1.36 KCAL/MOL
REMARK 923 INTER-LIGAND FREE ENERGY PREDICTED BY IDOCK:    1.20 KCAL/MOL
REMARK 924 INTRA-LIGAND FREE ENERGY PREDICTED BY IDOCK:    0.16 KCAL/MOL
REMARK 927      BINDING AFFINITY PREDICTED BY RF-SCORE:    0.00 PKD
ROOT
HETATM    1  C   UNL     1     -10.359  13.432  65.369  1.00  0.00    -0.321 C  
HETATM    2  C   UNL     1     -10.118  13.211  66.857  1.00  0.00    -0.245 C  
HETATM    3  C   UNL     1     -10.246  11.725  67.200  1.00  0.00    -0.236 C  
ENDROOT
BRANCH   2   4
HETATM    4  N   UNL     1      -8.792  13.675  67.226  1.00  0.00    -0.214 NA 
HETATM    5  C   UNL     1      -7.633  13.490  66.547  1.00  0.00     1.367 C  
HETATM    6  H   UNL     1      -8.726  14.202  68.097  1.00  0.00     0.000 HD 
HETATM    7  N   UNL     1      -7.384  12.499  65.764  1.00  0.00     1.529 NA 
HETATM    8  N   UNL     1      -6.681  14.448  66.745  1.00  0.00     0.123 NA 
HETATM    9  H1  UNL     1      -6.512  12.360  65.253  1.00  0.00     0.000 HD 
HETATM   10  H2  UNL     1      -8.117  11.799  65.645  1.00  0.00     0.000 HD 
HETATM   11  C   UNL     1      -6.745  15.738  67.184  1.00  0.00    -0.092 C  
HETATM   12  H   UNL     1      -5.736  14.139  66.520  1.00  0.00     0.000 HD 
HETATM   13  N   UNL     1      -5.554  16.267  67.616  1.00  0.00    -0.136 NA 
HETATM   14  N   UNL     1      -7.862  16.405  67.225  1.00  0.00    -0.153 NA 
HETATM   15  H1  UNL     1      -7.909  17.369  67.554  1.00  0.00     0.000 HD 
HETATM   16  H2  UNL     1      -8.720  15.947  66.918  1.00  0.00     0.000 HD 
HETATM   17  H   UNL     1      -4.679  15.988  67.173  1.00  0.00     0.000 HD 
BRANCH  13  18
HETATM   18  C   UNL     1      -5.547  17.203  68.683  1.00  0.00    -0.135 A  
HETATM   19  C   UNL     1      -5.911  16.823  69.984  1.00  0.00    -0.187 A  
HETATM   20  C   UNL     1      -5.973  17.759  71.016  1.00  0.00     0.797 A  
HETATM   21  C   UNL     1      -5.634  19.081  70.759  1.00  0.00    -0.186 A  
HETATM   22  C   UNL     1      -5.189  19.462  69.492  1.00  0.00    -0.197 A  
HETATM   23 CL   UNL     1      -5.783  20.253  72.009  1.00  0.00    -0.343 Cl 
HETATM   24  C   UNL     1      -5.125  18.517  68.458  1.00  0.00    -0.170 A  
ENDBRANCH  13  18
ENDBRANCH   2   4
TORSDOF 2
ENDMDL
MODEL      170
REMARK 921   NORMALIZED FREE ENERGY PREDICTED BY IDOCK:    2.99 KCAL/MOL
REMARK 922        TOTAL FREE ENERGY PREDICTED BY IDOCK:    3.13 KCAL/MOL
REMARK 923 INTER-LIGAND FREE ENERGY PREDICTED BY IDOCK:    3.44 KCAL/MOL
REMARK 924 INTRA-LIGAND FREE ENERGY PREDICTED BY IDOCK:   -0.30 KCAL/MOL
REMARK 927      BINDING AFFINITY PREDICTED BY RF-SCORE:    0.00 PKD
ROOT
HETATM    1  C   UNL     1     -10.387  20.305  70.841  1.00  0.00     2.047 C  
HETATM    2  C   UNL     1      -8.943  20.287  70.356  1.00  0.00     1.587 C  
HETATM    3  C   UNL     1      -7.993  20.019  71.526  1.00  0.00     2.082 C  
ENDROOT
BRANCH   2   4
HETATM    4  N   UNL     1      -8.763  19.258  69.347  1.00  0.00     0.008 NA 
HETATM    5  C   UNL     1      -7.724  19.117  68.487  1.00  0.00    -0.341 C  
HETATM    6  H   UNL     1      -9.505  18.561  69.277  1.00  0.00     0.000 HD 
HETATM    7  N   UNL     1      -6.986  20.078  68.054  1.00  0.00    -0.278 NA 
HETATM    8  N   UNL     1      -7.483  17.841  68.067  1.00  0.00    -0.220 NA 
HETATM    9  H1  UNL     1      -6.204  19.971  67.407  1.00  0.00     0.000 HD 
HETATM   10  H2  UNL     1      -7.199  21.020  68.384  1.00  0.00     0.000 HD 
HETATM   11  C   UNL     1      -7.811  16.621  68.582  1.00  0.00    -0.234 C  
HETATM   12  H   UNL     1      -6.953  17.789  67.198  1.00  0.00     0.000 HD 
HETATM   13  N   UNL     1      -7.735  15.574  67.696  1.00  0.00    -0.144 NA 
HETATM   14  N   UNL     1      -8.205  16.468  69.813  1.00  0.00     0.506 NA 
HETATM   15  H1  UNL     1      -8.451  15.555  70.197  1.00  0.00     0.000 HD 
HETATM   16  H2  UNL     1      -8.272  17.289  70.414  1.00  0.00     0.000 HD 
HETATM   17  H   UNL     1      -7.026  15.574  66.963  1.00  0.00     0.000 HD 
BRANCH  13  18
HETATM   18  C   UNL     1      -8.647  14.492  67.807  1.00  0.00    -0.175 A  
HETATM   19  C   UNL     1      -9.990  14.635  67.426  1.00  0.00    -0.231 A  
HETATM   20  C   UNL     1     -10.902  13.594  67.601  1.00  0.00    -0.268 A  
HETATM   21  C   UNL     1     -10.464  12.386  68.128  1.00  0.00    -0.219 A  
HETATM   22  C   UNL     1      -9.116  12.196  68.434  1.00  0.00    -0.151 A  
HETATM   23 CL   UNL     1     -11.600  11.126  68.418  1.00  0.00    -0.375 Cl 
HETATM   24  C   UNL     1      -8.202  13.245  68.254  1.00  0.00    -0.156 A  
ENDBRANCH  13  18
ENDBRANCH   2   4
TORSDOF 2
ENDMDL
MODEL      171
REMARK 921   NORMALIZED FREE ENERGY PREDICTED BY IDOCK:    3.16 KCAL/MOL
REMARK 922        TOTAL FREE ENERGY PREDICTED BY IDOCK:    3.32 KCAL/MOL
REMARK 923 INTER-LIGAND FREE ENERGY PREDICTED BY IDOCK:    3.33 KCAL/MOL
REMARK 924 INTRA-LIGAND FREE ENERGY PREDICTED BY IDOCK:   -0.01 KCAL/MOL
REMARK 927      BINDING AFFINITY PREDICTED BY RF-SCORE:    0.00 PKD
ROOT
HETATM    1  C   UNL     1     -13.528  14.688  67.243  1.00  0.00     4.686 C  
HETATM    2  C   UNL     1     -12.781  14.231  65.997  1.00  0.00    -0.211 C  
HETATM    3  C   UNL     1     -13.196  15.075  64.790  1.00  0.00     1.139 C  
ENDROOT
BRANCH   2   4
HETATM    4  N   UNL     1     -11.348  14.352  66.197  1.00  0.00    -0.343 NA 
HETATM    5  C   UNL     1     -10.363  13.689  65.540  1.00  0.00    -0.309 C  
HETATM    6  H   UNL     1     -11.047  15.012  66.914  1.00  0.00     0.000 HD 
HETATM    7  N   UNL     1     -10.484  12.523  65.009  1.00  0.00    -0.290 NA 
HETATM    8  N   UNL     1      -9.167  14.341  65.470  1.00  0.00    -0.268 NA 
HETATM    9  H1  UNL     1      -9.743  12.024  64.515  1.00  0.00     0.000 HD 
HETATM   10  H2  UNL     1     -11.391  12.062  65.087  1.00  0.00     0.000 HD 
HETATM   11  C   UNL     1      -8.822  15.655  65.590  1.00  0.00     0.452 C  
HETATM   12  H   UNL     1      -8.374  13.725  65.292  1.00  0.00     0.000 HD 
HETATM   13  N   UNL     1      -7.492  15.889  65.841  1.00  0.00     0.696 NA 
HETATM   14  N   UNL     1      -9.697  16.615  65.511  1.00  0.00    -0.520 NA 
HETATM   15  H1  UNL     1      -9.439  17.598  65.601  1.00  0.00     0.000 HD 
HETATM   16  H2  UNL     1     -10.677  16.376  65.353  1.00  0.00     0.000 HD 
HETATM   17  H   UNL     1      -6.780  15.275  65.447  1.00  0.00     0.000 HD 
BRANCH  13  18
HETATM   18  C   UNL     1      -7.113  16.991  66.652  1.00  0.00    -0.254 A  
HETATM   19  C   UNL     1      -6.082  17.859  66.260  1.00  0.00    -0.241 A  
HETATM   20  C   UNL     1      -5.663  18.898  67.091  1.00  0.00    -0.157 A  
HETATM   21  C   UNL     1      -6.300  19.098  68.308  1.00  0.00    -0.229 A  
HETATM   22  C   UNL     1      -7.382  18.297  68.679  1.00  0.00    -0.303 A  
HETATM   23 CL   UNL     1      -5.736  20.329  69.370  1.00  0.00    -0.320 Cl 
HETATM   24  C   UNL     1      -7.802  17.256  67.839  1.00  0.00    -0.197 A  
ENDBRANCH  13  18
ENDBRANCH   2   4
TORSDOF 2
ENDMDL
MODEL      172
REMARK 921   NORMALIZED FREE ENERGY PREDICTED BY IDOCK:    4.46 KCAL/MOL
REMARK 922        TOTAL FREE ENERGY PREDICTED BY IDOCK:    4.78 KCAL/MOL
REMARK 923 INTER-LIGAND FREE ENERGY PREDICTED BY IDOCK:    3.77 KCAL/MOL
REMARK 924 INTRA-LIGAND FREE ENERGY PREDICTED BY IDOCK:    1.01 KCAL/MOL
REMARK 927      BINDING AFFINITY PREDICTED BY RF-SCORE:    0.00 PKD
ROOT
HETATM    1  C   UNL     1     -10.456   4.270  71.431  1.00  0.00     0.086 C  
HETATM    2  C   UNL     1     -10.286   5.730  71.030  1.00  0.00    -0.217 C  
HETATM    3  C   UNL     1      -9.165   6.377  71.846  1.00  0.00    -0.149 C  
ENDROOT
BRANCH   2   4
HETATM    4  N   UNL     1      -9.969   5.830  69.617  1.00  0.00    -0.174 NA 
HETATM    5  C   UNL     1     -10.724   5.413  68.570  1.00  0.00    -0.005 C  
HETATM    6  H   UNL     1      -9.076   6.264  69.385  1.00  0.00     0.000 HD 
HETATM    7  N   UNL     1     -11.573   4.446  68.608  1.00  0.00     5.781 NA 
HETATM    8  N   UNL     1     -10.529   6.092  67.403  1.00  0.00    -0.212 NA 
HETATM    9  H1  UNL     1     -12.140   4.133  67.820  1.00  0.00     0.000 HD 
HETATM   10  H2  UNL     1     -11.688   3.956  69.496  1.00  0.00     0.000 HD 
HETATM   11  C   UNL     1     -10.016   7.326  67.126  1.00  0.00    -0.215 C  
HETATM   12  H   UNL     1     -10.825   5.577  66.574  1.00  0.00     0.000 HD 
HETATM   13  N   UNL     1      -9.625   7.516  65.823  1.00  0.00    -0.345 NA 
HETATM   14  N   UNL     1      -9.873   8.241  68.039  1.00  0.00    -0.162 NA 
HETATM   15  H1  UNL     1      -9.489   9.164  67.832  1.00  0.00     0.000 HD 
HETATM   16  H2  UNL     1     -10.154   8.030  68.997  1.00  0.00     0.000 HD 
HETATM   17  H   UNL     1     -10.133   7.062  65.064  1.00  0.00     0.000 HD 
BRANCH  13  18
HETATM   18  C   UNL     1      -8.510   8.348  65.539  1.00  0.00    -0.168 A  
HETATM   19  C   UNL     1      -7.769   8.944  66.571  1.00  0.00    -0.099 A  
HETATM   20  C   UNL     1      -6.719   9.818  66.289  1.00  0.00    -0.087 A  
HETATM   21  C   UNL     1      -6.380  10.073  64.966  1.00  0.00    -0.116 A  
HETATM   22  C   UNL     1      -7.051   9.425  63.927  1.00  0.00    -0.099 A  
HETATM   23 CL   UNL     1      -5.137  11.209  64.613  1.00  0.00     0.106 Cl 
HETATM   24  C   UNL     1      -8.104   8.545  64.216  1.00  0.00    -0.155 A  
ENDBRANCH  13  18
ENDBRANCH   2   4
TORSDOF 2
ENDMDL
MODEL      173
REMARK 921   NORMALIZED FREE ENERGY PREDICTED BY IDOCK:    5.22 KCAL/MOL
REMARK 922        TOTAL FREE ENERGY PREDICTED BY IDOCK:    5.62 KCAL/MOL
REMARK 923 INTER-LIGAND FREE ENERGY PREDICTED BY IDOCK:    5.85 KCAL/MOL
REMARK 924 INTRA-LIGAND FREE ENERGY PREDICTED BY IDOCK:   -0.22 KCAL/MOL
REMARK 927      BINDING AFFINITY PREDICTED BY RF-SCORE:    0.00 PKD
ROOT
HETATM    1  C   UNL     1      -9.160  13.390  70.163  1.00  0.00     3.502 C  
HETATM    2  C   UNL     1     -10.064  14.577  70.471  1.00  0.00     1.139 C  
HETATM    3  C   UNL     1      -9.479  15.407  71.616  1.00  0.00     3.649 C  
ENDROOT
BRANCH   2   4
HETATM    4  N   UNL     1     -10.209  15.418  69.296  1.00  0.00    -0.235 NA 
HETATM    5  C   UNL     1     -11.353  15.947  68.794  1.00  0.00    -0.378 C  
HETATM    6  H   UNL     1      -9.351  15.635  68.788  1.00  0.00     0.000 HD 
HETATM    7  N   UNL     1     -12.526  15.437  68.932  1.00  0.00    -0.524 NA 
HETATM    8  N   UNL     1     -11.200  17.106  68.090  1.00  0.00    -0.122 NA 
HETATM    9  H1  UNL     1     -13.386  15.835  68.554  1.00  0.00     0.000 HD 
HETATM   10  H2  UNL     1     -12.602  14.566  69.459  1.00  0.00     0.000 HD 
HETATM   11  C   UNL     1     -10.219  18.053  68.070  1.00  0.00    -0.382 C  
HETATM   12  H   UNL     1     -11.971  17.303  67.453  1.00  0.00     0.000 HD 
HETATM   13  N   UNL     1     -10.221  18.873  66.969  1.00  0.00    -0.354 NA 
HETATM   14  N   UNL     1      -9.322  18.146  69.009  1.00  0.00    -0.155 NA 
HETATM   15  H1  UNL     1      -8.588  18.855  68.993  1.00  0.00     0.000 HD 
HETATM   16  H2  UNL     1      -9.354  17.488  69.787  1.00  0.00     0.000 HD 
HETATM   17  H   UNL     1     -11.102  19.133  66.525  1.00  0.00     0.000 HD 
BRANCH  13  18
HETATM   18  C   UNL     1      -8.992  19.358  66.450  1.00  0.00    -0.363 A  
HETATM   19  C   UNL     1      -8.694  20.730  66.454  1.00  0.00     0.265 A  
HETATM   20  C   UNL     1      -7.518  21.212  65.879  1.00  0.00     0.674 A  
HETATM   21  C   UNL     1      -6.611  20.316  65.329  1.00  0.00    -0.286 A  
HETATM   22  C   UNL     1      -6.849  18.942  65.391  1.00  0.00    -0.205 A  
HETATM   23 CL   UNL     1      -5.196  20.911  64.551  1.00  0.00    -0.232 Cl 
HETATM   24  C   UNL     1      -8.032  18.462  65.971  1.00  0.00    -0.146 A  
ENDBRANCH  13  18
ENDBRANCH   2   4
TORSDOF 2
ENDMDL
MODEL      174
REMARK 921   NORMALIZED FREE ENERGY PREDICTED BY IDOCK:    5.30 KCAL/MOL
REMARK 922        TOTAL FREE ENERGY PREDICTED BY IDOCK:    5.71 KCAL/MOL
REMARK 923 INTER-LIGAND FREE ENERGY PREDICTED BY IDOCK:    4.27 KCAL/MOL
REMARK 924 INTRA-LIGAND FREE ENERGY PREDICTED BY IDOCK:    1.43 KCAL/MOL
REMARK 927      BINDING AFFINITY PREDICTED BY RF-SCORE:    0.00 PKD
ROOT
HETATM    1  C   UNL     1     -11.842  18.062  71.848  1.00  0.00     4.983 C  
HETATM    2  C   UNL     1     -11.942  16.545  71.749  1.00  0.00    -0.084 C  
HETATM    3  C   UNL     1     -13.349  16.080  72.130  1.00  0.00    -0.196 C  
ENDROOT
BRANCH   2   4
HETATM    4  N   UNL     1     -11.642  16.108  70.397  1.00  0.00    -0.435 NA 
HETATM    5  C   UNL     1     -10.915  16.765  69.459  1.00  0.00    -0.158 C  
HETATM    6  H   UNL     1     -12.022  15.202  70.122  1.00  0.00     0.000 HD 
HETATM    7  N   UNL     1     -10.784  18.043  69.385  1.00  0.00    -0.137 NA 
HETATM    8  N   UNL     1     -10.299  15.970  68.537  1.00  0.00    -0.233 NA 
HETATM    9  H1  UNL     1     -10.237  18.536  68.679  1.00  0.00     0.000 HD 
HETATM   10  H2  UNL     1     -11.264  18.606  70.088  1.00  0.00     0.000 HD 
HETATM   11  C   UNL     1      -9.945  14.653  68.540  1.00  0.00    -0.235 C  
HETATM   12  H   UNL     1     -10.055  16.456  67.674  1.00  0.00     0.000 HD 
HETATM   13  N   UNL     1      -9.693  14.112  67.303  1.00  0.00    -0.231 NA 
HETATM   14  N   UNL     1      -9.888  13.950  69.634  1.00  0.00     0.056 NA 
HETATM   15  H1  UNL     1      -9.624  12.965  69.637  1.00  0.00     0.000 HD 
HETATM   16  H2  UNL     1     -10.117  14.400  70.521  1.00  0.00     0.000 HD 
HETATM   17  H   UNL     1      -9.277  14.685  66.569  1.00  0.00     0.000 HD 
BRANCH  13  18
HETATM   18  C   UNL     1     -10.015  12.753  67.051  1.00  0.00    -0.231 A  
HETATM   19  C   UNL     1     -10.556  12.352  65.820  1.00  0.00    -0.288 A  
HETATM   20  C   UNL     1     -10.939  11.029  65.599  1.00  0.00    -0.090 A  
HETATM   21  C   UNL     1     -10.746  10.087  66.601  1.00  0.00    -0.058 A  
HETATM   22  C   UNL     1     -10.132  10.448  67.802  1.00  0.00    -0.212 A  
HETATM   23 CL   UNL     1     -11.286   8.471  66.362  1.00  0.00     2.008 Cl 
HETATM   24  C   UNL     1      -9.747  11.779  68.018  1.00  0.00    -0.185 A  
ENDBRANCH  13  18
ENDBRANCH   2   4
TORSDOF 2
ENDMDL
MODEL      175
REMARK 921   NORMALIZED FREE ENERGY PREDICTED BY IDOCK:   10.45 KCAL/MOL
REMARK 922        TOTAL FREE ENERGY PREDICTED BY IDOCK:   11.46 KCAL/MOL
REMARK 923 INTER-LIGAND FREE ENERGY PREDICTED BY IDOCK:   10.07 KCAL/MOL
REMARK 924 INTRA-LIGAND FREE ENERGY PREDICTED BY IDOCK:    1.40 KCAL/MOL
REMARK 927      BINDING AFFINITY PREDICTED BY RF-SCORE:    0.00 PKD
ROOT
HETATM    1  C   UNL     1     -10.517  20.053  72.868  1.00  0.00     4.617 C  
HETATM    2  C   UNL     1     -10.385  18.621  72.366  1.00  0.00     4.262 C  
HETATM    3  C   UNL     1     -11.443  17.729  73.020  1.00  0.00     1.719 C  
ENDROOT
BRANCH   2   4
HETATM    4  N   UNL     1     -10.546  18.576  70.924  1.00  0.00     1.466 NA 
HETATM    5  C   UNL     1     -10.032  19.435  70.008  1.00  0.00     0.591 C  
HETATM    6  H   UNL     1     -11.112  17.811  70.557  1.00  0.00     0.000 HD 
HETATM    7  N   UNL     1      -9.748  20.670  70.230  1.00  0.00     0.791 NA 
HETATM    8  N   UNL     1      -9.821  18.907  68.767  1.00  0.00    -0.397 NA 
HETATM    9  H1  UNL     1      -9.361  21.316  69.540  1.00  0.00     0.000 HD 
HETATM   10  H2  UNL     1      -9.925  21.032  71.167  1.00  0.00     0.000 HD 
HETATM   11  C   UNL     1      -9.670  17.627  68.320  1.00  0.00    -0.315 C  
HETATM   12  H   UNL     1      -9.767  19.607  68.028  1.00  0.00     0.000 HD 
HETATM   13  N   UNL     1      -9.859  17.454  66.971  1.00  0.00    -0.275 NA 
HETATM   14  N   UNL     1      -9.404  16.637  69.122  1.00  0.00    -0.223 NA 
HETATM   15  H1  UNL     1      -9.291  15.680  68.787  1.00  0.00     0.000 HD 
HETATM   16  H2  UNL     1      -9.305  16.824  70.119  1.00  0.00     0.000 HD 
HETATM   17  H   UNL     1      -9.592  18.190  66.318  1.00  0.00     0.000 HD 
BRANCH  13  18
HETATM   18  C   UNL     1     -10.427  16.245  66.491  1.00  0.00    -0.290 A  
HETATM   19  C   UNL     1     -11.050  16.186  65.234  1.00  0.00    -0.187 A  
HETATM   20  C   UNL     1     -11.670  15.017  64.794  1.00  0.00    -0.370 A  
HETATM   21  C   UNL     1     -11.638  13.884  65.596  1.00  0.00    -0.333 A  
HETATM   22  C   UNL     1     -10.952  13.898  66.811  1.00  0.00    -0.301 A  
HETATM   23 CL   UNL     1     -12.468  12.464  65.092  1.00  0.00    -0.439 Cl 
HETATM   24  C   UNL     1     -10.327  15.075  67.249  1.00  0.00    -0.249 A  
ENDBRANCH  13  18
ENDBRANCH   2   4
TORSDOF 2
ENDMDL
MODEL      176
REMARK 921   NORMALIZED FREE ENERGY PREDICTED BY IDOCK:   12.65 KCAL/MOL
REMARK 922        TOTAL FREE ENERGY PREDICTED BY IDOCK:   13.91 KCAL/MOL
REMARK 923 INTER-LIGAND FREE ENERGY PREDICTED BY IDOCK:   13.16 KCAL/MOL
REMARK 924 INTRA-LIGAND FREE ENERGY PREDICTED BY IDOCK:    0.76 KCAL/MOL
REMARK 927      BINDING AFFINITY PREDICTED BY RF-SCORE:    0.00 PKD
ROOT
HETATM    1  C   UNL     1      -9.217  18.992  71.380  1.00  0.00     5.103 C  
HETATM    2  C   UNL     1      -8.473  18.038  70.454  1.00  0.00     3.633 C  
HETATM    3  C   UNL     1      -7.283  17.411  71.183  1.00  0.00     4.976 C  
ENDROOT
BRANCH   2   4
HETATM    4  N   UNL     1      -9.363  16.987  69.994  1.00  0.00     1.126 NA 
HETATM    5  C   UNL     1     -10.201  17.022  68.928  1.00  0.00    -0.322 C  
HETATM    6  H   UNL     1      -9.357  16.123  70.536  1.00  0.00     0.000 HD 
HETATM    7  N   UNL     1     -10.735  18.086  68.441  1.00  0.00    -0.302 NA 
HETATM    8  N   UNL     1     -10.478  15.810  68.364  1.00  0.00    -0.239 NA 
HETATM    9  H1  UNL     1     -11.365  18.111  67.639  1.00  0.00     0.000 HD 
HETATM   10  H2  UNL     1     -10.510  18.974  68.892  1.00  0.00     0.000 HD 
HETATM   11  C   UNL     1      -9.833  14.608  68.393  1.00  0.00    -0.220 C  
HETATM   12  H   UNL     1     -11.336  15.801  67.813  1.00  0.00     0.000 HD 
HETATM   13  N   UNL     1     -10.599  13.527  68.031  1.00  0.00    -0.234 NA 
HETATM   14  N   UNL     1      -8.594  14.491  68.772  1.00  0.00    -0.223 NA 
HETATM   15  H1  UNL     1      -8.112  13.592  68.793  1.00  0.00     0.000 HD 
HETATM   16  H2  UNL     1      -8.086  15.328  69.058  1.00  0.00     0.000 HD 
HETATM   17  H   UNL     1     -11.326  13.627  67.324  1.00  0.00     0.000 HD 
BRANCH  13  18
HETATM   18  C   UNL     1     -10.372  12.268  68.647  1.00  0.00    -0.188 A  
HETATM   19  C   UNL     1     -11.378  11.289  68.688  1.00  0.00    -0.336 A  
HETATM   20  C   UNL     1     -11.178  10.081  69.356  1.00  0.00    -0.235 A  
HETATM   21  C   UNL     1      -9.953   9.829  69.959  1.00  0.00    -0.254 A  
HETATM   22  C   UNL     1      -8.912  10.754  69.858  1.00  0.00     0.619 A  
HETATM   23 CL   UNL     1      -9.728   8.374  70.849  1.00  0.00    -0.199 Cl 
HETATM   24  C   UNL     1      -9.116  11.967  69.183  1.00  0.00     0.453 A  
ENDBRANCH  13  18
ENDBRANCH   2   4
TORSDOF 2
ENDMDL
MODEL      177
REMARK 921   NORMALIZED FREE ENERGY PREDICTED BY IDOCK:   14.10 KCAL/MOL
REMARK 922        TOTAL FREE ENERGY PREDICTED BY IDOCK:   15.54 KCAL/MOL
REMARK 923 INTER-LIGAND FREE ENERGY PREDICTED BY IDOCK:   15.10 KCAL/MOL
REMARK 924 INTRA-LIGAND FREE ENERGY PREDICTED BY IDOCK:    0.44 KCAL/MOL
REMARK 927      BINDING AFFINITY PREDICTED BY RF-SCORE:    0.00 PKD
ROOT
HETATM    1  C   UNL     1     -12.449   9.067  67.988  1.00  0.00     6.557 C  
HETATM    2  C   UNL     1     -12.146   9.774  69.304  1.00  0.00     0.713 C  
HETATM    3  C   UNL     1     -10.717   9.467  69.754  1.00  0.00    -0.250 C  
ENDROOT
BRANCH   2   4
HETATM    4  N   UNL     1     -12.304  11.209  69.152  1.00  0.00    -0.543 NA 
HETATM    5  C   UNL     1     -12.188  12.159  70.113  1.00  0.00    -0.231 C  
HETATM    6  H   UNL     1     -12.527  11.541  68.213  1.00  0.00     0.000 HD 
HETATM    7  N   UNL     1     -12.414  11.975  71.366  1.00  0.00    -0.208 NA 
HETATM    8  N   UNL     1     -11.810  13.393  69.671  1.00  0.00    -0.316 NA 
HETATM    9  H1  UNL     1     -12.327  12.690  72.089  1.00  0.00     0.000 HD 
HETATM   10  H2  UNL     1     -12.702  11.041  71.660  1.00  0.00     0.000 HD 
HETATM   11  C   UNL     1     -11.172  13.815  68.541  1.00  0.00    -0.275 C  
HETATM   12  H   UNL     1     -12.051  14.150  70.311  1.00  0.00     0.000 HD 
HETATM   13  N   UNL     1     -11.301  15.154  68.263  1.00  0.00    -0.313 NA 
HETATM   14  N   UNL     1     -10.520  13.000  67.764  1.00  0.00    -0.224 NA 
HETATM   15  H1  UNL     1     -10.043  13.316  66.919  1.00  0.00     0.000 HD 
HETATM   16  H2  UNL     1     -10.485  12.010  68.008  1.00  0.00     0.000 HD 
HETATM   17  H   UNL     1     -11.361  15.832  69.023  1.00  0.00     0.000 HD 
BRANCH  13  18
HETATM   18  C   UNL     1     -11.353  15.589  66.913  1.00  0.00    -0.079 A  
HETATM   19  C   UNL     1     -10.996  16.900  66.560  1.00  0.00     0.171 A  
HETATM   20  C   UNL     1     -11.116  17.348  65.244  1.00  0.00     0.325 A  
HETATM   21  C   UNL     1     -11.559  16.471  64.263  1.00  0.00     0.333 A  
HETATM   22  C   UNL     1     -11.838  15.140  64.578  1.00  0.00    -0.335 A  
HETATM   23 CL   UNL     1     -11.781  17.040  62.654  1.00  0.00    10.081 Cl 
HETATM   24  C   UNL     1     -11.714  14.694  65.902  1.00  0.00    -0.301 A  
ENDBRANCH  13  18
ENDBRANCH   2   4
TORSDOF 2
ENDMDL
MODEL      178
REMARK 921   NORMALIZED FREE ENERGY PREDICTED BY IDOCK:   22.76 KCAL/MOL
REMARK 922        TOTAL FREE ENERGY PREDICTED BY IDOCK:   25.21 KCAL/MOL
REMARK 923 INTER-LIGAND FREE ENERGY PREDICTED BY IDOCK:   24.04 KCAL/MOL
REMARK 924 INTRA-LIGAND FREE ENERGY PREDICTED BY IDOCK:    1.16 KCAL/MOL
REMARK 927      BINDING AFFINITY PREDICTED BY RF-SCORE:    0.00 PKD
ROOT
HETATM    1  C   UNL     1     -14.320  12.591  70.612  1.00  0.00     4.802 C  
HETATM    2  C   UNL     1     -13.133  13.185  71.360  1.00  0.00    -0.266 C  
HETATM    3  C   UNL     1     -13.462  13.333  72.847  1.00  0.00     0.073 C  
ENDROOT
BRANCH   2   4
HETATM    4  N   UNL     1     -11.967  12.333  71.210  1.00  0.00    -0.000 NA 
HETATM    5  C   UNL     1     -11.207  11.791  72.194  1.00  0.00     6.566 C  
HETATM    6  H   UNL     1     -11.687  12.117  70.253  1.00  0.00     0.000 HD 
HETATM    7  N   UNL     1     -11.049  12.294  73.368  1.00  0.00    11.818 NA 
HETATM    8  N   UNL     1     -10.574  10.627  71.869  1.00  0.00     2.789 NA 
HETATM    9  H1  UNL     1     -10.477  11.885  74.109  1.00  0.00     0.000 HD 
HETATM   10  H2  UNL     1     -11.532  13.168  73.574  1.00  0.00     0.000 HD 
HETATM   11  C   UNL     1     -10.804   9.687  70.908  1.00  0.00    -0.339 C  
HETATM   12  H   UNL     1      -9.770  10.418  72.460  1.00  0.00     0.000 HD 
HETATM   13  N   UNL     1      -9.744   8.856  70.637  1.00  0.00    -0.196 NA 
HETATM   14  N   UNL     1     -11.934   9.608  70.267  1.00  0.00    -0.463 NA 
HETATM   15  H1  UNL     1     -12.106   8.905  69.548  1.00  0.00     0.000 HD 
HETATM   16  H2  UNL     1     -12.674  10.273  70.491  1.00  0.00     0.000 HD 
HETATM   17  H   UNL     1      -9.102   8.586  71.382  1.00  0.00     0.000 HD 
BRANCH  13  18
HETATM   18  C   UNL     1      -9.547   8.376  69.316  1.00  0.00    -0.164 A  
HETATM   19  C   UNL     1      -8.321   8.555  68.655  1.00  0.00    -0.123 A  
HETATM   20  C   UNL     1      -8.152   8.146  67.332  1.00  0.00    -0.122 A  
HETATM   21  C   UNL     1      -9.201   7.520  66.672  1.00  0.00    -0.162 A  
HETATM   22  C   UNL     1     -10.399   7.257  67.339  1.00  0.00    -0.330 A  
HETATM   23 CL   UNL     1      -9.022   7.084  65.017  1.00  0.00     0.322 Cl 
HETATM   24  C   UNL     1     -10.564   7.668  68.670  1.00  0.00    -0.161 A  
ENDBRANCH  13  18
ENDBRANCH   2   4
TORSDOF 2
ENDMDL
MODEL      179
REMARK 921   NORMALIZED FREE ENERGY PREDICTED BY IDOCK:   23.58 KCAL/MOL
REMARK 922        TOTAL FREE ENERGY PREDICTED BY IDOCK:   26.12 KCAL/MOL
REMARK 923 INTER-LIGAND FREE ENERGY PREDICTED BY IDOCK:   25.30 KCAL/MOL
REMARK 924 INTRA-LIGAND FREE ENERGY PREDICTED BY IDOCK:    0.82 KCAL/MOL
REMARK 927      BINDING AFFINITY PREDICTED BY RF-SCORE:    0.00 PKD
ROOT
HETATM    1  C   UNL     1     -12.425   9.142  68.102  1.00  0.00     5.920 C  
HETATM    2  C   UNL     1     -11.702   9.528  69.386  1.00  0.00     0.398 C  
HETATM    3  C   UNL     1     -10.560   8.549  69.667  1.00  0.00    -0.221 C  
ENDROOT
BRANCH   2   4
HETATM    4  N   UNL     1     -11.165  10.872  69.277  1.00  0.00    -0.242 NA 
HETATM    5  C   UNL     1     -10.518  11.420  68.218  1.00  0.00    -0.198 C  
HETATM    6  H   UNL     1     -11.288  11.474  70.091  1.00  0.00     0.000 HD 
HETATM    7  N   UNL     1      -9.832  10.764  67.349  1.00  0.00    -0.174 NA 
HETATM    8  N   UNL     1     -10.623  12.776  68.108  1.00  0.00    -0.222 NA 
HETATM    9  H1  UNL     1      -9.346  11.176  66.553  1.00  0.00     0.000 HD 
HETATM   10  H2  UNL     1      -9.770   9.752  67.467  1.00  0.00     0.000 HD 
HETATM   11  C   UNL     1     -11.518  13.678  68.605  1.00  0.00    -0.307 C  
HETATM   12  H   UNL     1      -9.887  13.200  67.543  1.00  0.00     0.000 HD 
HETATM   13  N   UNL     1     -11.093  14.983  68.607  1.00  0.00    -0.252 NA 
HETATM   14  N   UNL     1     -12.676  13.320  69.079  1.00  0.00     0.378 NA 
HETATM   15  H1  UNL     1     -13.346  13.994  69.451  1.00  0.00     0.000 HD 
HETATM   16  H2  UNL     1     -12.924  12.330  69.079  1.00  0.00     0.000 HD 
HETATM   17  H   UNL     1     -10.481  15.323  67.865  1.00  0.00     0.000 HD 
BRANCH  13  18
HETATM   18  C   UNL     1     -11.509  15.857  69.645  1.00  0.00    -0.346 A  
HETATM   19  C   UNL     1     -11.504  17.249  69.466  1.00  0.00     1.271 A  
HETATM   20  C   UNL     1     -11.844  18.109  70.511  1.00  0.00     6.911 A  
HETATM   21  C   UNL     1     -12.228  17.577  71.735  1.00  0.00     4.639 A  
HETATM   22  C   UNL     1     -12.320  16.195  71.907  1.00  0.00    -0.442 A  
HETATM   23 CL   UNL     1     -12.574  18.634  73.048  1.00  0.00     8.581 Cl 
HETATM   24  C   UNL     1     -11.979  15.334  70.853  1.00  0.00    -0.391 A  
ENDBRANCH  13  18
ENDBRANCH   2   4
TORSDOF 2
ENDMDL
MODEL      180
REMARK 921   NORMALIZED FREE ENERGY PREDICTED BY IDOCK:   31.02 KCAL/MOL
REMARK 922        TOTAL FREE ENERGY PREDICTED BY IDOCK:   34.43 KCAL/MOL
REMARK 923 INTER-LIGAND FREE ENERGY PREDICTED BY IDOCK:   34.07 KCAL/MOL
REMARK 924 INTRA-LIGAND FREE ENERGY PREDICTED BY IDOCK:    0.36 KCAL/MOL
REMARK 927      BINDING AFFINITY PREDICTED BY RF-SCORE:    0.00 PKD
ROOT
HETATM    1  C   UNL     1      -9.370  19.655  73.204  1.00  0.00     4.214 C  
HETATM    2  C   UNL     1      -9.060  18.510  72.248  1.00  0.00    11.071 C  
HETATM    3  C   UNL     1     -10.101  17.398  72.396  1.00  0.00     7.178 C  
ENDROOT
BRANCH   2   4
HETATM    4  N   UNL     1      -9.059  18.986  70.877  1.00  0.00     3.282 NA 
HETATM    5  C   UNL     1      -8.130  19.770  70.275  1.00  0.00     1.182 C  
HETATM    6  H   UNL     1      -9.849  18.698  70.299  1.00  0.00     0.000 HD 
HETATM    7  N   UNL     1      -7.380  20.625  70.878  1.00  0.00     0.779 NA 
HETATM    8  N   UNL     1      -8.021  19.614  68.924  1.00  0.00    -0.307 NA 
HETATM    9  H1  UNL     1      -6.681  21.214  70.425  1.00  0.00     0.000 HD 
HETATM   10  H2  UNL     1      -7.494  20.719  71.888  1.00  0.00     0.000 HD 
HETATM   11  C   UNL     1      -8.373  18.603  68.079  1.00  0.00    -0.277 C  
HETATM   12  H   UNL     1      -7.593  20.410  68.452  1.00  0.00     0.000 HD 
HETATM   13  N   UNL     1      -8.462  18.953  66.754  1.00  0.00    -0.287 NA 
HETATM   14  N   UNL     1      -8.642  17.402  68.503  1.00  0.00    -0.266 NA 
HETATM   15  H1  UNL     1      -8.905  16.646  67.871  1.00  0.00     0.000 HD 
HETATM   16  H2  UNL     1      -8.588  17.211  69.504  1.00  0.00     0.000 HD 
HETATM   17  H   UNL     1      -7.837  19.661  66.368  1.00  0.00     0.000 HD 
BRANCH  13  18
HETATM   18  C   UNL     1      -9.427  18.325  65.924  1.00  0.00     0.146 A  
HETATM   19  C   UNL     1     -10.469  19.061  65.339  1.00  0.00     0.215 A  
HETATM   20  C   UNL     1     -11.458  18.432  64.582  1.00  0.00     3.611 A  
HETATM   21  C   UNL     1     -11.388  17.060  64.376  1.00  0.00     0.860 A  
HETATM   22  C   UNL     1     -10.314  16.323  64.878  1.00  0.00     0.148 A  
HETATM   23 CL   UNL     1     -12.646  16.268  63.509  1.00  0.00     2.332 Cl 
HETATM   24  C   UNL     1      -9.321  16.961  65.636  1.00  0.00     0.191 A  
ENDBRANCH  13  18
ENDBRANCH   2   4
TORSDOF 2
ENDMDL
MODEL      181
REMARK 921   NORMALIZED FREE ENERGY PREDICTED BY IDOCK:   32.43 KCAL/MOL
REMARK 922        TOTAL FREE ENERGY PREDICTED BY IDOCK:   36.01 KCAL/MOL
REMARK 923 INTER-LIGAND FREE ENERGY PREDICTED BY IDOCK:   35.39 KCAL/MOL
REMARK 924 INTRA-LIGAND FREE ENERGY PREDICTED BY IDOCK:    0.62 KCAL/MOL
REMARK 927      BINDING AFFINITY PREDICTED BY RF-SCORE:    0.00 PKD
ROOT
HETATM    1  C   UNL     1      -6.752  14.344  68.672  1.00  0.00    -0.090 C  
HETATM    2  C   UNL     1      -6.596  14.179  70.179  1.00  0.00    -0.034 C  
HETATM    3  C   UNL     1      -7.253  15.350  70.912  1.00  0.00     1.433 C  
ENDROOT
BRANCH   2   4
HETATM    4  N   UNL     1      -7.209  12.937  70.614  1.00  0.00     1.356 NA 
HETATM    5  C   UNL     1      -8.151  12.773  71.576  1.00  0.00    12.216 C  
HETATM    6  H   UNL     1      -6.895  12.089  70.142  1.00  0.00     0.000 HD 
HETATM    7  N   UNL     1      -8.315  13.547  72.591  1.00  0.00    10.689 NA 
HETATM    8  N   UNL     1      -8.961  11.686  71.421  1.00  0.00     9.447 NA 
HETATM    9  H1  UNL     1      -9.024  13.424  73.314  1.00  0.00     0.000 HD 
HETATM   10  H2  UNL     1      -7.687  14.347  72.678  1.00  0.00     0.000 HD 
HETATM   11  C   UNL     1      -9.284  10.921  70.339  1.00  0.00     2.134 C  
HETATM   12  H   UNL     1      -9.414  11.385  72.284  1.00  0.00     0.000 HD 
HETATM   13  N   UNL     1      -9.821   9.691  70.632  1.00  0.00    -0.311 NA 
HETATM   14  N   UNL     1      -9.064  11.313  69.118  1.00  0.00    -0.402 NA 
HETATM   15  H1  UNL     1      -9.305  10.741  68.308  1.00  0.00     0.000 HD 
HETATM   16  H2  UNL     1      -8.634  12.225  68.964  1.00  0.00     0.000 HD 
HETATM   17  H   UNL     1     -10.411   9.573  71.456  1.00  0.00     0.000 HD 
BRANCH  13  18
HETATM   18  C   UNL     1      -9.550   8.585  69.784  1.00  0.00    -0.170 A  
HETATM   19  C   UNL     1     -10.472   8.180  68.806  1.00  0.00    -0.198 A  
HETATM   20  C   UNL     1     -10.237   7.050  68.022  1.00  0.00    -0.217 A  
HETATM   21  C   UNL     1      -9.056   6.338  68.188  1.00  0.00    -0.112 A  
HETATM   22  C   UNL     1      -8.090   6.774  69.097  1.00  0.00    -0.120 A  
HETATM   23 CL   UNL     1      -8.797   4.901  67.277  1.00  0.00    -0.103 Cl 
HETATM   24  C   UNL     1      -8.330   7.911  69.881  1.00  0.00    -0.122 A  
ENDBRANCH  13  18
ENDBRANCH   2   4
TORSDOF 2
ENDMDL
MODEL      182
REMARK 921   NORMALIZED FREE ENERGY PREDICTED BY IDOCK:   41.82 KCAL/MOL
REMARK 922        TOTAL FREE ENERGY PREDICTED BY IDOCK:   46.50 KCAL/MOL
REMARK 923 INTER-LIGAND FREE ENERGY PREDICTED BY IDOCK:   45.56 KCAL/MOL
REMARK 924 INTRA-LIGAND FREE ENERGY PREDICTED BY IDOCK:    0.94 KCAL/MOL
REMARK 927      BINDING AFFINITY PREDICTED BY RF-SCORE:    0.00 PKD
ROOT
HETATM    1  C   UNL     1     -12.922   8.946  68.369  1.00  0.00     9.212 C  
HETATM    2  C   UNL     1     -12.451  10.379  68.582  1.00  0.00     1.424 C  
HETATM    3  C   UNL     1     -13.154  11.320  67.602  1.00  0.00     6.011 C  
ENDROOT
BRANCH   2   4
HETATM    4  N   UNL     1     -12.734  10.804  69.941  1.00  0.00    -0.404 NA 
HETATM    5  C   UNL     1     -12.706  10.047  71.067  1.00  0.00    -0.362 C  
HETATM    6  H   UNL     1     -12.982  11.786  70.064  1.00  0.00     0.000 HD 
HETATM    7  N   UNL     1     -12.920   8.779  71.110  1.00  0.00    -0.512 NA 
HETATM    8  N   UNL     1     -12.436  10.725  72.219  1.00  0.00     0.365 NA 
HETATM    9  H1  UNL     1     -12.899   8.209  71.957  1.00  0.00     0.000 HD 
HETATM   10  H2  UNL     1     -13.125   8.306  70.230  1.00  0.00     0.000 HD 
HETATM   11  C   UNL     1     -11.834  11.923  72.468  1.00  0.00     4.734 C  
HETATM   12  H   UNL     1     -12.745  10.240  73.062  1.00  0.00     0.000 HD 
HETATM   13  N   UNL     1     -12.080  12.454  73.710  1.00  0.00     7.780 NA 
HETATM   14  N   UNL     1     -11.110  12.536  71.577  1.00  0.00     3.512 NA 
HETATM   15  H1  UNL     1     -10.659  13.433  71.763  1.00  0.00     0.000 HD 
HETATM   16  H2  UNL     1     -10.988  12.106  70.660  1.00  0.00     0.000 HD 
HETATM   17  H   UNL     1     -12.201  11.840  74.515  1.00  0.00     0.000 HD 
BRANCH  13  18
HETATM   18  C   UNL     1     -12.164  13.862  73.869  1.00  0.00     2.147 A  
HETATM   19  C   UNL     1     -13.363  14.477  74.262  1.00  0.00     3.113 A  
HETATM   20  C   UNL     1     -13.464  15.865  74.348  1.00  0.00     1.361 A  
HETATM   21  C   UNL     1     -12.351  16.649  74.075  1.00  0.00    -0.293 A  
HETATM   22  C   UNL     1     -11.127  16.053  73.764  1.00  0.00     2.193 A  
HETATM   23 CL   UNL     1     -12.492  18.363  74.105  1.00  0.00     3.036 Cl 
HETATM   24  C   UNL     1     -11.029  14.657  73.682  1.00  0.00     2.238 A  
ENDBRANCH  13  18
ENDBRANCH   2   4
TORSDOF 2
ENDMDL
