MODEL        1
REMARK 921   NORMALIZED FREE ENERGY PREDICTED BY IDOCK:   -6.42 KCAL/MOL
REMARK 922        TOTAL FREE ENERGY PREDICTED BY IDOCK:   -7.92 KCAL/MOL
REMARK 923 INTER-LIGAND FREE ENERGY PREDICTED BY IDOCK:   -7.55 KCAL/MOL
REMARK 924 INTRA-LIGAND FREE ENERGY PREDICTED BY IDOCK:   -0.36 KCAL/MOL
REMARK 927      BINDING AFFINITY PREDICTED BY RF-SCORE:    0.00 PKD
ROOT
HETATM    1  C   UNL     1     -11.788  16.165  71.838  1.00  0.00    -0.605 C  
HETATM    2  C   UNL     1     -12.198  15.642  70.447  1.00  0.00    -0.395 C  
ENDROOT
BRANCH   2   3
HETATM    3  N   UNL     1     -13.226  14.555  70.612  1.00  0.00    -0.270 NA 
HETATM    4  C   UNL     1     -14.315  14.932  71.520  1.00  0.00    -0.539 C  
HETATM    5  C   UNL     1     -12.633  13.306  71.124  1.00  0.00    -0.325 C  
ENDBRANCH   2   3
BRANCH   2   6
HETATM    6  C   UNL     1     -10.903  15.198  69.661  1.00  0.00    -0.286 C  
BRANCH   6   7
HETATM    7  N   UNL     1     -10.920  15.576  68.209  1.00  0.00    -0.291 NA 
HETATM    8  C   UNL     1     -11.242  14.531  67.276  1.00  0.00    -0.332 A  
HETATM    9  C   UNL     1     -11.563  13.216  67.682  1.00  0.00    -0.392 A  
HETATM   10  C   UNL     1     -11.854  12.183  66.777  1.00  0.00    -0.304 A  
HETATM   11  C   UNL     1     -11.846  12.430  65.416  1.00  0.00    -0.460 A  
HETATM   12  C   UNL     1     -11.548  13.710  64.973  1.00  0.00    -0.345 A  
HETATM   13  C   UNL     1     -11.250  14.748  65.881  1.00  0.00    -0.340 A  
HETATM   14  S   UNL     1     -10.895  16.302  65.112  1.00  0.00    -0.223 SA 
HETATM   15  C   UNL     1     -10.535  17.341  66.499  1.00  0.00    -0.260 A  
HETATM   16  C   UNL     1     -10.215  18.672  66.149  1.00  0.00    -0.450 A  
HETATM   17  C   UNL     1      -9.923  19.621  67.116  1.00  0.00    -0.507 A  
HETATM   18  C   UNL     1      -9.935  19.238  68.445  1.00  0.00    -0.502 A  
HETATM   19  C   UNL     1     -10.236  17.908  68.796  1.00  0.00    -0.362 A  
HETATM   20  C   UNL     1     -10.564  16.913  67.845  1.00  0.00    -0.361 A  
ENDBRANCH   6   7
ENDBRANCH   2   6
TORSDOF 3
ENDMDL
MODEL        2
REMARK 921   NORMALIZED FREE ENERGY PREDICTED BY IDOCK:   -6.36 KCAL/MOL
REMARK 922        TOTAL FREE ENERGY PREDICTED BY IDOCK:   -7.84 KCAL/MOL
REMARK 923 INTER-LIGAND FREE ENERGY PREDICTED BY IDOCK:   -7.49 KCAL/MOL
REMARK 924 INTRA-LIGAND FREE ENERGY PREDICTED BY IDOCK:   -0.35 KCAL/MOL
REMARK 927      BINDING AFFINITY PREDICTED BY RF-SCORE:    0.00 PKD
ROOT
HETATM    1  C   UNL     1     -11.808  16.205  71.812  1.00  0.00    -0.581 C  
HETATM    2  C   UNL     1     -12.178  15.636  70.428  1.00  0.00    -0.395 C  
ENDROOT
BRANCH   2   3
HETATM    3  N   UNL     1     -13.150  14.500  70.604  1.00  0.00    -0.319 NA 
HETATM    4  C   UNL     1     -14.279  14.844  71.476  1.00  0.00    -0.527 C  
HETATM    5  C   UNL     1     -12.502  13.302  71.168  1.00  0.00    -0.308 C  
ENDBRANCH   2   3
BRANCH   2   6
HETATM    6  C   UNL     1     -10.855  15.247  69.661  1.00  0.00    -0.286 C  
BRANCH   6   7
HETATM    7  N   UNL     1     -10.886  15.583  68.198  1.00  0.00    -0.285 NA 
HETATM    8  C   UNL     1     -10.585  16.944  67.844  1.00  0.00    -0.361 A  
HETATM    9  C   UNL     1     -10.242  17.925  68.801  1.00  0.00    -0.362 A  
HETATM   10  C   UNL     1      -9.971  19.260  68.467  1.00  0.00    -0.513 A  
HETATM   11  C   UNL     1     -10.023  19.670  67.146  1.00  0.00    -0.507 A  
HETATM   12  C   UNL     1     -10.345  18.738  66.172  1.00  0.00    -0.494 A  
HETATM   13  C   UNL     1     -10.623  17.395  66.507  1.00  0.00    -0.184 A  
HETATM   14  S   UNL     1     -11.014  16.369  65.119  1.00  0.00    -0.121 SA 
HETATM   15  C   UNL     1     -11.338  14.805  65.880  1.00  0.00    -0.331 A  
HETATM   16  C   UNL     1     -11.679  13.783  64.965  1.00  0.00    -0.356 A  
HETATM   17  C   UNL     1     -11.949  12.493  65.393  1.00  0.00    -0.492 A  
HETATM   18  C   UNL     1     -11.892  12.218  66.747  1.00  0.00    -0.349 A  
HETATM   19  C   UNL     1     -11.570  13.238  67.663  1.00  0.00    -0.386 A  
HETATM   20  C   UNL     1     -11.264  14.562  67.270  1.00  0.00    -0.332 A  
ENDBRANCH   6   7
ENDBRANCH   2   6
TORSDOF 3
ENDMDL
MODEL        3
REMARK 921   NORMALIZED FREE ENERGY PREDICTED BY IDOCK:   -6.16 KCAL/MOL
REMARK 922        TOTAL FREE ENERGY PREDICTED BY IDOCK:   -7.61 KCAL/MOL
REMARK 923 INTER-LIGAND FREE ENERGY PREDICTED BY IDOCK:   -7.20 KCAL/MOL
REMARK 924 INTRA-LIGAND FREE ENERGY PREDICTED BY IDOCK:   -0.41 KCAL/MOL
REMARK 927      BINDING AFFINITY PREDICTED BY RF-SCORE:    0.00 PKD
ROOT
HETATM    1  C   UNL     1     -10.572   9.371  69.238  1.00  0.00    -0.239 C  
HETATM    2  C   UNL     1     -11.078  10.450  70.216  1.00  0.00    -0.307 C  
ENDROOT
BRANCH   2   3
HETATM    3  N   UNL     1     -11.435   9.800  71.526  1.00  0.00    -0.366 NA 
HETATM    4  C   UNL     1     -10.572   8.659  71.851  1.00  0.00    -0.340 C  
HETATM    5  C   UNL     1     -12.830   9.321  71.543  1.00  0.00    -0.354 C  
ENDBRANCH   2   3
BRANCH   2   6
HETATM    6  C   UNL     1     -12.264  11.242  69.539  1.00  0.00    -0.256 C  
BRANCH   6   7
HETATM    7  N   UNL     1     -11.979  12.704  69.347  1.00  0.00    -0.289 NA 
HETATM    8  C   UNL     1     -12.362  13.579  70.422  1.00  0.00    -0.327 A  
HETATM    9  C   UNL     1     -12.947  13.110  71.620  1.00  0.00    -0.429 A  
HETATM   10  C   UNL     1     -13.346  13.960  72.662  1.00  0.00    -0.640 A  
HETATM   11  C   UNL     1     -13.166  15.327  72.552  1.00  0.00    -0.527 A  
HETATM   12  C   UNL     1     -12.585  15.831  71.398  1.00  0.00    -0.516 A  
HETATM   13  C   UNL     1     -12.188  14.978  70.346  1.00  0.00    -0.341 A  
HETATM   14  S   UNL     1     -11.471  15.820  68.964  1.00  0.00    -0.403 SA 
HETATM   15  C   UNL     1     -11.132  14.494  67.842  1.00  0.00    -0.279 A  
HETATM   16  C   UNL     1     -10.538  14.908  66.629  1.00  0.00    -0.305 A  
HETATM   17  C   UNL     1     -10.194  13.993  65.647  1.00  0.00    -0.351 A  
HETATM   18  C   UNL     1     -10.455  12.653  65.867  1.00  0.00    -0.295 A  
HETATM   19  C   UNL     1     -11.063  12.239  67.068  1.00  0.00    -0.339 A  
HETATM   20  C   UNL     1     -11.410  13.134  68.107  1.00  0.00    -0.292 A  
ENDBRANCH   6   7
ENDBRANCH   2   6
TORSDOF 3
ENDMDL
MODEL        4
REMARK 921   NORMALIZED FREE ENERGY PREDICTED BY IDOCK:   -6.06 KCAL/MOL
REMARK 922        TOTAL FREE ENERGY PREDICTED BY IDOCK:   -7.49 KCAL/MOL
REMARK 923 INTER-LIGAND FREE ENERGY PREDICTED BY IDOCK:   -7.09 KCAL/MOL
REMARK 924 INTRA-LIGAND FREE ENERGY PREDICTED BY IDOCK:   -0.40 KCAL/MOL
REMARK 927      BINDING AFFINITY PREDICTED BY RF-SCORE:    0.00 PKD
ROOT
HETATM    1  C   UNL     1     -10.942  11.983  65.920  1.00  0.00    -0.342 C  
HETATM    2  C   UNL     1     -11.700  12.682  67.066  1.00  0.00    -0.369 C  
ENDROOT
BRANCH   2   3
HETATM    3  N   UNL     1     -12.122  14.055  66.614  1.00  0.00    -0.450 NA 
HETATM    4  C   UNL     1     -12.567  14.084  65.216  1.00  0.00    -0.470 C  
HETATM    5  C   UNL     1     -11.036  15.042  66.755  1.00  0.00    -0.323 C  
ENDBRANCH   2   3
BRANCH   2   6
HETATM    6  C   UNL     1     -10.797  12.673  68.360  1.00  0.00    -0.245 C  
BRANCH   6   7
HETATM    7  N   UNL     1     -11.468  12.065  69.558  1.00  0.00    -0.291 NA 
HETATM    8  C   UNL     1     -11.291  10.651  69.745  1.00  0.00    -0.301 A  
HETATM    9  C   UNL     1     -10.505   9.857  68.880  1.00  0.00    -0.229 A  
HETATM   10  C   UNL     1     -10.347   8.472  69.040  1.00  0.00    -0.229 A  
HETATM   11  C   UNL     1     -10.970   7.820  70.090  1.00  0.00    -0.246 A  
HETATM   12  C   UNL     1     -11.742   8.561  70.970  1.00  0.00    -0.310 A  
HETATM   13  C   UNL     1     -11.906   9.954  70.807  1.00  0.00    -0.330 A  
HETATM   14  S   UNL     1     -12.932  10.710  72.036  1.00  0.00    -0.214 SA 
HETATM   15  C   UNL     1     -12.956  12.403  71.522  1.00  0.00    -0.285 A  
HETATM   16  C   UNL     1     -13.723  13.245  72.359  1.00  0.00    -0.678 A  
HETATM   17  C   UNL     1     -13.835  14.603  72.109  1.00  0.00    -0.569 A  
HETATM   18  C   UNL     1     -13.187  15.129  71.006  1.00  0.00    -0.510 A  
HETATM   19  C   UNL     1     -12.436  14.291  70.160  1.00  0.00    -0.393 A  
HETATM   20  C   UNL     1     -12.275  12.904  70.390  1.00  0.00    -0.304 A  
ENDBRANCH   6   7
ENDBRANCH   2   6
TORSDOF 3
ENDMDL
MODEL        5
REMARK 921   NORMALIZED FREE ENERGY PREDICTED BY IDOCK:   -6.06 KCAL/MOL
REMARK 922        TOTAL FREE ENERGY PREDICTED BY IDOCK:   -7.48 KCAL/MOL
REMARK 923 INTER-LIGAND FREE ENERGY PREDICTED BY IDOCK:   -7.19 KCAL/MOL
REMARK 924 INTRA-LIGAND FREE ENERGY PREDICTED BY IDOCK:   -0.29 KCAL/MOL
REMARK 927      BINDING AFFINITY PREDICTED BY RF-SCORE:    0.00 PKD
ROOT
HETATM    1  C   UNL     1     -10.292   9.323  70.474  1.00  0.00    -0.312 C  
HETATM    2  C   UNL     1     -11.439  10.128  71.116  1.00  0.00    -0.307 C  
ENDROOT
BRANCH   2   3
HETATM    3  N   UNL     1     -12.108   9.282  72.167  1.00  0.00    -0.329 NA 
HETATM    4  C   UNL     1     -11.483   7.963  72.321  1.00  0.00    -0.348 C  
HETATM    5  C   UNL     1     -13.537   9.066  71.876  1.00  0.00    -0.431 C  
ENDBRANCH   2   3
BRANCH   2   6
HETATM    6  C   UNL     1     -12.408  10.638  69.979  1.00  0.00    -0.269 C  
BRANCH   6   7
HETATM    7  N   UNL     1     -12.153  12.058  69.564  1.00  0.00    -0.252 NA 
HETATM    8  C   UNL     1     -11.502  12.250  68.296  1.00  0.00    -0.315 A  
HETATM    9  C   UNL     1     -11.142  11.177  67.451  1.00  0.00    -0.370 A  
HETATM   10  C   UNL     1     -10.485  11.355  66.224  1.00  0.00    -0.301 A  
HETATM   11  C   UNL     1     -10.167  12.627  65.784  1.00  0.00    -0.288 A  
HETATM   12  C   UNL     1     -10.512  13.711  66.577  1.00  0.00    -0.281 A  
HETATM   13  C   UNL     1     -11.169  13.534  67.814  1.00  0.00    -0.282 A  
HETATM   14  S   UNL     1     -11.518  15.044  68.670  1.00  0.00    -0.326 SA 
HETATM   15  C   UNL     1     -12.286  14.469  70.157  1.00  0.00    -0.342 A  
HETATM   16  C   UNL     1     -12.675  15.505  71.037  1.00  0.00    -0.526 A  
HETATM   17  C   UNL     1     -13.305  15.229  72.240  1.00  0.00    -0.526 A  
HETATM   18  C   UNL     1     -13.539  13.910  72.579  1.00  0.00    -0.680 A  
HETATM   19  C   UNL     1     -13.137  12.874  71.713  1.00  0.00    -0.458 A  
HETATM   20  C   UNL     1     -12.513  13.109  70.465  1.00  0.00    -0.248 A  
ENDBRANCH   6   7
ENDBRANCH   2   6
TORSDOF 3
ENDMDL
MODEL        6
REMARK 921   NORMALIZED FREE ENERGY PREDICTED BY IDOCK:   -6.05 KCAL/MOL
REMARK 922        TOTAL FREE ENERGY PREDICTED BY IDOCK:   -7.48 KCAL/MOL
REMARK 923 INTER-LIGAND FREE ENERGY PREDICTED BY IDOCK:   -7.08 KCAL/MOL
REMARK 924 INTRA-LIGAND FREE ENERGY PREDICTED BY IDOCK:   -0.40 KCAL/MOL
REMARK 927      BINDING AFFINITY PREDICTED BY RF-SCORE:    0.00 PKD
ROOT
HETATM    1  C   UNL     1     -10.507  17.126  68.453  1.00  0.00    -0.376 C  
HETATM    2  C   UNL     1     -10.351  15.698  67.892  1.00  0.00    -0.259 C  
ENDROOT
BRANCH   2   3
HETATM    3  N   UNL     1      -9.646  15.764  66.564  1.00  0.00    -0.247 NA 
HETATM    4  C   UNL     1      -8.723  16.901  66.463  1.00  0.00    -0.269 C  
HETATM    5  C   UNL     1     -10.595  15.861  65.439  1.00  0.00    -0.419 C  
ENDBRANCH   2   3
BRANCH   2   6
HETATM    6  C   UNL     1     -11.769  15.007  67.842  1.00  0.00    -0.289 C  
BRANCH   6   7
HETATM    7  N   UNL     1     -11.902  13.839  68.776  1.00  0.00    -0.346 NA 
HETATM    8  C   UNL     1     -11.505  12.556  68.261  1.00  0.00    -0.308 A  
HETATM    9  C   UNL     1     -10.981  12.383  66.960  1.00  0.00    -0.303 A  
HETATM   10  C   UNL     1     -10.614  11.132  66.441  1.00  0.00    -0.315 A  
HETATM   11  C   UNL     1     -10.749   9.993  67.215  1.00  0.00    -0.309 A  
HETATM   12  C   UNL     1     -11.248  10.118  68.502  1.00  0.00    -0.226 A  
HETATM   13  C   UNL     1     -11.623  11.375  69.023  1.00  0.00    -0.317 A  
HETATM   14  S   UNL     1     -12.237  11.315  70.682  1.00  0.00    -0.379 SA 
HETATM   15  C   UNL     1     -12.640  13.009  71.001  1.00  0.00    -0.299 A  
HETATM   16  C   UNL     1     -13.162  13.240  72.294  1.00  0.00    -0.567 A  
HETATM   17  C   UNL     1     -13.514  14.513  72.711  1.00  0.00    -0.575 A  
HETATM   18  C   UNL     1     -13.360  15.567  71.830  1.00  0.00    -0.577 A  
HETATM   19  C   UNL     1     -12.857  15.338  70.534  1.00  0.00    -0.421 A  
HETATM   20  C   UNL     1     -12.462  14.060  70.074  1.00  0.00    -0.281 A  
ENDBRANCH   6   7
ENDBRANCH   2   6
TORSDOF 3
ENDMDL
MODEL        7
REMARK 921   NORMALIZED FREE ENERGY PREDICTED BY IDOCK:   -6.05 KCAL/MOL
REMARK 922        TOTAL FREE ENERGY PREDICTED BY IDOCK:   -7.48 KCAL/MOL
REMARK 923 INTER-LIGAND FREE ENERGY PREDICTED BY IDOCK:   -7.07 KCAL/MOL
REMARK 924 INTRA-LIGAND FREE ENERGY PREDICTED BY IDOCK:   -0.41 KCAL/MOL
REMARK 927      BINDING AFFINITY PREDICTED BY RF-SCORE:    0.00 PKD
ROOT
HETATM    1  C   UNL     1     -10.985  12.002  65.948  1.00  0.00    -0.342 C  
HETATM    2  C   UNL     1     -11.759  12.769  67.039  1.00  0.00    -0.374 C  
ENDROOT
BRANCH   2   3
HETATM    3  N   UNL     1     -12.109  14.140  66.526  1.00  0.00    -0.446 NA 
HETATM    4  C   UNL     1     -12.458  14.144  65.100  1.00  0.00    -0.439 C  
HETATM    5  C   UNL     1     -11.005  15.099  66.715  1.00  0.00    -0.321 C  
ENDBRANCH   2   3
BRANCH   2   6
HETATM    6  C   UNL     1     -10.909  12.770  68.369  1.00  0.00    -0.249 C  
BRANCH   6   7
HETATM    7  N   UNL     1     -11.605  12.121  69.530  1.00  0.00    -0.312 NA 
HETATM    8  C   UNL     1     -12.368  12.988  70.387  1.00  0.00    -0.277 A  
HETATM    9  C   UNL     1     -12.499  14.375  70.152  1.00  0.00    -0.395 A  
HETATM   10  C   UNL     1     -13.221  15.231  70.997  1.00  0.00    -0.546 A  
HETATM   11  C   UNL     1     -13.856  14.727  72.118  1.00  0.00    -0.578 A  
HETATM   12  C   UNL     1     -13.763  13.369  72.382  1.00  0.00    -0.698 A  
HETATM   13  C   UNL     1     -13.033  12.507  71.535  1.00  0.00    -0.280 A  
HETATM   14  S   UNL     1     -13.039  10.814  72.050  1.00  0.00    -0.202 SA 
HETATM   15  C   UNL     1     -12.026  10.039  70.823  1.00  0.00    -0.335 A  
HETATM   16  C   UNL     1     -11.869   8.646  71.006  1.00  0.00    -0.303 A  
HETATM   17  C   UNL     1     -11.119   7.884  70.125  1.00  0.00    -0.204 A  
HETATM   18  C   UNL     1     -10.507   8.515  69.057  1.00  0.00    -0.216 A  
HETATM   19  C   UNL     1     -10.647   9.905  68.881  1.00  0.00    -0.239 A  
HETATM   20  C   UNL     1     -11.422  10.718  69.741  1.00  0.00    -0.311 A  
ENDBRANCH   6   7
ENDBRANCH   2   6
TORSDOF 3
ENDMDL
MODEL        8
REMARK 921   NORMALIZED FREE ENERGY PREDICTED BY IDOCK:   -6.04 KCAL/MOL
REMARK 922        TOTAL FREE ENERGY PREDICTED BY IDOCK:   -7.47 KCAL/MOL
REMARK 923 INTER-LIGAND FREE ENERGY PREDICTED BY IDOCK:   -7.07 KCAL/MOL
REMARK 924 INTRA-LIGAND FREE ENERGY PREDICTED BY IDOCK:   -0.40 KCAL/MOL
REMARK 927      BINDING AFFINITY PREDICTED BY RF-SCORE:    0.00 PKD
ROOT
HETATM    1  C   UNL     1     -10.319   9.408  69.128  1.00  0.00    -0.221 C  
HETATM    2  C   UNL     1     -10.932  10.449  70.085  1.00  0.00    -0.300 C  
ENDROOT
BRANCH   2   3
HETATM    3  N   UNL     1     -11.247   9.786  71.399  1.00  0.00    -0.352 NA 
HETATM    4  C   UNL     1     -10.287   8.734  71.753  1.00  0.00    -0.343 C  
HETATM    5  C   UNL     1     -12.591   9.181  71.405  1.00  0.00    -0.323 C  
ENDBRANCH   2   3
BRANCH   2   6
HETATM    6  C   UNL     1     -12.175  11.124  69.383  1.00  0.00    -0.259 C  
BRANCH   6   7
HETATM    7  N   UNL     1     -12.036  12.609  69.211  1.00  0.00    -0.278 NA 
HETATM    8  C   UNL     1     -11.474  13.061  67.967  1.00  0.00    -0.309 A  
HETATM    9  C   UNL     1     -11.097  12.178  66.931  1.00  0.00    -0.348 A  
HETATM   10  C   UNL     1     -10.526  12.610  65.724  1.00  0.00    -0.299 A  
HETATM   11  C   UNL     1     -10.316  13.958  65.499  1.00  0.00    -0.347 A  
HETATM   12  C   UNL     1     -10.682  14.863  66.484  1.00  0.00    -0.309 A  
HETATM   13  C   UNL     1     -11.252  14.429  67.701  1.00  0.00    -0.313 A  
HETATM   14  S   UNL     1     -11.645  15.741  68.822  1.00  0.00    -0.370 SA 
HETATM   15  C   UNL     1     -12.286  14.867  70.222  1.00  0.00    -0.335 A  
HETATM   16  C   UNL     1     -12.687  15.706  71.286  1.00  0.00    -0.537 A  
HETATM   17  C   UNL     1     -13.226  15.183  72.451  1.00  0.00    -0.491 A  
HETATM   18  C   UNL     1     -13.355  13.812  72.565  1.00  0.00    -0.656 A  
HETATM   19  C   UNL     1     -12.940  12.972  71.513  1.00  0.00    -0.398 A  
HETATM   20  C   UNL     1     -12.407  13.461  70.298  1.00  0.00    -0.284 A  
ENDBRANCH   6   7
ENDBRANCH   2   6
TORSDOF 3
ENDMDL
MODEL        9
REMARK 921   NORMALIZED FREE ENERGY PREDICTED BY IDOCK:   -6.02 KCAL/MOL
REMARK 922        TOTAL FREE ENERGY PREDICTED BY IDOCK:   -7.44 KCAL/MOL
REMARK 923 INTER-LIGAND FREE ENERGY PREDICTED BY IDOCK:   -7.07 KCAL/MOL
REMARK 924 INTRA-LIGAND FREE ENERGY PREDICTED BY IDOCK:   -0.38 KCAL/MOL
REMARK 927      BINDING AFFINITY PREDICTED BY RF-SCORE:    0.00 PKD
ROOT
HETATM    1  C   UNL     1     -10.345  16.953  68.405  1.00  0.00    -0.338 C  
HETATM    2  C   UNL     1     -10.308  15.510  67.862  1.00  0.00    -0.250 C  
ENDROOT
BRANCH   2   3
HETATM    3  N   UNL     1      -9.615  15.503  66.526  1.00  0.00    -0.254 NA 
HETATM    4  C   UNL     1      -8.567  16.525  66.421  1.00  0.00    -0.312 C  
HETATM    5  C   UNL     1     -10.558  15.719  65.413  1.00  0.00    -0.421 C  
ENDBRANCH   2   3
BRANCH   2   6
HETATM    6  C   UNL     1     -11.777  14.934  67.836  1.00  0.00    -0.321 C  
BRANCH   6   7
HETATM    7  N   UNL     1     -11.970  13.735  68.719  1.00  0.00    -0.361 NA 
HETATM    8  C   UNL     1     -12.518  13.981  70.025  1.00  0.00    -0.281 A  
HETATM    9  C   UNL     1     -12.897  15.269  70.466  1.00  0.00    -0.421 A  
HETATM   10  C   UNL     1     -13.411  15.520  71.747  1.00  0.00    -0.577 A  
HETATM   11  C   UNL     1     -13.577  14.481  72.646  1.00  0.00    -0.577 A  
HETATM   12  C   UNL     1     -13.228  13.198  72.251  1.00  0.00    -0.555 A  
HETATM   13  C   UNL     1     -12.707  12.944  70.964  1.00  0.00    -0.251 A  
HETATM   14  S   UNL     1     -12.325  11.242  70.663  1.00  0.00    -0.370 SA 
HETATM   15  C   UNL     1     -11.674  11.284  69.017  1.00  0.00    -0.342 A  
HETATM   16  C   UNL     1     -11.286  10.018  68.523  1.00  0.00    -0.180 A  
HETATM   17  C   UNL     1     -10.770   9.871  67.245  1.00  0.00    -0.304 A  
HETATM   18  C   UNL     1     -10.625  10.996  66.455  1.00  0.00    -0.310 A  
HETATM   19  C   UNL     1     -10.994  12.261  66.950  1.00  0.00    -0.312 A  
HETATM   20  C   UNL     1     -11.547  12.456  68.238  1.00  0.00    -0.333 A  
ENDBRANCH   6   7
ENDBRANCH   2   6
TORSDOF 3
ENDMDL
MODEL       10
REMARK 921   NORMALIZED FREE ENERGY PREDICTED BY IDOCK:   -5.86 KCAL/MOL
REMARK 922        TOTAL FREE ENERGY PREDICTED BY IDOCK:   -7.25 KCAL/MOL
REMARK 923 INTER-LIGAND FREE ENERGY PREDICTED BY IDOCK:   -7.08 KCAL/MOL
REMARK 924 INTRA-LIGAND FREE ENERGY PREDICTED BY IDOCK:   -0.17 KCAL/MOL
REMARK 927      BINDING AFFINITY PREDICTED BY RF-SCORE:    0.00 PKD
ROOT
HETATM    1  C   UNL     1     -10.011   9.753  70.100  1.00  0.00    -0.315 C  
HETATM    2  C   UNL     1     -11.330  10.020  70.853  1.00  0.00    -0.361 C  
ENDROOT
BRANCH   2   3
HETATM    3  N   UNL     1     -11.778   8.751  71.528  1.00  0.00    -0.288 NA 
HETATM    4  C   UNL     1     -13.023   8.917  72.286  1.00  0.00    -0.419 C  
HETATM    5  C   UNL     1     -10.758   8.228  72.456  1.00  0.00    -0.341 C  
ENDBRANCH   2   3
BRANCH   2   6
HETATM    6  C   UNL     1     -12.383  10.629  69.847  1.00  0.00    -0.235 C  
BRANCH   6   7
HETATM    7  N   UNL     1     -12.122  12.066  69.500  1.00  0.00    -0.252 NA 
HETATM    8  C   UNL     1     -12.509  13.044  70.480  1.00  0.00    -0.231 A  
HETATM    9  C   UNL     1     -13.077  12.696  71.726  1.00  0.00    -0.461 A  
HETATM   10  C   UNL     1     -13.480  13.645  72.678  1.00  0.00    -0.608 A  
HETATM   11  C   UNL     1     -13.322  14.996  72.421  1.00  0.00    -0.509 A  
HETATM   12  C   UNL     1     -12.759  15.383  71.215  1.00  0.00    -0.501 A  
HETATM   13  C   UNL     1     -12.357  14.429  70.255  1.00  0.00    -0.348 A  
HETATM   14  S   UNL     1     -11.665  15.132  68.785  1.00  0.00    -0.325 SA 
HETATM   15  C   UNL     1     -11.315  13.699  67.806  1.00  0.00    -0.306 A  
HETATM   16  C   UNL     1     -10.738  13.991  66.550  1.00  0.00    -0.281 A  
HETATM   17  C   UNL     1     -10.388  12.982  65.667  1.00  0.00    -0.294 A  
HETATM   18  C   UNL     1     -10.627  11.670  66.030  1.00  0.00    -0.303 A  
HETATM   19  C   UNL     1     -11.218  11.376  67.273  1.00  0.00    -0.370 A  
HETATM   20  C   UNL     1     -11.569  12.371  68.216  1.00  0.00    -0.333 A  
ENDBRANCH   6   7
ENDBRANCH   2   6
TORSDOF 3
ENDMDL
MODEL       11
REMARK 921   NORMALIZED FREE ENERGY PREDICTED BY IDOCK:   -5.82 KCAL/MOL
REMARK 922        TOTAL FREE ENERGY PREDICTED BY IDOCK:   -7.20 KCAL/MOL
REMARK 923 INTER-LIGAND FREE ENERGY PREDICTED BY IDOCK:   -6.81 KCAL/MOL
REMARK 924 INTRA-LIGAND FREE ENERGY PREDICTED BY IDOCK:   -0.40 KCAL/MOL
REMARK 927      BINDING AFFINITY PREDICTED BY RF-SCORE:    0.00 PKD
ROOT
HETATM    1  C   UNL     1     -10.183  10.994  66.066  1.00  0.00    -0.305 C  
HETATM    2  C   UNL     1     -11.189  11.581  67.076  1.00  0.00    -0.300 C  
ENDROOT
BRANCH   2   3
HETATM    3  N   UNL     1     -11.716  12.888  66.546  1.00  0.00    -0.374 NA 
HETATM    4  C   UNL     1     -12.373  12.751  65.242  1.00  0.00    -0.488 C  
HETATM    5  C   UNL     1     -10.649  13.896  66.403  1.00  0.00    -0.280 C  
ENDBRANCH   2   3
BRANCH   2   6
HETATM    6  C   UNL     1     -10.495  11.685  68.490  1.00  0.00    -0.217 C  
BRANCH   6   7
HETATM    7  N   UNL     1     -11.327  11.132  69.611  1.00  0.00    -0.275 NA 
HETATM    8  C   UNL     1     -12.068  12.085  70.392  1.00  0.00    -0.321 A  
HETATM    9  C   UNL     1     -12.057  13.471  70.120  1.00  0.00    -0.425 A  
HETATM   10  C   UNL     1     -12.757  14.411  70.892  1.00  0.00    -0.425 A  
HETATM   11  C   UNL     1     -13.512  13.995  71.975  1.00  0.00    -0.528 A  
HETATM   12  C   UNL     1     -13.560  12.642  72.272  1.00  0.00    -0.508 A  
HETATM   13  C   UNL     1     -12.852  11.697  71.499  1.00  0.00    -0.364 A  
HETATM   14  S   UNL     1     -13.046  10.025  72.048  1.00  0.00    -0.397 SA 
HETATM   15  C   UNL     1     -12.023   9.131  70.913  1.00  0.00    -0.242 A  
HETATM   16  C   UNL     1     -12.004   7.735  71.137  1.00  0.00    -0.312 A  
HETATM   17  C   UNL     1     -11.265   6.887  70.328  1.00  0.00    -0.363 A  
HETATM   18  C   UNL     1     -10.526   7.431  69.295  1.00  0.00    -0.222 A  
HETATM   19  C   UNL     1     -10.528   8.823  69.080  1.00  0.00    -0.230 A  
HETATM   20  C   UNL     1     -11.286   9.725  69.864  1.00  0.00    -0.229 A  
ENDBRANCH   6   7
ENDBRANCH   2   6
TORSDOF 3
ENDMDL
MODEL       12
REMARK 921   NORMALIZED FREE ENERGY PREDICTED BY IDOCK:   -5.79 KCAL/MOL
REMARK 922        TOTAL FREE ENERGY PREDICTED BY IDOCK:   -7.17 KCAL/MOL
REMARK 923 INTER-LIGAND FREE ENERGY PREDICTED BY IDOCK:   -6.94 KCAL/MOL
REMARK 924 INTRA-LIGAND FREE ENERGY PREDICTED BY IDOCK:   -0.23 KCAL/MOL
REMARK 927      BINDING AFFINITY PREDICTED BY RF-SCORE:    0.00 PKD
ROOT
HETATM    1  C   UNL     1     -10.242  11.327  66.000  1.00  0.00    -0.295 C  
HETATM    2  C   UNL     1     -11.314  11.718  67.038  1.00  0.00    -0.321 C  
ENDROOT
BRANCH   2   3
HETATM    3  N   UNL     1     -12.131  12.861  66.498  1.00  0.00    -0.460 NA 
HETATM    4  C   UNL     1     -12.368  12.761  65.053  1.00  0.00    -0.499 C  
HETATM    5  C   UNL     1     -11.494  14.165  66.755  1.00  0.00    -0.369 C  
ENDBRANCH   2   3
BRANCH   2   6
HETATM    6  C   UNL     1     -10.608  12.017  68.417  1.00  0.00    -0.217 C  
BRANCH   6   7
HETATM    7  N   UNL     1     -11.351  11.476  69.604  1.00  0.00    -0.269 NA 
HETATM    8  C   UNL     1     -11.254  10.059  69.831  1.00  0.00    -0.275 A  
HETATM    9  C   UNL     1     -10.478   9.205  69.015  1.00  0.00    -0.238 A  
HETATM   10  C   UNL     1     -10.398   7.818  69.215  1.00  0.00    -0.220 A  
HETATM   11  C   UNL     1     -11.089   7.226  70.257  1.00  0.00    -0.289 A  
HETATM   12  C   UNL     1     -11.854   8.027  71.090  1.00  0.00    -0.307 A  
HETATM   13  C   UNL     1     -11.940   9.422  70.887  1.00  0.00    -0.280 A  
HETATM   14  S   UNL     1     -12.969  10.260  72.058  1.00  0.00    -0.320 SA 
HETATM   15  C   UNL     1     -12.888  11.939  71.503  1.00  0.00    -0.316 A  
HETATM   16  C   UNL     1     -13.641  12.839  72.291  1.00  0.00    -0.563 A  
HETATM   17  C   UNL     1     -13.674  14.194  72.003  1.00  0.00    -0.554 A  
HETATM   18  C   UNL     1     -12.962  14.658  70.913  1.00  0.00    -0.425 A  
HETATM   19  C   UNL     1     -12.225  13.762  70.115  1.00  0.00    -0.425 A  
HETATM   20  C   UNL     1     -12.143  12.375  70.385  1.00  0.00    -0.297 A  
ENDBRANCH   6   7
ENDBRANCH   2   6
TORSDOF 3
ENDMDL
MODEL       13
REMARK 921   NORMALIZED FREE ENERGY PREDICTED BY IDOCK:   -5.77 KCAL/MOL
REMARK 922        TOTAL FREE ENERGY PREDICTED BY IDOCK:   -7.15 KCAL/MOL
REMARK 923 INTER-LIGAND FREE ENERGY PREDICTED BY IDOCK:   -7.17 KCAL/MOL
REMARK 924 INTRA-LIGAND FREE ENERGY PREDICTED BY IDOCK:    0.02 KCAL/MOL
REMARK 927      BINDING AFFINITY PREDICTED BY RF-SCORE:    0.00 PKD
ROOT
HETATM    1  C   UNL     1     -12.908  13.713  65.179  1.00  0.00    -0.382 C  
HETATM    2  C   UNL     1     -11.460  13.651  64.653  1.00  0.00    -0.365 C  
ENDROOT
BRANCH   2   3
HETATM    3  N   UNL     1     -11.399  12.699  63.489  1.00  0.00    -0.481 NA 
HETATM    4  C   UNL     1     -12.602  11.867  63.367  1.00  0.00    -0.431 C  
HETATM    5  C   UNL     1     -10.239  11.792  63.577  1.00  0.00    -0.450 C  
ENDBRANCH   2   3
BRANCH   2   6
HETATM    6  C   UNL     1     -10.495  13.282  65.846  1.00  0.00    -0.285 C  
BRANCH   6   7
HETATM    7  N   UNL     1     -10.816  14.001  67.125  1.00  0.00    -0.283 NA 
HETATM    8  C   UNL     1     -11.328  13.197  68.202  1.00  0.00    -0.292 A  
HETATM    9  C   UNL     1     -11.496  11.798  68.100  1.00  0.00    -0.382 A  
HETATM   10  C   UNL     1     -12.017  11.010  69.138  1.00  0.00    -0.394 A  
HETATM   11  C   UNL     1     -12.386  11.596  70.336  1.00  0.00    -0.373 A  
HETATM   12  C   UNL     1     -12.228  12.965  70.484  1.00  0.00    -0.395 A  
HETATM   13  C   UNL     1     -11.708  13.760  69.439  1.00  0.00    -0.325 A  
HETATM   14  S   UNL     1     -11.589  15.482  69.831  1.00  0.00    -0.365 SA 
HETATM   15  C   UNL     1     -10.956  16.172  68.329  1.00  0.00    -0.340 A  
HETATM   16  C   UNL     1     -10.760  17.570  68.380  1.00  0.00    -0.280 A  
HETATM   17  C   UNL     1     -10.255  18.266  67.293  1.00  0.00    -0.387 A  
HETATM   18  C   UNL     1      -9.953  17.567  66.139  1.00  0.00    -0.280 A  
HETATM   19  C   UNL     1     -10.163  16.176  66.080  1.00  0.00    -0.374 A  
HETATM   20  C   UNL     1     -10.654  15.421  67.171  1.00  0.00    -0.305 A  
ENDBRANCH   6   7
ENDBRANCH   2   6
TORSDOF 3
ENDMDL
MODEL       14
REMARK 921   NORMALIZED FREE ENERGY PREDICTED BY IDOCK:   -5.69 KCAL/MOL
REMARK 922        TOTAL FREE ENERGY PREDICTED BY IDOCK:   -7.06 KCAL/MOL
REMARK 923 INTER-LIGAND FREE ENERGY PREDICTED BY IDOCK:   -6.71 KCAL/MOL
REMARK 924 INTRA-LIGAND FREE ENERGY PREDICTED BY IDOCK:   -0.35 KCAL/MOL
REMARK 927      BINDING AFFINITY PREDICTED BY RF-SCORE:    0.00 PKD
ROOT
HETATM    1  C   UNL     1     -10.101  10.299  65.491  1.00  0.00    -0.351 C  
HETATM    2  C   UNL     1     -10.795  11.563  66.036  1.00  0.00    -0.276 C  
ENDROOT
BRANCH   2   3
HETATM    3  N   UNL     1     -11.261  12.408  64.880  1.00  0.00    -0.302 NA 
HETATM    4  C   UNL     1     -12.643  12.875  65.035  1.00  0.00    -0.472 C  
HETATM    5  C   UNL     1     -11.178  11.683  63.598  1.00  0.00    -0.411 C  
ENDBRANCH   2   3
BRANCH   2   6
HETATM    6  C   UNL     1      -9.814  12.302  67.027  1.00  0.00    -0.205 C  
BRANCH   6   7
HETATM    7  N   UNL     1     -10.487  13.337  67.881  1.00  0.00    -0.235 NA 
HETATM    8  C   UNL     1     -10.301  14.709  67.495  1.00  0.00    -0.234 A  
HETATM    9  C   UNL     1      -9.557  15.090  66.356  1.00  0.00    -0.314 A  
HETATM   10  C   UNL     1      -9.350  16.427  65.986  1.00  0.00    -0.335 A  
HETATM   11  C   UNL     1      -9.894  17.449  66.744  1.00  0.00    -0.297 A  
HETATM   12  C   UNL     1     -10.642  17.122  67.864  1.00  0.00    -0.376 A  
HETATM   13  C   UNL     1     -10.846  15.777  68.240  1.00  0.00    -0.305 A  
HETATM   14  S   UNL     1     -11.827  15.576  69.700  1.00  0.00    -0.366 SA 
HETATM   15  C   UNL     1     -11.852  13.818  69.904  1.00  0.00    -0.327 A  
HETATM   16  C   UNL     1     -12.592  13.382  71.026  1.00  0.00    -0.425 A  
HETATM   17  C   UNL     1     -12.725  12.035  71.322  1.00  0.00    -0.382 A  
HETATM   18  C   UNL     1     -12.105  11.111  70.501  1.00  0.00    -0.474 A  
HETATM   19  C   UNL     1     -11.353  11.543  69.392  1.00  0.00    -0.355 A  
HETATM   20  C   UNL     1     -11.209  12.905  69.038  1.00  0.00    -0.267 A  
ENDBRANCH   6   7
ENDBRANCH   2   6
TORSDOF 3
ENDMDL
MODEL       15
REMARK 921   NORMALIZED FREE ENERGY PREDICTED BY IDOCK:   -5.69 KCAL/MOL
REMARK 922        TOTAL FREE ENERGY PREDICTED BY IDOCK:   -7.05 KCAL/MOL
REMARK 923 INTER-LIGAND FREE ENERGY PREDICTED BY IDOCK:   -6.73 KCAL/MOL
REMARK 924 INTRA-LIGAND FREE ENERGY PREDICTED BY IDOCK:   -0.32 KCAL/MOL
REMARK 927      BINDING AFFINITY PREDICTED BY RF-SCORE:    0.00 PKD
ROOT
HETATM    1  C   UNL     1     -11.696  15.772  68.903  1.00  0.00    -0.404 C  
HETATM    2  C   UNL     1     -11.022  14.987  67.760  1.00  0.00    -0.298 C  
ENDROOT
BRANCH   2   3
HETATM    3  N   UNL     1     -10.528  15.957  66.719  1.00  0.00    -0.306 NA 
HETATM    4  C   UNL     1      -9.260  15.543  66.109  1.00  0.00    -0.344 C  
HETATM    5  C   UNL     1     -10.334  17.310  67.273  1.00  0.00    -0.331 C  
ENDBRANCH   2   3
BRANCH   2   6
HETATM    6  C   UNL     1     -12.032  13.905  67.213  1.00  0.00    -0.411 C  
BRANCH   6   7
HETATM    7  N   UNL     1     -11.481  12.509  67.221  1.00  0.00    -0.331 NA 
HETATM    8  C   UNL     1     -10.942  12.024  65.979  1.00  0.00    -0.304 A  
HETATM    9  C   UNL     1     -10.890  12.812  64.808  1.00  0.00    -0.335 A  
HETATM   10  C   UNL     1     -10.388  12.339  63.586  1.00  0.00    -0.463 A  
HETATM   11  C   UNL     1      -9.903  11.047  63.488  1.00  0.00    -0.403 A  
HETATM   12  C   UNL     1      -9.924  10.241  64.616  1.00  0.00    -0.377 A  
HETATM   13  C   UNL     1     -10.433  10.714  65.845  1.00  0.00    -0.174 A  
HETATM   14  S   UNL     1     -10.371   9.529  67.158  1.00  0.00    -0.247 SA 
HETATM   15  C   UNL     1     -11.104  10.413  68.505  1.00  0.00    -0.266 A  
HETATM   16  C   UNL     1     -11.172   9.671  69.706  1.00  0.00    -0.208 A  
HETATM   17  C   UNL     1     -11.704  10.221  70.862  1.00  0.00    -0.472 A  
HETATM   18  C   UNL     1     -12.185  11.516  70.820  1.00  0.00    -0.463 A  
HETATM   19  C   UNL     1     -12.134  12.252  69.620  1.00  0.00    -0.277 A  
HETATM   20  C   UNL     1     -11.579  11.741  68.424  1.00  0.00    -0.318 A  
ENDBRANCH   6   7
ENDBRANCH   2   6
TORSDOF 3
ENDMDL
MODEL       16
REMARK 921   NORMALIZED FREE ENERGY PREDICTED BY IDOCK:   -5.69 KCAL/MOL
REMARK 922        TOTAL FREE ENERGY PREDICTED BY IDOCK:   -7.05 KCAL/MOL
REMARK 923 INTER-LIGAND FREE ENERGY PREDICTED BY IDOCK:   -6.73 KCAL/MOL
REMARK 924 INTRA-LIGAND FREE ENERGY PREDICTED BY IDOCK:   -0.32 KCAL/MOL
REMARK 927      BINDING AFFINITY PREDICTED BY RF-SCORE:    0.00 PKD
ROOT
HETATM    1  C   UNL     1     -10.152  10.262  65.544  1.00  0.00    -0.351 C  
HETATM    2  C   UNL     1     -10.776  11.578  66.050  1.00  0.00    -0.281 C  
ENDROOT
BRANCH   2   3
HETATM    3  N   UNL     1     -11.134  12.440  64.869  1.00  0.00    -0.294 NA 
HETATM    4  C   UNL     1     -12.529  12.893  64.895  1.00  0.00    -0.478 C  
HETATM    5  C   UNL     1     -10.917  11.742  63.589  1.00  0.00    -0.439 C  
ENDBRANCH   2   3
BRANCH   2   6
HETATM    6  C   UNL     1      -9.785  12.257  67.074  1.00  0.00    -0.205 C  
BRANCH   6   7
HETATM    7  N   UNL     1     -10.431  13.306  67.932  1.00  0.00    -0.235 NA 
HETATM    8  C   UNL     1     -11.199  12.836  69.052  1.00  0.00    -0.264 A  
HETATM    9  C   UNL     1     -11.327  11.465  69.371  1.00  0.00    -0.365 A  
HETATM   10  C   UNL     1     -12.095  10.997  70.449  1.00  0.00    -0.463 A  
HETATM   11  C   UNL     1     -12.765  11.891  71.264  1.00  0.00    -0.401 A  
HETATM   12  C   UNL     1     -12.658  13.247  70.995  1.00  0.00    -0.408 A  
HETATM   13  C   UNL     1     -11.891  13.719  69.909  1.00  0.00    -0.327 A  
HETATM   14  S   UNL     1     -11.887  15.481  69.738  1.00  0.00    -0.367 SA 
HETATM   15  C   UNL     1     -10.890  15.723  68.296  1.00  0.00    -0.305 A  
HETATM   16  C   UNL     1     -10.723  17.079  67.936  1.00  0.00    -0.348 A  
HETATM   17  C   UNL     1      -9.957  17.445  66.841  1.00  0.00    -0.300 A  
HETATM   18  C   UNL     1      -9.363  16.451  66.085  1.00  0.00    -0.360 A  
HETATM   19  C   UNL     1      -9.542  15.097  66.430  1.00  0.00    -0.309 A  
HETATM   20  C   UNL     1     -10.294  14.679  67.553  1.00  0.00    -0.234 A  
ENDBRANCH   6   7
ENDBRANCH   2   6
TORSDOF 3
ENDMDL
MODEL       17
REMARK 921   NORMALIZED FREE ENERGY PREDICTED BY IDOCK:   -5.67 KCAL/MOL
REMARK 922        TOTAL FREE ENERGY PREDICTED BY IDOCK:   -7.03 KCAL/MOL
REMARK 923 INTER-LIGAND FREE ENERGY PREDICTED BY IDOCK:   -6.72 KCAL/MOL
REMARK 924 INTRA-LIGAND FREE ENERGY PREDICTED BY IDOCK:   -0.31 KCAL/MOL
REMARK 927      BINDING AFFINITY PREDICTED BY RF-SCORE:    0.00 PKD
ROOT
HETATM    1  C   UNL     1     -11.743  15.726  68.933  1.00  0.00    -0.404 C  
HETATM    2  C   UNL     1     -11.106  14.964  67.754  1.00  0.00    -0.309 C  
ENDROOT
BRANCH   2   3
HETATM    3  N   UNL     1     -10.646  15.953  66.718  1.00  0.00    -0.317 NA 
HETATM    4  C   UNL     1      -9.347  15.602  66.131  1.00  0.00    -0.347 C  
HETATM    5  C   UNL     1     -10.531  17.317  67.267  1.00  0.00    -0.319 C  
ENDBRANCH   2   3
BRANCH   2   6
HETATM    6  C   UNL     1     -12.135  13.893  67.220  1.00  0.00    -0.368 C  
BRANCH   6   7
HETATM    7  N   UNL     1     -11.582  12.497  67.174  1.00  0.00    -0.350 NA 
HETATM    8  C   UNL     1     -11.630  11.747  68.399  1.00  0.00    -0.318 A  
HETATM    9  C   UNL     1     -12.194  12.259  69.589  1.00  0.00    -0.175 A  
HETATM   10  C   UNL     1     -12.223  11.542  70.795  1.00  0.00    -0.463 A  
HETATM   11  C   UNL     1     -11.691  10.266  70.857  1.00  0.00    -0.472 A  
HETATM   12  C   UNL     1     -11.138   9.719  69.710  1.00  0.00    -0.272 A  
HETATM   13  C   UNL     1     -11.103  10.441  68.497  1.00  0.00    -0.266 A  
HETATM   14  S   UNL     1     -10.352   9.564  67.155  1.00  0.00    -0.247 SA 
HETATM   15  C   UNL     1     -10.437  10.741  65.836  1.00  0.00    -0.204 A  
HETATM   16  C   UNL     1      -9.893  10.275  64.618  1.00  0.00    -0.396 A  
HETATM   17  C   UNL     1      -9.894  11.066  63.480  1.00  0.00    -0.403 A  
HETATM   18  C   UNL     1     -10.429  12.338  63.557  1.00  0.00    -0.459 A  
HETATM   19  C   UNL     1     -10.956  12.812  64.774  1.00  0.00    -0.334 A  
HETATM   20  C   UNL     1     -10.998  12.032  65.953  1.00  0.00    -0.298 A  
ENDBRANCH   6   7
ENDBRANCH   2   6
TORSDOF 3
ENDMDL
MODEL       18
REMARK 921   NORMALIZED FREE ENERGY PREDICTED BY IDOCK:   -5.48 KCAL/MOL
REMARK 922        TOTAL FREE ENERGY PREDICTED BY IDOCK:   -6.81 KCAL/MOL
REMARK 923 INTER-LIGAND FREE ENERGY PREDICTED BY IDOCK:   -6.45 KCAL/MOL
REMARK 924 INTRA-LIGAND FREE ENERGY PREDICTED BY IDOCK:   -0.36 KCAL/MOL
REMARK 927      BINDING AFFINITY PREDICTED BY RF-SCORE:    0.00 PKD
ROOT
HETATM    1  C   UNL     1     -10.904  15.339  65.056  1.00  0.00    -0.457 C  
HETATM    2  C   UNL     1     -10.575  13.833  65.077  1.00  0.00    -0.389 C  
ENDROOT
BRANCH   2   3
HETATM    3  N   UNL     1     -11.857  13.046  65.035  1.00  0.00    -0.342 NA 
HETATM    4  C   UNL     1     -12.110  12.435  63.725  1.00  0.00    -0.529 C  
HETATM    5  C   UNL     1     -13.027  13.879  65.370  1.00  0.00    -0.326 C  
ENDBRANCH   2   3
BRANCH   2   6
HETATM    6  C   UNL     1      -9.662  13.523  66.327  1.00  0.00    -0.277 C  
BRANCH   6   7
HETATM    7  N   UNL     1     -10.309  12.617  67.334  1.00  0.00    -0.220 NA 
HETATM    8  C   UNL     1     -10.967  13.254  68.443  1.00  0.00    -0.264 A  
HETATM    9  C   UNL     1     -11.046  14.658  68.582  1.00  0.00    -0.276 A  
HETATM   10  C   UNL     1     -11.665  15.287  69.673  1.00  0.00    -0.355 A  
HETATM   11  C   UNL     1     -12.246  14.529  70.674  1.00  0.00    -0.401 A  
HETATM   12  C   UNL     1     -12.202  13.147  70.572  1.00  0.00    -0.405 A  
HETATM   13  C   UNL     1     -11.575  12.512  69.478  1.00  0.00    -0.281 A  
HETATM   14  S   UNL     1     -11.628  10.744  69.541  1.00  0.00    -0.320 SA 
HETATM   15  C   UNL     1     -10.741  10.284  68.079  1.00  0.00    -0.255 A  
HETATM   16  C   UNL     1     -10.641   8.888  67.887  1.00  0.00    -0.244 A  
HETATM   17  C   UNL     1      -9.991   8.358  66.783  1.00  0.00    -0.354 A  
HETATM   18  C   UNL     1      -9.424   9.225  65.868  1.00  0.00    -0.325 A  
HETATM   19  C   UNL     1      -9.508  10.617  66.066  1.00  0.00    -0.233 A  
HETATM   20  C   UNL     1     -10.181  11.202  67.164  1.00  0.00    -0.200 A  
ENDBRANCH   6   7
ENDBRANCH   2   6
TORSDOF 3
ENDMDL
MODEL       19
REMARK 921   NORMALIZED FREE ENERGY PREDICTED BY IDOCK:   -5.48 KCAL/MOL
REMARK 922        TOTAL FREE ENERGY PREDICTED BY IDOCK:   -6.80 KCAL/MOL
REMARK 923 INTER-LIGAND FREE ENERGY PREDICTED BY IDOCK:   -6.54 KCAL/MOL
REMARK 924 INTRA-LIGAND FREE ENERGY PREDICTED BY IDOCK:   -0.27 KCAL/MOL
REMARK 927      BINDING AFFINITY PREDICTED BY RF-SCORE:    0.00 PKD
ROOT
HETATM    1  C   UNL     1      -9.812  16.085  67.844  1.00  0.00    -0.226 C  
HETATM    2  C   UNL     1     -10.168  15.517  66.456  1.00  0.00    -0.283 C  
ENDROOT
BRANCH   2   3
HETATM    3  N   UNL     1     -10.201  16.641  65.456  1.00  0.00    -0.596 NA 
HETATM    4  C   UNL     1     -10.288  17.964  66.086  1.00  0.00    -0.352 C  
HETATM    5  C   UNL     1     -11.336  16.518  64.523  1.00  0.00    -0.011 C  
ENDBRANCH   2   3
BRANCH   2   6
HETATM    6  C   UNL     1     -11.516  14.703  66.564  1.00  0.00    -0.351 C  
BRANCH   6   7
HETATM    7  N   UNL     1     -11.316  13.239  66.832  1.00  0.00    -0.305 NA 
HETATM    8  C   UNL     1     -11.640  12.778  68.155  1.00  0.00    -0.336 A  
HETATM    9  C   UNL     1     -12.154  13.630  69.158  1.00  0.00    -0.361 A  
HETATM   10  C   UNL     1     -12.449  13.192  70.458  1.00  0.00    -0.322 A  
HETATM   11  C   UNL     1     -12.249  11.869  70.808  1.00  0.00    -0.401 A  
HETATM   12  C   UNL     1     -11.757  10.994  69.851  1.00  0.00    -0.424 A  
HETATM   13  C   UNL     1     -11.455  11.434  68.544  1.00  0.00    -0.297 A  
HETATM   14  S   UNL     1     -10.837  10.162  67.479  1.00  0.00    -0.251 SA 
HETATM   15  C   UNL     1     -10.531  11.041  65.973  1.00  0.00    -0.245 A  
HETATM   16  C   UNL     1     -10.023  10.233  64.931  1.00  0.00    -0.393 A  
HETATM   17  C   UNL     1      -9.744  10.761  63.681  1.00  0.00    -0.376 A  
HETATM   18  C   UNL     1      -9.958  12.110  63.468  1.00  0.00    -0.341 A  
HETATM   19  C   UNL     1     -10.448  12.922  64.509  1.00  0.00    -0.400 A  
HETATM   20  C   UNL     1     -10.770  12.422  65.793  1.00  0.00    -0.267 A  
ENDBRANCH   6   7
ENDBRANCH   2   6
TORSDOF 3
ENDMDL
MODEL       20
REMARK 921   NORMALIZED FREE ENERGY PREDICTED BY IDOCK:   -5.47 KCAL/MOL
REMARK 922        TOTAL FREE ENERGY PREDICTED BY IDOCK:   -6.80 KCAL/MOL
REMARK 923 INTER-LIGAND FREE ENERGY PREDICTED BY IDOCK:   -6.72 KCAL/MOL
REMARK 924 INTRA-LIGAND FREE ENERGY PREDICTED BY IDOCK:   -0.08 KCAL/MOL
REMARK 927      BINDING AFFINITY PREDICTED BY RF-SCORE:    0.00 PKD
ROOT
HETATM    1  C   UNL     1     -10.129  18.840  68.640  1.00  0.00    -0.432 C  
HETATM    2  C   UNL     1      -9.820  17.341  68.457  1.00  0.00    -0.307 C  
ENDROOT
BRANCH   2   3
HETATM    3  N   UNL     1      -8.439  17.188  67.879  1.00  0.00    -0.208 NA 
HETATM    4  C   UNL     1      -7.420  17.931  68.630  1.00  0.00    -0.278 C  
HETATM    5  C   UNL     1      -8.374  17.639  66.476  1.00  0.00    -0.268 C  
ENDBRANCH   2   3
BRANCH   2   6
HETATM    6  C   UNL     1     -10.964  16.682  67.591  1.00  0.00    -0.193 C  
BRANCH   6   7
HETATM    7  N   UNL     1     -11.246  15.252  67.953  1.00  0.00    -0.321 NA 
HETATM    8  C   UNL     1     -11.065  14.278  66.911  1.00  0.00    -0.312 A  
HETATM    9  C   UNL     1     -10.614  14.618  65.615  1.00  0.00    -0.344 A  
HETATM   10  C   UNL     1     -10.459  13.678  64.586  1.00  0.00    -0.442 A  
HETATM   11  C   UNL     1     -10.742  12.343  64.816  1.00  0.00    -0.332 A  
HETATM   12  C   UNL     1     -11.176  11.962  66.076  1.00  0.00    -0.377 A  
HETATM   13  C   UNL     1     -11.338  12.908  67.112  1.00  0.00    -0.306 A  
HETATM   14  S   UNL     1     -11.903  12.217  68.640  1.00  0.00    -0.255 SA 
HETATM   15  C   UNL     1     -12.033  13.645  69.679  1.00  0.00    -0.343 A  
HETATM   16  C   UNL     1     -12.472  13.359  70.992  1.00  0.00    -0.437 A  
HETATM   17  C   UNL     1     -12.613  14.362  71.938  1.00  0.00    -0.413 A  
HETATM   18  C   UNL     1     -12.327  15.664  71.572  1.00  0.00    -0.490 A  
HETATM   19  C   UNL     1     -11.905  15.954  70.260  1.00  0.00    -0.343 A  
HETATM   20  C   UNL     1     -11.724  14.961  69.269  1.00  0.00    -0.316 A  
ENDBRANCH   6   7
ENDBRANCH   2   6
TORSDOF 3
ENDMDL
MODEL       21
REMARK 921   NORMALIZED FREE ENERGY PREDICTED BY IDOCK:   -5.46 KCAL/MOL
REMARK 922        TOTAL FREE ENERGY PREDICTED BY IDOCK:   -6.78 KCAL/MOL
REMARK 923 INTER-LIGAND FREE ENERGY PREDICTED BY IDOCK:   -6.48 KCAL/MOL
REMARK 924 INTRA-LIGAND FREE ENERGY PREDICTED BY IDOCK:   -0.30 KCAL/MOL
REMARK 927      BINDING AFFINITY PREDICTED BY RF-SCORE:    0.00 PKD
ROOT
HETATM    1  C   UNL     1     -11.459  16.298  71.110  1.00  0.00    -0.364 C  
HETATM    2  C   UNL     1     -10.820  15.817  69.792  1.00  0.00    -0.314 C  
ENDROOT
BRANCH   2   3
HETATM    3  N   UNL     1     -10.027  16.944  69.187  1.00  0.00    -0.262 NA 
HETATM    4  C   UNL     1     -10.756  17.652  68.129  1.00  0.00    -0.307 C  
HETATM    5  C   UNL     1      -8.752  16.477  68.612  1.00  0.00    -0.244 C  
ENDBRANCH   2   3
BRANCH   2   6
HETATM    6  C   UNL     1     -11.949  15.240  68.852  1.00  0.00    -0.264 C  
BRANCH   6   7
HETATM    7  N   UNL     1     -11.718  13.816  68.437  1.00  0.00    -0.338 NA 
HETATM    8  C   UNL     1     -11.266  13.605  67.088  1.00  0.00    -0.309 A  
HETATM    9  C   UNL     1     -11.014  14.668  66.191  1.00  0.00    -0.329 A  
HETATM   10  C   UNL     1     -10.597  14.470  64.866  1.00  0.00    -0.450 A  
HETATM   11  C   UNL     1     -10.405  13.188  64.382  1.00  0.00    -0.390 A  
HETATM   12  C   UNL     1     -10.630  12.116  65.231  1.00  0.00    -0.319 A  
HETATM   13  C   UNL     1     -11.054  12.313  66.563  1.00  0.00    -0.299 A  
HETATM   14  S   UNL     1     -11.286  10.814  67.477  1.00  0.00    -0.197 SA 
HETATM   15  C   UNL     1     -11.841  11.409  69.049  1.00  0.00    -0.348 A  
HETATM   16  C   UNL     1     -12.101  10.385  69.989  1.00  0.00    -0.297 A  
HETATM   17  C   UNL     1     -12.528  10.679  71.273  1.00  0.00    -0.515 A  
HETATM   18  C   UNL     1     -12.713  12.003  71.625  1.00  0.00    -0.326 A  
HETATM   19  C   UNL     1     -12.471  13.025  70.686  1.00  0.00    -0.347 A  
HETATM   20  C   UNL     1     -12.012  12.773  69.372  1.00  0.00    -0.263 A  
ENDBRANCH   6   7
ENDBRANCH   2   6
TORSDOF 3
ENDMDL
MODEL       22
REMARK 921   NORMALIZED FREE ENERGY PREDICTED BY IDOCK:   -5.43 KCAL/MOL
REMARK 922        TOTAL FREE ENERGY PREDICTED BY IDOCK:   -6.75 KCAL/MOL
REMARK 923 INTER-LIGAND FREE ENERGY PREDICTED BY IDOCK:   -6.56 KCAL/MOL
REMARK 924 INTRA-LIGAND FREE ENERGY PREDICTED BY IDOCK:   -0.19 KCAL/MOL
REMARK 927      BINDING AFFINITY PREDICTED BY RF-SCORE:    0.00 PKD
ROOT
HETATM    1  C   UNL     1     -10.988  15.581  64.919  1.00  0.00    -0.452 C  
HETATM    2  C   UNL     1     -10.578  14.094  64.912  1.00  0.00    -0.430 C  
ENDROOT
BRANCH   2   3
HETATM    3  N   UNL     1     -11.817  13.241  64.866  1.00  0.00    -0.345 NA 
HETATM    4  C   UNL     1     -12.083  12.692  63.531  1.00  0.00    -0.561 C  
HETATM    5  C   UNL     1     -13.017  13.986  65.288  1.00  0.00    -0.278 C  
ENDBRANCH   2   3
BRANCH   2   6
HETATM    6  C   UNL     1      -9.640  13.814  66.151  1.00  0.00    -0.216 C  
BRANCH   6   7
HETATM    7  N   UNL     1     -10.250  12.896  67.171  1.00  0.00    -0.237 NA 
HETATM    8  C   UNL     1     -10.130  11.486  66.918  1.00  0.00    -0.212 A  
HETATM    9  C   UNL     1      -9.451  10.964  65.794  1.00  0.00    -0.246 A  
HETATM   10  C   UNL     1      -9.352   9.590  65.528  1.00  0.00    -0.317 A  
HETATM   11  C   UNL     1      -9.926   8.672  66.390  1.00  0.00    -0.331 A  
HETATM   12  C   UNL     1     -10.592   9.139  67.512  1.00  0.00    -0.317 A  
HETATM   13  C   UNL     1     -10.698  10.521  67.778  1.00  0.00    -0.272 A  
HETATM   14  S   UNL     1     -11.590  10.906  69.258  1.00  0.00    -0.335 SA 
HETATM   15  C   UNL     1     -11.568  12.676  69.268  1.00  0.00    -0.318 A  
HETATM   16  C   UNL     1     -12.228  13.250  70.378  1.00  0.00    -0.404 A  
HETATM   17  C   UNL     1     -12.289  14.624  70.546  1.00  0.00    -0.400 A  
HETATM   18  C   UNL     1     -11.701  15.436  69.595  1.00  0.00    -0.355 A  
HETATM   19  C   UNL     1     -11.057  14.868  68.479  1.00  0.00    -0.275 A  
HETATM   20  C   UNL     1     -10.949  13.472  68.278  1.00  0.00    -0.258 A  
ENDBRANCH   6   7
ENDBRANCH   2   6
TORSDOF 3
ENDMDL
MODEL       23
REMARK 921   NORMALIZED FREE ENERGY PREDICTED BY IDOCK:   -5.41 KCAL/MOL
REMARK 922        TOTAL FREE ENERGY PREDICTED BY IDOCK:   -6.73 KCAL/MOL
REMARK 923 INTER-LIGAND FREE ENERGY PREDICTED BY IDOCK:   -6.34 KCAL/MOL
REMARK 924 INTRA-LIGAND FREE ENERGY PREDICTED BY IDOCK:   -0.39 KCAL/MOL
REMARK 927      BINDING AFFINITY PREDICTED BY RF-SCORE:    0.00 PKD
ROOT
HETATM    1  C   UNL     1      -9.539   9.835  67.518  1.00  0.00    -0.178 C  
HETATM    2  C   UNL     1     -10.369  10.308  68.729  1.00  0.00    -0.195 C  
ENDROOT
BRANCH   2   3
HETATM    3  N   UNL     1     -10.668   9.128  69.614  1.00  0.00    -0.230 NA 
HETATM    4  C   UNL     1     -10.000   9.208  70.918  1.00  0.00    -0.288 C  
HETATM    5  C   UNL     1     -10.270   7.853  68.989  1.00  0.00    -0.209 C  
ENDBRANCH   2   3
BRANCH   2   6
HETATM    6  C   UNL     1     -11.649  11.071  68.207  1.00  0.00    -0.284 C  
BRANCH   6   7
HETATM    7  N   UNL     1     -11.687  12.520  68.599  1.00  0.00    -0.311 NA 
HETATM    8  C   UNL     1     -12.263  12.824  69.881  1.00  0.00    -0.175 A  
HETATM    9  C   UNL     1     -12.744  11.828  70.760  1.00  0.00    -0.256 A  
HETATM   10  C   UNL     1     -13.329  12.118  72.001  1.00  0.00    -0.470 A  
HETATM   11  C   UNL     1     -13.450  13.430  72.423  1.00  0.00    -0.685 A  
HETATM   12  C   UNL     1     -12.981  14.440  71.597  1.00  0.00    -0.412 A  
HETATM   13  C   UNL     1     -12.396  14.150  70.345  1.00  0.00    -0.359 A  
HETATM   14  S   UNL     1     -11.865  15.580  69.447  1.00  0.00    -0.356 SA 
HETATM   15  C   UNL     1     -11.234  14.877  67.950  1.00  0.00    -0.315 A  
HETATM   16  C   UNL     1     -10.731  15.832  67.037  1.00  0.00    -0.306 A  
HETATM   17  C   UNL     1     -10.186  15.449  65.823  1.00  0.00    -0.378 A  
HETATM   18  C   UNL     1     -10.152  14.104  65.505  1.00  0.00    -0.360 A  
HETATM   19  C   UNL     1     -10.668  13.151  66.405  1.00  0.00    -0.293 A  
HETATM   20  C   UNL     1     -11.212  13.494  67.665  1.00  0.00    -0.279 A  
ENDBRANCH   6   7
ENDBRANCH   2   6
TORSDOF 3
ENDMDL
MODEL       24
REMARK 921   NORMALIZED FREE ENERGY PREDICTED BY IDOCK:   -5.40 KCAL/MOL
REMARK 922        TOTAL FREE ENERGY PREDICTED BY IDOCK:   -6.72 KCAL/MOL
REMARK 923 INTER-LIGAND FREE ENERGY PREDICTED BY IDOCK:   -6.40 KCAL/MOL
REMARK 924 INTRA-LIGAND FREE ENERGY PREDICTED BY IDOCK:   -0.32 KCAL/MOL
REMARK 927      BINDING AFFINITY PREDICTED BY RF-SCORE:    0.00 PKD
ROOT
HETATM    1  C   UNL     1     -10.482   9.513  66.848  1.00  0.00    -0.279 C  
HETATM    2  C   UNL     1     -10.961  10.937  67.196  1.00  0.00    -0.272 C  
ENDROOT
BRANCH   2   3
HETATM    3  N   UNL     1     -10.670  11.853  66.037  1.00  0.00    -0.275 NA 
HETATM    4  C   UNL     1      -9.596  12.812  66.323  1.00  0.00    -0.242 C  
HETATM    5  C   UNL     1     -11.859  12.625  65.631  1.00  0.00    -0.437 C  
ENDBRANCH   2   3
BRANCH   2   6
HETATM    6  C   UNL     1     -10.300  11.383  68.559  1.00  0.00    -0.205 C  
BRANCH   6   7
HETATM    7  N   UNL     1     -11.294  11.629  69.657  1.00  0.00    -0.258 NA 
HETATM    8  C   UNL     1     -11.711  12.991  69.851  1.00  0.00    -0.256 A  
HETATM    9  C   UNL     1     -11.252  14.055  69.043  1.00  0.00    -0.311 A  
HETATM   10  C   UNL     1     -11.635  15.391  69.242  1.00  0.00    -0.354 A  
HETATM   11  C   UNL     1     -12.511  15.717  70.262  1.00  0.00    -0.369 A  
HETATM   12  C   UNL     1     -12.996  14.703  71.073  1.00  0.00    -0.419 A  
HETATM   13  C   UNL     1     -12.607  13.360  70.878  1.00  0.00    -0.327 A  
HETATM   14  S   UNL     1     -13.338  12.222  72.021  1.00  0.00    -0.214 SA 
HETATM   15  C   UNL     1     -12.625  10.678  71.530  1.00  0.00    -0.412 A  
HETATM   16  C   UNL     1     -13.058   9.577  72.302  1.00  0.00    -0.492 A  
HETATM   17  C   UNL     1     -12.608   8.293  72.041  1.00  0.00    -0.387 A  
HETATM   18  C   UNL     1     -11.707   8.103  71.009  1.00  0.00    -0.295 A  
HETATM   19  C   UNL     1     -11.260   9.200  70.249  1.00  0.00    -0.249 A  
HETATM   20  C   UNL     1     -11.710  10.524  70.464  1.00  0.00    -0.350 A  
ENDBRANCH   6   7
ENDBRANCH   2   6
TORSDOF 3
ENDMDL
MODEL       25
REMARK 921   NORMALIZED FREE ENERGY PREDICTED BY IDOCK:   -5.39 KCAL/MOL
REMARK 922        TOTAL FREE ENERGY PREDICTED BY IDOCK:   -6.70 KCAL/MOL
REMARK 923 INTER-LIGAND FREE ENERGY PREDICTED BY IDOCK:   -6.31 KCAL/MOL
REMARK 924 INTRA-LIGAND FREE ENERGY PREDICTED BY IDOCK:   -0.40 KCAL/MOL
REMARK 927      BINDING AFFINITY PREDICTED BY RF-SCORE:    0.00 PKD
ROOT
HETATM    1  C   UNL     1     -11.394  14.651  67.548  1.00  0.00    -0.361 C  
HETATM    2  C   UNL     1     -10.802  13.723  66.468  1.00  0.00    -0.287 C  
ENDROOT
BRANCH   2   3
HETATM    3  N   UNL     1     -10.724  14.471  65.164  1.00  0.00    -0.378 NA 
HETATM    4  C   UNL     1     -10.516  15.913  65.344  1.00  0.00    -0.405 C  
HETATM    5  C   UNL     1     -11.943  14.296  64.352  1.00  0.00    -0.456 C  
ENDBRANCH   2   3
BRANCH   2   6
HETATM    6  C   UNL     1     -11.655  12.396  66.407  1.00  0.00    -0.384 C  
BRANCH   6   7
HETATM    7  N   UNL     1     -10.901  11.176  66.849  1.00  0.00    -0.275 NA 
HETATM    8  C   UNL     1     -10.123  10.502  65.844  1.00  0.00    -0.260 A  
HETATM    9  C   UNL     1     -10.028  10.964  64.512  1.00  0.00    -0.376 A  
HETATM   10  C   UNL     1      -9.291  10.299  63.520  1.00  0.00    -0.341 A  
HETATM   11  C   UNL     1      -8.604   9.139  63.827  1.00  0.00    -0.185 A  
HETATM   12  C   UNL     1      -8.659   8.655  65.125  1.00  0.00    -0.200 A  
HETATM   13  C   UNL     1      -9.404   9.320  66.123  1.00  0.00    -0.212 A  
HETATM   14  S   UNL     1      -9.345   8.538  67.710  1.00  0.00    -0.138 SA 
HETATM   15  C   UNL     1     -10.389   9.581  68.687  1.00  0.00    -0.205 A  
HETATM   16  C   UNL     1     -10.512   9.168  70.033  1.00  0.00    -0.244 A  
HETATM   17  C   UNL     1     -11.280   9.883  70.938  1.00  0.00    -0.433 A  
HETATM   18  C   UNL     1     -11.945  11.012  70.498  1.00  0.00    -0.474 A  
HETATM   19  C   UNL     1     -11.839  11.417  69.154  1.00  0.00    -0.413 A  
HETATM   20  C   UNL     1     -11.048  10.733  68.201  1.00  0.00    -0.280 A  
ENDBRANCH   6   7
ENDBRANCH   2   6
TORSDOF 3
ENDMDL
MODEL       26
REMARK 921   NORMALIZED FREE ENERGY PREDICTED BY IDOCK:   -5.35 KCAL/MOL
REMARK 922        TOTAL FREE ENERGY PREDICTED BY IDOCK:   -6.65 KCAL/MOL
REMARK 923 INTER-LIGAND FREE ENERGY PREDICTED BY IDOCK:   -6.30 KCAL/MOL
REMARK 924 INTRA-LIGAND FREE ENERGY PREDICTED BY IDOCK:   -0.35 KCAL/MOL
REMARK 927      BINDING AFFINITY PREDICTED BY RF-SCORE:    0.00 PKD
ROOT
HETATM    1  C   UNL     1      -9.371   9.098  68.333  1.00  0.00    -0.139 C  
HETATM    2  C   UNL     1     -10.028  10.209  69.176  1.00  0.00    -0.210 C  
ENDROOT
BRANCH   2   3
HETATM    3  N   UNL     1     -10.180   9.728  70.594  1.00  0.00    -0.268 NA 
HETATM    4  C   UNL     1      -9.008   8.987  71.074  1.00  0.00    -0.241 C  
HETATM    5  C   UNL     1     -11.357   8.854  70.758  1.00  0.00    -0.278 C  
ENDBRANCH   2   3
BRANCH   2   6
HETATM    6  C   UNL     1     -11.381  10.644  68.489  1.00  0.00    -0.284 C  
BRANCH   6   7
HETATM    7  N   UNL     1     -11.326  12.006  67.860  1.00  0.00    -0.282 NA 
HETATM    8  C   UNL     1     -11.621  13.122  68.717  1.00  0.00    -0.308 A  
HETATM    9  C   UNL     1     -11.917  12.975  70.090  1.00  0.00    -0.374 A  
HETATM   10  C   UNL     1     -12.230  14.057  70.928  1.00  0.00    -0.436 A  
HETATM   11  C   UNL     1     -12.250  15.344  70.421  1.00  0.00    -0.430 A  
HETATM   12  C   UNL     1     -11.955  15.537  69.080  1.00  0.00    -0.331 A  
HETATM   13  C   UNL     1     -11.644  14.449  68.236  1.00  0.00    -0.328 A  
HETATM   14  S   UNL     1     -11.300  14.910  66.561  1.00  0.00    -0.277 SA 
HETATM   15  C   UNL     1     -10.999  13.346  65.790  1.00  0.00    -0.277 A  
HETATM   16  C   UNL     1     -10.689  13.436  64.414  1.00  0.00    -0.423 A  
HETATM   17  C   UNL     1     -10.410  12.306  63.663  1.00  0.00    -0.463 A  
HETATM   18  C   UNL     1     -10.453  11.071  64.282  1.00  0.00    -0.427 A  
HETATM   19  C   UNL     1     -10.779  10.975  65.648  1.00  0.00    -0.217 A  
HETATM   20  C   UNL     1     -11.047  12.103  66.460  1.00  0.00    -0.307 A  
ENDBRANCH   6   7
ENDBRANCH   2   6
TORSDOF 3
ENDMDL
MODEL       27
REMARK 921   NORMALIZED FREE ENERGY PREDICTED BY IDOCK:   -5.34 KCAL/MOL
REMARK 922        TOTAL FREE ENERGY PREDICTED BY IDOCK:   -6.64 KCAL/MOL
REMARK 923 INTER-LIGAND FREE ENERGY PREDICTED BY IDOCK:   -6.25 KCAL/MOL
REMARK 924 INTRA-LIGAND FREE ENERGY PREDICTED BY IDOCK:   -0.40 KCAL/MOL
REMARK 927      BINDING AFFINITY PREDICTED BY RF-SCORE:    0.00 PKD
ROOT
HETATM    1  C   UNL     1     -10.370   9.390  66.868  1.00  0.00    -0.308 C  
HETATM    2  C   UNL     1     -10.791  10.866  67.015  1.00  0.00    -0.266 C  
ENDROOT
BRANCH   2   3
HETATM    3  N   UNL     1     -10.591  11.570  65.700  1.00  0.00    -0.267 NA 
HETATM    4  C   UNL     1     -11.765  12.346  65.284  1.00  0.00    -0.390 C  
HETATM    5  C   UNL     1     -10.273  10.627  64.612  1.00  0.00    -0.334 C  
ENDBRANCH   2   3
BRANCH   2   6
HETATM    6  C   UNL     1     -10.001  11.507  68.223  1.00  0.00    -0.202 C  
BRANCH   6   7
HETATM    7  N   UNL     1     -10.836  12.426  69.067  1.00  0.00    -0.190 NA 
HETATM    8  C   UNL     1     -11.670  11.805  70.060  1.00  0.00    -0.305 A  
HETATM    9  C   UNL     1     -11.696  10.408  70.273  1.00  0.00    -0.406 A  
HETATM   10  C   UNL     1     -12.525   9.792  71.223  1.00  0.00    -0.461 A  
HETATM   11  C   UNL     1     -13.364  10.558  72.013  1.00  0.00    -0.420 A  
HETATM   12  C   UNL     1     -13.363  11.934  71.846  1.00  0.00    -0.405 A  
HETATM   13  C   UNL     1     -12.534  12.555  70.887  1.00  0.00    -0.269 A  
HETATM   14  S   UNL     1     -12.686  14.318  70.833  1.00  0.00    -0.364 SA 
HETATM   15  C   UNL     1     -11.568  14.756  69.532  1.00  0.00    -0.304 A  
HETATM   16  C   UNL     1     -11.497  16.146  69.282  1.00  0.00    -0.304 A  
HETATM   17  C   UNL     1     -10.659  16.660  68.307  1.00  0.00    -0.338 A  
HETATM   18  C   UNL     1      -9.892  15.784  67.562  1.00  0.00    -0.229 A  
HETATM   19  C   UNL     1      -9.972  14.398  67.796  1.00  0.00    -0.226 A  
HETATM   20  C   UNL     1     -10.796  13.830  68.797  1.00  0.00    -0.259 A  
ENDBRANCH   6   7
ENDBRANCH   2   6
TORSDOF 3
ENDMDL
MODEL       28
REMARK 921   NORMALIZED FREE ENERGY PREDICTED BY IDOCK:   -5.33 KCAL/MOL
REMARK 922        TOTAL FREE ENERGY PREDICTED BY IDOCK:   -6.63 KCAL/MOL
REMARK 923 INTER-LIGAND FREE ENERGY PREDICTED BY IDOCK:   -6.50 KCAL/MOL
REMARK 924 INTRA-LIGAND FREE ENERGY PREDICTED BY IDOCK:   -0.13 KCAL/MOL
REMARK 927      BINDING AFFINITY PREDICTED BY RF-SCORE:    0.00 PKD
ROOT
HETATM    1  C   UNL     1      -9.727   9.010  71.335  1.00  0.00    -0.369 C  
HETATM    2  C   UNL     1     -11.211   9.096  71.745  1.00  0.00    -0.381 C  
ENDROOT
BRANCH   2   3
HETATM    3  N   UNL     1     -11.584   7.856  72.513  1.00  0.00    -0.377 NA 
HETATM    4  C   UNL     1     -10.415   7.107  72.989  1.00  0.00    -0.292 C  
HETATM    5  C   UNL     1     -12.405   6.933  71.707  1.00  0.00    -0.361 C  
ENDBRANCH   2   3
BRANCH   2   6
HETATM    6  C   UNL     1     -12.087   9.350  70.456  1.00  0.00    -0.046 C  
BRANCH   6   7
HETATM    7  N   UNL     1     -11.770  10.641  69.759  1.00  0.00    -0.290 NA 
HETATM    8  C   UNL     1     -12.211  11.846  70.408  1.00  0.00    -0.314 A  
HETATM    9  C   UNL     1     -12.878  11.845  71.653  1.00  0.00    -0.417 A  
HETATM   10  C   UNL     1     -13.333  13.014  72.282  1.00  0.00    -0.606 A  
HETATM   11  C   UNL     1     -13.127  14.246  71.687  1.00  0.00    -0.417 A  
HETATM   12  C   UNL     1     -12.467  14.297  70.470  1.00  0.00    -0.428 A  
HETATM   13  C   UNL     1     -12.013  13.121  69.834  1.00  0.00    -0.317 A  
HETATM   14  S   UNL     1     -11.197  13.403  68.288  1.00  0.00    -0.299 SA 
HETATM   15  C   UNL     1     -10.804  11.760  67.759  1.00  0.00    -0.213 A  
HETATM   16  C   UNL     1     -10.127  11.705  66.520  1.00  0.00    -0.239 A  
HETATM   17  C   UNL     1      -9.732  10.497  65.969  1.00  0.00    -0.257 A  
HETATM   18  C   UNL     1     -10.025   9.330  66.649  1.00  0.00    -0.333 A  
HETATM   19  C   UNL     1     -10.715   9.380  67.876  1.00  0.00    -0.269 A  
HETATM   20  C   UNL     1     -11.116  10.591  68.488  1.00  0.00    -0.275 A  
ENDBRANCH   6   7
ENDBRANCH   2   6
TORSDOF 3
ENDMDL
MODEL       29
REMARK 921   NORMALIZED FREE ENERGY PREDICTED BY IDOCK:   -5.28 KCAL/MOL
REMARK 922        TOTAL FREE ENERGY PREDICTED BY IDOCK:   -6.58 KCAL/MOL
REMARK 923 INTER-LIGAND FREE ENERGY PREDICTED BY IDOCK:   -6.33 KCAL/MOL
REMARK 924 INTRA-LIGAND FREE ENERGY PREDICTED BY IDOCK:   -0.25 KCAL/MOL
REMARK 927      BINDING AFFINITY PREDICTED BY RF-SCORE:    0.00 PKD
ROOT
HETATM    1  C   UNL     1     -14.136   9.470  72.382  1.00  0.00    -0.177 C  
HETATM    2  C   UNL     1     -13.119   9.388  71.226  1.00  0.00    -0.294 C  
ENDROOT
BRANCH   2   3
HETATM    3  N   UNL     1     -12.613   7.975  71.113  1.00  0.00    -0.222 NA 
HETATM    4  C   UNL     1     -13.579   6.982  71.600  1.00  0.00    -0.252 C  
HETATM    5  C   UNL     1     -11.357   7.776  71.859  1.00  0.00    -0.270 C  
ENDBRANCH   2   3
BRANCH   2   6
HETATM    6  C   UNL     1     -11.989  10.466  71.458  1.00  0.00    -0.209 C  
BRANCH   6   7
HETATM    7  N   UNL     1     -12.049  11.617  70.497  1.00  0.00    -0.377 NA 
HETATM    8  C   UNL     1     -11.582  11.364  69.161  1.00  0.00    -0.314 A  
HETATM    9  C   UNL     1     -11.118  10.097  68.740  1.00  0.00    -0.250 A  
HETATM   10  C   UNL     1     -10.638   9.848  67.445  1.00  0.00    -0.338 A  
HETATM   11  C   UNL     1     -10.612  10.864  66.507  1.00  0.00    -0.295 A  
HETATM   12  C   UNL     1     -11.068  12.121  66.873  1.00  0.00    -0.348 A  
HETATM   13  C   UNL     1     -11.547  12.375  68.176  1.00  0.00    -0.341 A  
HETATM   14  S   UNL     1     -12.080  14.042  68.439  1.00  0.00    -0.183 SA 
HETATM   15  C   UNL     1     -12.567  14.023  70.140  1.00  0.00    -0.251 A  
HETATM   16  C   UNL     1     -13.049  15.266  70.611  1.00  0.00    -0.407 A  
HETATM   17  C   UNL     1     -13.486  15.420  71.917  1.00  0.00    -0.571 A  
HETATM   18  C   UNL     1     -13.432  14.332  72.767  1.00  0.00    -0.590 A  
HETATM   19  C   UNL     1     -12.937  13.097  72.306  1.00  0.00    -0.354 A  
HETATM   20  C   UNL     1     -12.503  12.887  70.977  1.00  0.00    -0.283 A  
ENDBRANCH   6   7
ENDBRANCH   2   6
TORSDOF 3
ENDMDL
MODEL       30
REMARK 921   NORMALIZED FREE ENERGY PREDICTED BY IDOCK:   -5.28 KCAL/MOL
REMARK 922        TOTAL FREE ENERGY PREDICTED BY IDOCK:   -6.58 KCAL/MOL
REMARK 923 INTER-LIGAND FREE ENERGY PREDICTED BY IDOCK:   -6.53 KCAL/MOL
REMARK 924 INTRA-LIGAND FREE ENERGY PREDICTED BY IDOCK:   -0.05 KCAL/MOL
REMARK 927      BINDING AFFINITY PREDICTED BY RF-SCORE:    0.00 PKD
ROOT
HETATM    1  C   UNL     1      -9.724  14.035  68.452  1.00  0.00    -0.223 C  
HETATM    2  C   UNL     1     -10.976  14.448  67.653  1.00  0.00    -0.286 C  
ENDROOT
BRANCH   2   3
HETATM    3  N   UNL     1     -11.513  15.740  68.209  1.00  0.00    -0.360 NA 
HETATM    4  C   UNL     1     -10.509  16.809  68.242  1.00  0.00    -0.341 C  
HETATM    5  C   UNL     1     -12.034  15.577  69.579  1.00  0.00    -0.350 C  
ENDBRANCH   2   3
BRANCH   2   6
HETATM    6  C   UNL     1     -12.009  13.256  67.664  1.00  0.00    -0.322 C  
BRANCH   6   7
HETATM    7  N   UNL     1     -11.392  11.921  67.361  1.00  0.00    -0.306 NA 
HETATM    8  C   UNL     1     -11.294  10.995  68.456  1.00  0.00    -0.287 A  
HETATM    9  C   UNL     1     -11.778  11.287  69.751  1.00  0.00    -0.422 A  
HETATM   10  C   UNL     1     -11.665  10.398  70.831  1.00  0.00    -0.455 A  
HETATM   11  C   UNL     1     -11.066   9.164  70.654  1.00  0.00    -0.320 A  
HETATM   12  C   UNL     1     -10.587   8.830  69.397  1.00  0.00    -0.218 A  
HETATM   13  C   UNL     1     -10.695   9.725  68.311  1.00  0.00    -0.233 A  
HETATM   14  S   UNL     1     -10.020   9.108  66.795  1.00  0.00    -0.272 SA 
HETATM   15  C   UNL     1     -10.280  10.460  65.684  1.00  0.00    -0.238 A  
HETATM   16  C   UNL     1      -9.821  10.217  64.369  1.00  0.00    -0.374 A  
HETATM   17  C   UNL     1      -9.961  11.167  63.370  1.00  0.00    -0.430 A  
HETATM   18  C   UNL     1     -10.551  12.377  63.683  1.00  0.00    -0.481 A  
HETATM   19  C   UNL     1     -10.994  12.629  64.996  1.00  0.00    -0.323 A  
HETATM   20  C   UNL     1     -10.894  11.681  66.041  1.00  0.00    -0.289 A  
ENDBRANCH   6   7
ENDBRANCH   2   6
TORSDOF 3
ENDMDL
MODEL       31
REMARK 921   NORMALIZED FREE ENERGY PREDICTED BY IDOCK:   -5.24 KCAL/MOL
REMARK 922        TOTAL FREE ENERGY PREDICTED BY IDOCK:   -6.52 KCAL/MOL
REMARK 923 INTER-LIGAND FREE ENERGY PREDICTED BY IDOCK:   -6.14 KCAL/MOL
REMARK 924 INTRA-LIGAND FREE ENERGY PREDICTED BY IDOCK:   -0.38 KCAL/MOL
REMARK 927      BINDING AFFINITY PREDICTED BY RF-SCORE:    0.00 PKD
ROOT
HETATM    1  C   UNL     1      -9.136   8.637  68.280  1.00  0.00    -0.141 C  
HETATM    2  C   UNL     1      -9.721   9.898  68.947  1.00  0.00    -0.175 C  
ENDROOT
BRANCH   2   3
HETATM    3  N   UNL     1      -9.770   9.691  70.437  1.00  0.00    -0.262 NA 
HETATM    4  C   UNL     1      -8.581   9.005  70.957  1.00  0.00    -0.210 C  
HETATM    5  C   UNL     1     -10.949   8.907  70.848  1.00  0.00    -0.266 C  
ENDBRANCH   2   3
BRANCH   2   6
HETATM    6  C   UNL     1     -11.119  10.226  68.291  1.00  0.00    -0.254 C  
BRANCH   6   7
HETATM    7  N   UNL     1     -11.213  11.620  67.741  1.00  0.00    -0.247 NA 
HETATM    8  C   UNL     1     -10.889  11.785  66.350  1.00  0.00    -0.282 A  
HETATM    9  C   UNL     1     -10.532  10.703  65.514  1.00  0.00    -0.246 A  
HETATM   10  C   UNL     1     -10.191  10.859  64.161  1.00  0.00    -0.424 A  
HETATM   11  C   UNL     1     -10.204  12.116  63.583  1.00  0.00    -0.459 A  
HETATM   12  C   UNL     1     -10.560  13.205  64.363  1.00  0.00    -0.441 A  
HETATM   13  C   UNL     1     -10.898  13.050  65.725  1.00  0.00    -0.272 A  
HETATM   14  S   UNL     1     -11.319  14.564  66.541  1.00  0.00    -0.358 SA 
HETATM   15  C   UNL     1     -11.642  14.027  68.196  1.00  0.00    -0.334 A  
HETATM   16  C   UNL     1     -12.013  15.070  69.074  1.00  0.00    -0.298 A  
HETATM   17  C   UNL     1     -12.315  14.820  70.403  1.00  0.00    -0.402 A  
HETATM   18  C   UNL     1     -12.235  13.521  70.868  1.00  0.00    -0.387 A  
HETATM   19  C   UNL     1     -11.848  12.481  70.001  1.00  0.00    -0.363 A  
HETATM   20  C   UNL     1     -11.554  12.686  68.632  1.00  0.00    -0.316 A  
ENDBRANCH   6   7
ENDBRANCH   2   6
TORSDOF 3
ENDMDL
MODEL       32
REMARK 921   NORMALIZED FREE ENERGY PREDICTED BY IDOCK:   -5.23 KCAL/MOL
REMARK 922        TOTAL FREE ENERGY PREDICTED BY IDOCK:   -6.51 KCAL/MOL
REMARK 923 INTER-LIGAND FREE ENERGY PREDICTED BY IDOCK:   -6.15 KCAL/MOL
REMARK 924 INTRA-LIGAND FREE ENERGY PREDICTED BY IDOCK:   -0.36 KCAL/MOL
REMARK 927      BINDING AFFINITY PREDICTED BY RF-SCORE:    0.00 PKD
ROOT
HETATM    1  C   UNL     1     -11.711  14.545  68.622  1.00  0.00    -0.364 C  
HETATM    2  C   UNL     1     -11.311  13.813  67.326  1.00  0.00    -0.321 C  
ENDROOT
BRANCH   2   3
HETATM    3  N   UNL     1     -11.465  14.753  66.160  1.00  0.00    -0.338 NA 
HETATM    4  C   UNL     1     -12.478  14.307  65.197  1.00  0.00    -0.416 C  
HETATM    5  C   UNL     1     -10.200  14.932  65.424  1.00  0.00    -0.379 C  
ENDBRANCH   2   3
BRANCH   2   6
HETATM    6  C   UNL     1     -12.154  12.484  67.205  1.00  0.00    -0.065 C  
BRANCH   6   7
HETATM    7  N   UNL     1     -11.352  11.238  67.451  1.00  0.00    -0.436 NA 
HETATM    8  C   UNL     1     -11.415  10.686  68.777  1.00  0.00    -0.262 A  
HETATM    9  C   UNL     1     -12.208  11.247  69.803  1.00  0.00    -0.343 A  
HETATM   10  C   UNL     1     -12.255  10.728  71.106  1.00  0.00    -0.457 A  
HETATM   11  C   UNL     1     -11.510   9.610  71.436  1.00  0.00    -0.455 A  
HETATM   12  C   UNL     1     -10.726   9.020  70.457  1.00  0.00    -0.285 A  
HETATM   13  C   UNL     1     -10.673   9.543  69.147  1.00  0.00    -0.210 A  
HETATM   14  S   UNL     1      -9.612   8.644  68.052  1.00  0.00    -0.153 SA 
HETATM   15  C   UNL     1      -9.746   9.568  66.548  1.00  0.00    -0.222 A  
HETATM   16  C   UNL     1      -8.978   9.044  65.484  1.00  0.00    -0.252 A  
HETATM   17  C   UNL     1      -8.981   9.638  64.232  1.00  0.00    -0.269 A  
HETATM   18  C   UNL     1      -9.746  10.773  64.039  1.00  0.00    -0.367 A  
HETATM   19  C   UNL     1     -10.500  11.308  65.102  1.00  0.00    -0.351 A  
HETATM   20  C   UNL     1     -10.545  10.722  66.389  1.00  0.00    -0.203 A  
ENDBRANCH   6   7
ENDBRANCH   2   6
TORSDOF 3
ENDMDL
MODEL       33
REMARK 921   NORMALIZED FREE ENERGY PREDICTED BY IDOCK:   -5.21 KCAL/MOL
REMARK 922        TOTAL FREE ENERGY PREDICTED BY IDOCK:   -6.49 KCAL/MOL
REMARK 923 INTER-LIGAND FREE ENERGY PREDICTED BY IDOCK:   -6.07 KCAL/MOL
REMARK 924 INTRA-LIGAND FREE ENERGY PREDICTED BY IDOCK:   -0.42 KCAL/MOL
REMARK 927      BINDING AFFINITY PREDICTED BY RF-SCORE:    0.00 PKD
ROOT
HETATM    1  C   UNL     1     -13.283  11.122  71.946  1.00  0.00    -0.488 C  
HETATM    2  C   UNL     1     -12.755  10.100  70.919  1.00  0.00    -0.357 C  
ENDROOT
BRANCH   2   3
HETATM    3  N   UNL     1     -12.921   8.711  71.475  1.00  0.00    -0.325 NA 
HETATM    4  C   UNL     1     -14.213   8.512  72.141  1.00  0.00    -0.434 C  
HETATM    5  C   UNL     1     -11.864   8.375  72.446  1.00  0.00    -0.384 C  
ENDBRANCH   2   3
BRANCH   2   6
HETATM    6  C   UNL     1     -11.271  10.475  70.537  1.00  0.00    -0.265 C  
BRANCH   6   7
HETATM    7  N   UNL     1     -11.052  10.636  69.060  1.00  0.00    -0.235 NA 
HETATM    8  C   UNL     1     -10.606   9.470  68.346  1.00  0.00    -0.219 A  
HETATM    9  C   UNL     1     -10.410   8.218  68.971  1.00  0.00    -0.233 A  
HETATM   10  C   UNL     1      -9.951   7.082  68.287  1.00  0.00    -0.165 A  
HETATM   11  C   UNL     1      -9.678   7.151  66.932  1.00  0.00    -0.242 A  
HETATM   12  C   UNL     1      -9.867   8.357  66.275  1.00  0.00    -0.257 A  
HETATM   13  C   UNL     1     -10.323   9.502  66.964  1.00  0.00    -0.250 A  
HETATM   14  S   UNL     1     -10.496  10.938  65.943  1.00  0.00    -0.185 SA 
HETATM   15  C   UNL     1     -11.032  12.166  67.100  1.00  0.00    -0.268 A  
HETATM   16  C   UNL     1     -11.252  13.438  66.524  1.00  0.00    -0.327 A  
HETATM   17  C   UNL     1     -11.689  14.508  67.288  1.00  0.00    -0.429 A  
HETATM   18  C   UNL     1     -11.897  14.316  68.641  1.00  0.00    -0.379 A  
HETATM   19  C   UNL     1     -11.662  13.055  69.221  1.00  0.00    -0.375 A  
HETATM   20  C   UNL     1     -11.239  11.929  68.477  1.00  0.00    -0.256 A  
ENDBRANCH   6   7
ENDBRANCH   2   6
TORSDOF 3
ENDMDL
MODEL       34
REMARK 921   NORMALIZED FREE ENERGY PREDICTED BY IDOCK:   -5.18 KCAL/MOL
REMARK 922        TOTAL FREE ENERGY PREDICTED BY IDOCK:   -6.46 KCAL/MOL
REMARK 923 INTER-LIGAND FREE ENERGY PREDICTED BY IDOCK:   -6.11 KCAL/MOL
REMARK 924 INTRA-LIGAND FREE ENERGY PREDICTED BY IDOCK:   -0.35 KCAL/MOL
REMARK 927      BINDING AFFINITY PREDICTED BY RF-SCORE:    0.00 PKD
ROOT
HETATM    1  C   UNL     1      -8.715  10.741  66.315  1.00  0.00    -0.175 C  
HETATM    2  C   UNL     1      -9.588  10.716  67.585  1.00  0.00    -0.161 C  
ENDROOT
BRANCH   2   3
HETATM    3  N   UNL     1      -9.645   9.309  68.118  1.00  0.00    -0.141 NA 
HETATM    4  C   UNL     1      -8.316   8.716  68.305  1.00  0.00    -0.127 C  
HETATM    5  C   UNL     1     -10.411   8.414  67.231  1.00  0.00    -0.299 C  
ENDBRANCH   2   3
BRANCH   2   6
HETATM    6  C   UNL     1     -10.998  11.343  67.252  1.00  0.00    -0.282 C  
BRANCH   6   7
HETATM    7  N   UNL     1     -11.303  12.587  68.035  1.00  0.00    -0.267 NA 
HETATM    8  C   UNL     1     -10.922  13.836  67.432  1.00  0.00    -0.284 A  
HETATM    9  C   UNL     1     -10.321  13.917  66.156  1.00  0.00    -0.303 A  
HETATM   10  C   UNL     1      -9.924  15.129  65.571  1.00  0.00    -0.384 A  
HETATM   11  C   UNL     1     -10.122  16.322  66.243  1.00  0.00    -0.340 A  
HETATM   12  C   UNL     1     -10.720  16.291  67.494  1.00  0.00    -0.300 A  
HETATM   13  C   UNL     1     -11.115  15.072  68.085  1.00  0.00    -0.291 A  
HETATM   14  S   UNL     1     -11.855  15.251  69.684  1.00  0.00    -0.351 SA 
HETATM   15  C   UNL     1     -12.186  13.573  70.141  1.00  0.00    -0.330 A  
HETATM   16  C   UNL     1     -12.796  13.435  71.408  1.00  0.00    -0.420 A  
HETATM   17  C   UNL     1     -13.137  12.190  71.911  1.00  0.00    -0.475 A  
HETATM   18  C   UNL     1     -12.856  11.069  71.153  1.00  0.00    -0.491 A  
HETATM   19  C   UNL     1     -12.233  11.201  69.897  1.00  0.00    -0.385 A  
HETATM   20  C   UNL     1     -11.889  12.452  69.333  1.00  0.00    -0.304 A  
ENDBRANCH   6   7
ENDBRANCH   2   6
TORSDOF 3
ENDMDL
MODEL       35
REMARK 921   NORMALIZED FREE ENERGY PREDICTED BY IDOCK:   -5.17 KCAL/MOL
REMARK 922        TOTAL FREE ENERGY PREDICTED BY IDOCK:   -6.44 KCAL/MOL
REMARK 923 INTER-LIGAND FREE ENERGY PREDICTED BY IDOCK:   -6.25 KCAL/MOL
REMARK 924 INTRA-LIGAND FREE ENERGY PREDICTED BY IDOCK:   -0.19 KCAL/MOL
REMARK 927      BINDING AFFINITY PREDICTED BY RF-SCORE:    0.00 PKD
ROOT
HETATM    1  C   UNL     1      -8.286  11.238  68.176  1.00  0.00    -0.143 C  
HETATM    2  C   UNL     1      -9.644  10.584  68.502  1.00  0.00    -0.163 C  
ENDROOT
BRANCH   2   3
HETATM    3  N   UNL     1      -9.577   9.117  68.173  1.00  0.00    -0.142 NA 
HETATM    4  C   UNL     1     -10.049   8.813  66.817  1.00  0.00    -0.288 C  
HETATM    5  C   UNL     1     -10.370   8.303  69.112  1.00  0.00    -0.217 C  
ENDBRANCH   2   3
BRANCH   2   6
HETATM    6  C   UNL     1     -10.787  11.368  67.747  1.00  0.00    -0.231 C  
BRANCH   6   7
HETATM    7  N   UNL     1     -11.132  12.686  68.378  1.00  0.00    -0.249 NA 
HETATM    8  C   UNL     1     -11.845  12.633  69.626  1.00  0.00    -0.311 A  
HETATM    9  C   UNL     1     -12.185  11.418  70.262  1.00  0.00    -0.433 A  
HETATM   10  C   UNL     1     -12.902  11.357  71.467  1.00  0.00    -0.508 A  
HETATM   11  C   UNL     1     -13.303  12.523  72.095  1.00  0.00    -0.540 A  
HETATM   12  C   UNL     1     -12.981  13.739  71.512  1.00  0.00    -0.444 A  
HETATM   13  C   UNL     1     -12.264  13.801  70.298  1.00  0.00    -0.359 A  
HETATM   14  S   UNL     1     -11.957  15.447  69.723  1.00  0.00    -0.356 SA 
HETATM   15  C   UNL     1     -11.098  15.166  68.202  1.00  0.00    -0.304 A  
HETATM   16  C   UNL     1     -10.726  16.351  67.527  1.00  0.00    -0.298 A  
HETATM   17  C   UNL     1     -10.032  16.309  66.328  1.00  0.00    -0.335 A  
HETATM   18  C   UNL     1      -9.717  15.077  65.787  1.00  0.00    -0.375 A  
HETATM   19  C   UNL     1     -10.101  13.894  66.447  1.00  0.00    -0.298 A  
HETATM   20  C   UNL     1     -10.789  13.888  67.684  1.00  0.00    -0.254 A  
ENDBRANCH   6   7
ENDBRANCH   2   6
TORSDOF 3
ENDMDL
MODEL       36
REMARK 921   NORMALIZED FREE ENERGY PREDICTED BY IDOCK:   -5.09 KCAL/MOL
REMARK 922        TOTAL FREE ENERGY PREDICTED BY IDOCK:   -6.34 KCAL/MOL
REMARK 923 INTER-LIGAND FREE ENERGY PREDICTED BY IDOCK:   -6.07 KCAL/MOL
REMARK 924 INTRA-LIGAND FREE ENERGY PREDICTED BY IDOCK:   -0.28 KCAL/MOL
REMARK 927      BINDING AFFINITY PREDICTED BY RF-SCORE:    0.00 PKD
ROOT
HETATM    1  C   UNL     1     -12.146  12.554  70.370  1.00  0.00    -0.380 C  
HETATM    2  C   UNL     1     -11.546  11.672  69.257  1.00  0.00    -0.320 C  
ENDROOT
BRANCH   2   3
HETATM    3  N   UNL     1     -11.401  10.263  69.767  1.00  0.00    -0.261 NA 
HETATM    4  C   UNL     1     -11.918  10.093  71.130  1.00  0.00    -0.386 C  
HETATM    5  C   UNL     1      -9.996   9.817  69.766  1.00  0.00    -0.236 C  
ENDBRANCH   2   3
BRANCH   2   6
HETATM    6  C   UNL     1     -10.199  12.324  68.755  1.00  0.00    -0.102 C  
BRANCH   6   7
HETATM    7  N   UNL     1     -10.376  13.245  67.583  1.00  0.00    -0.228 NA 
HETATM    8  C   UNL     1     -10.446  12.628  66.286  1.00  0.00    -0.251 A  
HETATM    9  C   UNL     1     -10.387  11.229  66.100  1.00  0.00    -0.300 A  
HETATM   10  C   UNL     1     -10.430  10.621  64.836  1.00  0.00    -0.282 A  
HETATM   11  C   UNL     1     -10.544  11.396  63.696  1.00  0.00    -0.476 A  
HETATM   12  C   UNL     1     -10.616  12.774  63.832  1.00  0.00    -0.427 A  
HETATM   13  C   UNL     1     -10.568  13.387  65.102  1.00  0.00    -0.343 A  
HETATM   14  S   UNL     1     -10.672  15.154  65.056  1.00  0.00    -0.408 SA 
HETATM   15  C   UNL     1     -10.545  15.588  66.767  1.00  0.00    -0.307 A  
HETATM   16  C   UNL     1     -10.606  16.979  67.010  1.00  0.00    -0.226 A  
HETATM   17  C   UNL     1     -10.537  17.488  68.297  1.00  0.00    -0.354 A  
HETATM   18  C   UNL     1     -10.393  16.607  69.352  1.00  0.00    -0.294 A  
HETATM   19  C   UNL     1     -10.314  15.222  69.112  1.00  0.00    -0.248 A  
HETATM   20  C   UNL     1     -10.404  14.656  67.819  1.00  0.00    -0.237 A  
ENDBRANCH   6   7
ENDBRANCH   2   6
TORSDOF 3
ENDMDL
MODEL       37
REMARK 921   NORMALIZED FREE ENERGY PREDICTED BY IDOCK:   -5.08 KCAL/MOL
REMARK 922        TOTAL FREE ENERGY PREDICTED BY IDOCK:   -6.34 KCAL/MOL
REMARK 923 INTER-LIGAND FREE ENERGY PREDICTED BY IDOCK:   -5.92 KCAL/MOL
REMARK 924 INTRA-LIGAND FREE ENERGY PREDICTED BY IDOCK:   -0.41 KCAL/MOL
REMARK 927      BINDING AFFINITY PREDICTED BY RF-SCORE:    0.00 PKD
ROOT
HETATM    1  C   UNL     1     -10.176   8.736  67.140  1.00  0.00    -0.346 C  
HETATM    2  C   UNL     1     -10.308  10.248  66.863  1.00  0.00    -0.239 C  
ENDROOT
BRANCH   2   3
HETATM    3  N   UNL     1      -9.695  10.560  65.525  1.00  0.00    -0.223 NA 
HETATM    4  C   UNL     1     -10.652  11.150  64.582  1.00  0.00    -0.318 C  
HETATM    5  C   UNL     1      -9.123   9.360  64.886  1.00  0.00    -0.202 C  
ENDBRANCH   2   3
BRANCH   2   6
HETATM    6  C   UNL     1      -9.679  11.048  68.070  1.00  0.00    -0.172 C  
BRANCH   6   7
HETATM    7  N   UNL     1     -10.646  11.977  68.745  1.00  0.00    -0.227 NA 
HETATM    8  C   UNL     1     -10.664  13.337  68.277  1.00  0.00    -0.252 A  
HETATM    9  C   UNL     1      -9.849  13.791  67.216  1.00  0.00    -0.241 A  
HETATM   10  C   UNL     1      -9.843  15.122  66.769  1.00  0.00    -0.251 A  
HETATM   11  C   UNL     1     -10.667  16.059  67.367  1.00  0.00    -0.306 A  
HETATM   12  C   UNL     1     -11.493  15.654  68.404  1.00  0.00    -0.374 A  
HETATM   13  C   UNL     1     -11.497  14.317  68.858  1.00  0.00    -0.286 A  
HETATM   14  S   UNL     1     -12.619  14.010  70.192  1.00  0.00    -0.160 SA 
HETATM   15  C   UNL     1     -12.348  12.294  70.531  1.00  0.00    -0.264 A  
HETATM   16  C   UNL     1     -13.146  11.784  71.580  1.00  0.00    -0.443 A  
HETATM   17  C   UNL     1     -13.069  10.455  71.963  1.00  0.00    -0.521 A  
HETATM   18  C   UNL     1     -12.179   9.626  71.306  1.00  0.00    -0.452 A  
HETATM   19  C   UNL     1     -11.370  10.134  70.271  1.00  0.00    -0.387 A  
HETATM   20  C   UNL     1     -11.432  11.477  69.831  1.00  0.00    -0.260 A  
ENDBRANCH   6   7
ENDBRANCH   2   6
TORSDOF 3
ENDMDL
MODEL       38
REMARK 921   NORMALIZED FREE ENERGY PREDICTED BY IDOCK:   -5.06 KCAL/MOL
REMARK 922        TOTAL FREE ENERGY PREDICTED BY IDOCK:   -6.31 KCAL/MOL
REMARK 923 INTER-LIGAND FREE ENERGY PREDICTED BY IDOCK:   -6.06 KCAL/MOL
REMARK 924 INTRA-LIGAND FREE ENERGY PREDICTED BY IDOCK:   -0.25 KCAL/MOL
REMARK 927      BINDING AFFINITY PREDICTED BY RF-SCORE:    0.00 PKD
ROOT
HETATM    1  C   UNL     1     -12.146  12.552  70.357  1.00  0.00    -0.380 C  
HETATM    2  C   UNL     1     -11.533  11.648  69.269  1.00  0.00    -0.300 C  
ENDROOT
BRANCH   2   3
HETATM    3  N   UNL     1     -11.421  10.244  69.798  1.00  0.00    -0.259 NA 
HETATM    4  C   UNL     1     -11.974  10.097  71.150  1.00  0.00    -0.386 C  
HETATM    5  C   UNL     1     -10.023   9.778  69.838  1.00  0.00    -0.245 C  
ENDBRANCH   2   3
BRANCH   2   6
HETATM    6  C   UNL     1     -10.165  12.274  68.791  1.00  0.00    -0.102 C  
BRANCH   6   7
HETATM    7  N   UNL     1     -10.295  13.153  67.581  1.00  0.00    -0.220 NA 
HETATM    8  C   UNL     1     -10.367  14.569  67.821  1.00  0.00    -0.237 A  
HETATM    9  C   UNL     1     -10.287  15.132  69.114  1.00  0.00    -0.249 A  
HETATM   10  C   UNL     1     -10.381  16.510  69.359  1.00  0.00    -0.298 A  
HETATM   11  C   UNL     1     -10.551  17.392  68.306  1.00  0.00    -0.366 A  
HETATM   12  C   UNL     1     -10.623  16.885  67.018  1.00  0.00    -0.230 A  
HETATM   13  C   UNL     1     -10.534  15.498  66.771  1.00  0.00    -0.295 A  
HETATM   14  S   UNL     1     -10.651  15.060  65.060  1.00  0.00    -0.380 SA 
HETATM   15  C   UNL     1     -10.544  13.294  65.111  1.00  0.00    -0.330 A  
HETATM   16  C   UNL     1     -10.611  12.679  63.840  1.00  0.00    -0.460 A  
HETATM   17  C   UNL     1     -10.527  11.303  63.700  1.00  0.00    -0.464 A  
HETATM   18  C   UNL     1     -10.389  10.528  64.836  1.00  0.00    -0.307 A  
HETATM   19  C   UNL     1     -10.340  11.136  66.106  1.00  0.00    -0.302 A  
HETATM   20  C   UNL     1     -10.398  12.536  66.295  1.00  0.00    -0.250 A  
ENDBRANCH   6   7
ENDBRANCH   2   6
TORSDOF 3
ENDMDL
MODEL       39
REMARK 921   NORMALIZED FREE ENERGY PREDICTED BY IDOCK:   -5.04 KCAL/MOL
REMARK 922        TOTAL FREE ENERGY PREDICTED BY IDOCK:   -6.29 KCAL/MOL
REMARK 923 INTER-LIGAND FREE ENERGY PREDICTED BY IDOCK:   -5.92 KCAL/MOL
REMARK 924 INTRA-LIGAND FREE ENERGY PREDICTED BY IDOCK:   -0.37 KCAL/MOL
REMARK 927      BINDING AFFINITY PREDICTED BY RF-SCORE:    0.00 PKD
ROOT
HETATM    1  C   UNL     1     -10.249   8.933  66.596  1.00  0.00    -0.338 C  
HETATM    2  C   UNL     1     -10.698  10.171  67.398  1.00  0.00    -0.277 C  
ENDROOT
BRANCH   2   3
HETATM    3  N   UNL     1     -10.363  11.414  66.617  1.00  0.00    -0.225 NA 
HETATM    4  C   UNL     1     -10.061  11.138  65.208  1.00  0.00    -0.276 C  
HETATM    5  C   UNL     1      -9.208  12.131  67.188  1.00  0.00    -0.193 C  
ENDBRANCH   2   3
BRANCH   2   6
HETATM    6  C   UNL     1     -10.052  10.114  68.837  1.00  0.00    -0.200 C  
BRANCH   6   7
HETATM    7  N   UNL     1     -11.028   9.757  69.921  1.00  0.00    -0.251 NA 
HETATM    8  C   UNL     1     -11.800  10.837  70.472  1.00  0.00    -0.356 A  
HETATM    9  C   UNL     1     -11.690  12.169  70.013  1.00  0.00    -0.330 A  
HETATM   10  C   UNL     1     -12.422  13.233  70.562  1.00  0.00    -0.332 A  
HETATM   11  C   UNL     1     -13.309  13.003  71.597  1.00  0.00    -0.379 A  
HETATM   12  C   UNL     1     -13.458  11.710  72.073  1.00  0.00    -0.304 A  
HETATM   13  C   UNL     1     -12.719  10.639  71.525  1.00  0.00    -0.444 A  
HETATM   14  S   UNL     1     -13.054   9.071  72.275  1.00  0.00    -0.444 SA 
HETATM   15  C   UNL     1     -11.960   7.989  71.401  1.00  0.00    -0.298 A  
HETATM   16  C   UNL     1     -12.036   6.640  71.817  1.00  0.00    -0.391 A  
HETATM   17  C   UNL     1     -11.257   5.659  71.224  1.00  0.00    -0.146 A  
HETATM   18  C   UNL     1     -10.384   6.024  70.217  1.00  0.00    -0.282 A  
HETATM   19  C   UNL     1     -10.293   7.369  69.812  1.00  0.00    -0.226 A  
HETATM   20  C   UNL     1     -11.085   8.400  70.371  1.00  0.00    -0.231 A  
ENDBRANCH   6   7
ENDBRANCH   2   6
TORSDOF 3
ENDMDL
MODEL       40
REMARK 921   NORMALIZED FREE ENERGY PREDICTED BY IDOCK:   -5.00 KCAL/MOL
REMARK 922        TOTAL FREE ENERGY PREDICTED BY IDOCK:   -6.24 KCAL/MOL
REMARK 923 INTER-LIGAND FREE ENERGY PREDICTED BY IDOCK:   -6.30 KCAL/MOL
REMARK 924 INTRA-LIGAND FREE ENERGY PREDICTED BY IDOCK:    0.06 KCAL/MOL
REMARK 927      BINDING AFFINITY PREDICTED BY RF-SCORE:    0.00 PKD
ROOT
HETATM    1  C   UNL     1     -10.840  15.204  71.219  1.00  0.00    -0.028 C  
HETATM    2  C   UNL     1     -12.273  15.726  70.990  1.00  0.00    -0.418 C  
ENDROOT
BRANCH   2   3
HETATM    3  N   UNL     1     -12.951  15.905  72.322  1.00  0.00    -0.442 NA 
HETATM    4  C   UNL     1     -12.350  15.088  73.383  1.00  0.00    -0.443 C  
HETATM    5  C   UNL     1     -14.386  15.569  72.261  1.00  0.00    -0.462 C  
ENDBRANCH   2   3
BRANCH   2   6
HETATM    6  C   UNL     1     -13.024  14.749  70.004  1.00  0.00     0.055 C  
BRANCH   6   7
HETATM    7  N   UNL     1     -12.126  13.730  69.365  1.00  0.00    -0.337 NA 
HETATM    8  C   UNL     1     -12.105  12.425  69.968  1.00  0.00    -0.263 A  
HETATM    9  C   UNL     1     -12.903  12.084  71.082  1.00  0.00    -0.331 A  
HETATM   10  C   UNL     1     -12.870  10.820  71.691  1.00  0.00    -0.562 A  
HETATM   11  C   UNL     1     -12.035   9.833  71.198  1.00  0.00    -0.463 A  
HETATM   12  C   UNL     1     -11.241  10.121  70.099  1.00  0.00    -0.377 A  
HETATM   13  C   UNL     1     -11.270  11.393  69.488  1.00  0.00    -0.256 A  
HETATM   14  S   UNL     1     -10.181  11.554  68.102  1.00  0.00    -0.200 SA 
HETATM   15  C   UNL     1     -10.431  13.237  67.614  1.00  0.00    -0.229 A  
HETATM   16  C   UNL     1      -9.660  13.629  66.496  1.00  0.00    -0.294 A  
HETATM   17  C   UNL     1      -9.748  14.910  65.975  1.00  0.00    -0.358 A  
HETATM   18  C   UNL     1     -10.600  15.815  66.579  1.00  0.00    -0.306 A  
HETATM   19  C   UNL     1     -11.356  15.433  67.704  1.00  0.00    -0.292 A  
HETATM   20  C   UNL     1     -11.317  14.131  68.255  1.00  0.00    -0.291 A  
ENDBRANCH   6   7
ENDBRANCH   2   6
TORSDOF 3
ENDMDL
MODEL       41
REMARK 921   NORMALIZED FREE ENERGY PREDICTED BY IDOCK:   -4.99 KCAL/MOL
REMARK 922        TOTAL FREE ENERGY PREDICTED BY IDOCK:   -6.23 KCAL/MOL
REMARK 923 INTER-LIGAND FREE ENERGY PREDICTED BY IDOCK:   -6.24 KCAL/MOL
REMARK 924 INTRA-LIGAND FREE ENERGY PREDICTED BY IDOCK:    0.01 KCAL/MOL
REMARK 927      BINDING AFFINITY PREDICTED BY RF-SCORE:    0.00 PKD
ROOT
HETATM    1  C   UNL     1     -11.107  15.175  71.639  1.00  0.00    -0.193 C  
HETATM    2  C   UNL     1     -12.436  15.684  71.046  1.00  0.00    -0.447 C  
ENDROOT
BRANCH   2   3
HETATM    3  N   UNL     1     -13.467  15.764  72.140  1.00  0.00    -0.443 NA 
HETATM    4  C   UNL     1     -12.874  15.922  73.473  1.00  0.00    -0.590 C  
HETATM    5  C   UNL     1     -14.329  14.568  72.175  1.00  0.00    -0.510 C  
ENDBRANCH   2   3
BRANCH   2   6
HETATM    6  C   UNL     1     -12.845  14.760  69.833  1.00  0.00     0.014 C  
BRANCH   6   7
HETATM    7  N   UNL     1     -11.703  13.964  69.271  1.00  0.00    -0.310 NA 
HETATM    8  C   UNL     1     -10.883  14.622  68.291  1.00  0.00    -0.245 A  
HETATM    9  C   UNL     1     -11.098  15.958  67.885  1.00  0.00    -0.317 A  
HETATM   10  C   UNL     1     -10.317  16.599  66.911  1.00  0.00    -0.299 A  
HETATM   11  C   UNL     1      -9.273  15.925  66.304  1.00  0.00    -0.372 A  
HETATM   12  C   UNL     1      -9.018  14.615  66.680  1.00  0.00    -0.267 A  
HETATM   13  C   UNL     1      -9.805  13.967  67.656  1.00  0.00    -0.233 A  
HETATM   14  S   UNL     1      -9.316  12.299  67.988  1.00  0.00    -0.198 SA 
HETATM   15  C   UNL     1     -10.505  11.786  69.195  1.00  0.00    -0.024 A  
HETATM   16  C   UNL     1     -10.329  10.457  69.642  1.00  0.00    -0.261 A  
HETATM   17  C   UNL     1     -11.165   9.903  70.598  1.00  0.00    -0.416 A  
HETATM   18  C   UNL     1     -12.195  10.673  71.106  1.00  0.00    -0.479 A  
HETATM   19  C   UNL     1     -12.383  11.992  70.650  1.00  0.00    -0.394 A  
HETATM   20  C   UNL     1     -11.541  12.607  69.694  1.00  0.00    -0.251 A  
ENDBRANCH   6   7
ENDBRANCH   2   6
TORSDOF 3
ENDMDL
MODEL       42
REMARK 921   NORMALIZED FREE ENERGY PREDICTED BY IDOCK:   -4.98 KCAL/MOL
REMARK 922        TOTAL FREE ENERGY PREDICTED BY IDOCK:   -6.22 KCAL/MOL
REMARK 923 INTER-LIGAND FREE ENERGY PREDICTED BY IDOCK:   -5.88 KCAL/MOL
REMARK 924 INTRA-LIGAND FREE ENERGY PREDICTED BY IDOCK:   -0.33 KCAL/MOL
REMARK 927      BINDING AFFINITY PREDICTED BY RF-SCORE:    0.00 PKD
ROOT
HETATM    1  C   UNL     1      -8.513  16.948  66.960  1.00  0.00    -0.228 C  
HETATM    2  C   UNL     1      -9.631  16.942  68.022  1.00  0.00    -0.247 C  
ENDROOT
BRANCH   2   3
HETATM    3  N   UNL     1      -9.847  18.347  68.519  1.00  0.00    -0.359 NA 
HETATM    4  C   UNL     1     -10.615  19.172  67.580  1.00  0.00    -0.471 C  
HETATM    5  C   UNL     1      -8.574  19.042  68.783  1.00  0.00    -0.321 C  
ENDBRANCH   2   3
BRANCH   2   6
HETATM    6  C   UNL     1      -9.262  15.903  69.151  1.00  0.00    -0.253 C  
BRANCH   6   7
HETATM    7  N   UNL     1     -10.276  14.808  69.316  1.00  0.00    -0.216 NA 
HETATM    8  C   UNL     1     -11.262  14.997  70.346  1.00  0.00    -0.254 A  
HETATM    9  C   UNL     1     -11.317  16.157  71.150  1.00  0.00    -0.368 A  
HETATM   10  C   UNL     1     -12.261  16.338  72.173  1.00  0.00    -0.466 A  
HETATM   11  C   UNL     1     -13.204  15.358  72.428  1.00  0.00    -0.521 A  
HETATM   12  C   UNL     1     -13.195  14.208  71.655  1.00  0.00    -0.426 A  
HETATM   13  C   UNL     1     -12.243  14.022  70.629  1.00  0.00    -0.372 A  
HETATM   14  S   UNL     1     -12.403  12.486  69.764  1.00  0.00     0.079 SA 
HETATM   15  C   UNL     1     -11.066  12.560  68.606  1.00  0.00    -0.265 A  
HETATM   16  C   UNL     1     -10.971  11.425  67.769  1.00  0.00    -0.301 A  
HETATM   17  C   UNL     1      -9.989  11.329  66.796  1.00  0.00    -0.238 A  
HETATM   18  C   UNL     1      -9.084  12.365  66.661  1.00  0.00    -0.204 A  
HETATM   19  C   UNL     1      -9.166  13.490  67.505  1.00  0.00    -0.219 A  
HETATM   20  C   UNL     1     -10.164  13.642  68.496  1.00  0.00    -0.234 A  
ENDBRANCH   6   7
ENDBRANCH   2   6
TORSDOF 3
ENDMDL
MODEL       43
REMARK 921   NORMALIZED FREE ENERGY PREDICTED BY IDOCK:   -4.92 KCAL/MOL
REMARK 922        TOTAL FREE ENERGY PREDICTED BY IDOCK:   -6.15 KCAL/MOL
REMARK 923 INTER-LIGAND FREE ENERGY PREDICTED BY IDOCK:   -5.90 KCAL/MOL
REMARK 924 INTRA-LIGAND FREE ENERGY PREDICTED BY IDOCK:   -0.25 KCAL/MOL
REMARK 927      BINDING AFFINITY PREDICTED BY RF-SCORE:    0.00 PKD
ROOT
HETATM    1  C   UNL     1     -11.236  15.923  64.631  1.00  0.00    -0.361 C  
HETATM    2  C   UNL     1     -10.520  14.910  65.548  1.00  0.00    -0.360 C  
ENDROOT
BRANCH   2   3
HETATM    3  N   UNL     1     -11.225  13.583  65.462  1.00  0.00    -0.291 NA 
HETATM    4  C   UNL     1     -12.117  13.484  64.301  1.00  0.00    -0.431 C  
HETATM    5  C   UNL     1     -12.031  13.306  66.666  1.00  0.00    -0.388 C  
ENDBRANCH   2   3
BRANCH   2   6
HETATM    6  C   UNL     1     -10.434  15.508  67.006  1.00  0.00    -0.304 C  
BRANCH   6   7
HETATM    7  N   UNL     1      -9.192  16.315  67.253  1.00  0.00    -0.206 NA 
HETATM    8  C   UNL     1      -7.982  15.576  67.490  1.00  0.00    -0.168 A  
HETATM    9  C   UNL     1      -7.930  14.164  67.463  1.00  0.00    -0.202 A  
HETATM   10  C   UNL     1      -6.758  13.435  67.717  1.00  0.00    -0.163 A  
HETATM   11  C   UNL     1      -5.577  14.096  68.002  1.00  0.00    -0.124 A  
HETATM   12  C   UNL     1      -5.579  15.482  68.028  1.00  0.00    -0.142 A  
HETATM   13  C   UNL     1      -6.758  16.217  67.777  1.00  0.00    -0.142 A  
HETATM   14  S   UNL     1      -6.547  17.973  67.860  1.00  0.00    -0.196 SA 
HETATM   15  C   UNL     1      -8.183  18.569  67.545  1.00  0.00    -0.252 A  
HETATM   16  C   UNL     1      -8.290  19.978  67.552  1.00  0.00    -0.381 A  
HETATM   17  C   UNL     1      -9.499  20.610  67.306  1.00  0.00    -0.520 A  
HETATM   18  C   UNL     1     -10.616  19.833  67.065  1.00  0.00    -0.586 A  
HETATM   19  C   UNL     1     -10.517  18.428  67.074  1.00  0.00    -0.429 A  
HETATM   20  C   UNL     1      -9.300  17.741  67.296  1.00  0.00    -0.254 A  
ENDBRANCH   6   7
ENDBRANCH   2   6
TORSDOF 3
ENDMDL
MODEL       44
REMARK 921   NORMALIZED FREE ENERGY PREDICTED BY IDOCK:   -4.92 KCAL/MOL
REMARK 922        TOTAL FREE ENERGY PREDICTED BY IDOCK:   -6.14 KCAL/MOL
REMARK 923 INTER-LIGAND FREE ENERGY PREDICTED BY IDOCK:   -5.86 KCAL/MOL
REMARK 924 INTRA-LIGAND FREE ENERGY PREDICTED BY IDOCK:   -0.28 KCAL/MOL
REMARK 927      BINDING AFFINITY PREDICTED BY RF-SCORE:    0.00 PKD
ROOT
HETATM    1  C   UNL     1     -11.116   6.208  68.613  1.00  0.00    -0.378 C  
HETATM    2  C   UNL     1     -10.714   6.986  67.344  1.00  0.00    -0.313 C  
ENDROOT
BRANCH   2   3
HETATM    3  N   UNL     1     -10.135   6.027  66.339  1.00  0.00    -0.128 NA 
HETATM    4  C   UNL     1     -10.154   4.634  66.803  1.00  0.00    -0.213 C  
HETATM    5  C   UNL     1      -8.741   6.362  65.995  1.00  0.00    -0.151 C  
ENDBRANCH   2   3
BRANCH   2   6
HETATM    6  C   UNL     1      -9.747   8.166  67.748  1.00  0.00    -0.157 C  
BRANCH   6   7
HETATM    7  N   UNL     1     -10.413   9.512  67.764  1.00  0.00    -0.240 NA 
HETATM    8  C   UNL     1     -10.385  10.257  66.534  1.00  0.00    -0.211 A  
HETATM    9  C   UNL     1      -9.798   9.757  65.350  1.00  0.00    -0.365 A  
HETATM   10  C   UNL     1      -9.745  10.488  64.153  1.00  0.00    -0.388 A  
HETATM   11  C   UNL     1     -10.291  11.757  64.090  1.00  0.00    -0.376 A  
HETATM   12  C   UNL     1     -10.888  12.283  65.225  1.00  0.00    -0.332 A  
HETATM   13  C   UNL     1     -10.938  11.551  66.431  1.00  0.00    -0.284 A  
HETATM   14  S   UNL     1     -11.740  12.403  67.760  1.00  0.00    -0.309 SA 
HETATM   15  C   UNL     1     -11.595  11.249  69.094  1.00  0.00    -0.319 A  
HETATM   16  C   UNL     1     -12.175  11.696  70.303  1.00  0.00    -0.401 A  
HETATM   17  C   UNL     1     -12.162  10.908  71.443  1.00  0.00    -0.332 A  
HETATM   18  C   UNL     1     -11.556   9.667  71.384  1.00  0.00    -0.472 A  
HETATM   19  C   UNL     1     -10.962   9.225  70.186  1.00  0.00    -0.278 A  
HETATM   20  C   UNL     1     -10.971   9.985  68.993  1.00  0.00    -0.212 A  
ENDBRANCH   6   7
ENDBRANCH   2   6
TORSDOF 3
ENDMDL
MODEL       45
REMARK 921   NORMALIZED FREE ENERGY PREDICTED BY IDOCK:   -4.89 KCAL/MOL
REMARK 922        TOTAL FREE ENERGY PREDICTED BY IDOCK:   -6.11 KCAL/MOL
REMARK 923 INTER-LIGAND FREE ENERGY PREDICTED BY IDOCK:   -5.79 KCAL/MOL
REMARK 924 INTRA-LIGAND FREE ENERGY PREDICTED BY IDOCK:   -0.33 KCAL/MOL
REMARK 927      BINDING AFFINITY PREDICTED BY RF-SCORE:    0.00 PKD
ROOT
HETATM    1  C   UNL     1     -13.482  10.355  71.975  1.00  0.00    -0.360 C  
HETATM    2  C   UNL     1     -12.625   9.308  71.236  1.00  0.00    -0.306 C  
ENDROOT
BRANCH   2   3
HETATM    3  N   UNL     1     -12.584   8.041  72.048  1.00  0.00    -0.318 NA 
HETATM    4  C   UNL     1     -11.288   7.823  72.701  1.00  0.00    -0.393 C  
HETATM    5  C   UNL     1     -12.876   6.850  71.229  1.00  0.00    -0.278 C  
ENDBRANCH   2   3
BRANCH   2   6
HETATM    6  C   UNL     1     -11.207   9.929  70.928  1.00  0.00    -0.360 C  
BRANCH   6   7
HETATM    7  N   UNL     1     -10.964  10.178  69.467  1.00  0.00    -0.242 NA 
HETATM    8  C   UNL     1     -11.253  11.501  68.984  1.00  0.00    -0.262 A  
HETATM    9  C   UNL     1     -11.711  12.539  69.825  1.00  0.00    -0.355 A  
HETATM   10  C   UNL     1     -12.018  13.826  69.357  1.00  0.00    -0.397 A  
HETATM   11  C   UNL     1     -11.870  14.131  68.016  1.00  0.00    -0.400 A  
HETATM   12  C   UNL     1     -11.412  13.145  67.156  1.00  0.00    -0.378 A  
HETATM   13  C   UNL     1     -11.107  11.849  67.624  1.00  0.00    -0.257 A  
HETATM   14  S   UNL     1     -10.542  10.740  66.365  1.00  0.00    -0.162 SA 
HETATM   15  C   UNL     1     -10.295   9.236  67.265  1.00  0.00    -0.265 A  
HETATM   16  C   UNL     1      -9.828   8.164  66.471  1.00  0.00    -0.309 A  
HETATM   17  C   UNL     1      -9.568   6.919  67.022  1.00  0.00    -0.197 A  
HETATM   18  C   UNL     1      -9.787   6.734  68.374  1.00  0.00    -0.136 A  
HETATM   19  C   UNL     1     -10.269   7.795  69.165  1.00  0.00    -0.210 A  
HETATM   20  C   UNL     1     -10.525   9.088  68.651  1.00  0.00    -0.200 A  
ENDBRANCH   6   7
ENDBRANCH   2   6
TORSDOF 3
ENDMDL
MODEL       46
REMARK 921   NORMALIZED FREE ENERGY PREDICTED BY IDOCK:   -4.87 KCAL/MOL
REMARK 922        TOTAL FREE ENERGY PREDICTED BY IDOCK:   -6.09 KCAL/MOL
REMARK 923 INTER-LIGAND FREE ENERGY PREDICTED BY IDOCK:   -5.81 KCAL/MOL
REMARK 924 INTRA-LIGAND FREE ENERGY PREDICTED BY IDOCK:   -0.28 KCAL/MOL
REMARK 927      BINDING AFFINITY PREDICTED BY RF-SCORE:    0.00 PKD
ROOT
HETATM    1  C   UNL     1     -11.823  15.551  69.316  1.00  0.00    -0.372 C  
HETATM    2  C   UNL     1     -11.002  14.288  68.988  1.00  0.00    -0.260 C  
ENDROOT
BRANCH   2   3
HETATM    3  N   UNL     1      -9.956  14.631  67.961  1.00  0.00    -0.217 NA 
HETATM    4  C   UNL     1      -8.591  14.578  68.497  1.00  0.00    -0.175 C  
HETATM    5  C   UNL     1     -10.159  15.978  67.395  1.00  0.00    -0.258 C  
ENDBRANCH   2   3
BRANCH   2   6
HETATM    6  C   UNL     1     -11.987  13.134  68.551  1.00  0.00    -0.289 C  
BRANCH   6   7
HETATM    7  N   UNL     1     -11.366  12.132  67.622  1.00  0.00    -0.292 NA 
HETATM    8  C   UNL     1     -11.551  12.360  66.214  1.00  0.00    -0.393 A  
HETATM    9  C   UNL     1     -12.247  13.480  65.706  1.00  0.00    -0.505 A  
HETATM   10  C   UNL     1     -12.453  13.697  64.335  1.00  0.00    -0.316 A  
HETATM   11  C   UNL     1     -11.957  12.799  63.407  1.00  0.00    -0.613 A  
HETATM   12  C   UNL     1     -11.257  11.691  63.861  1.00  0.00    -0.479 A  
HETATM   13  C   UNL     1     -11.053  11.468  65.240  1.00  0.00    -0.191 A  
HETATM   14  S   UNL     1     -10.139   9.998  65.607  1.00  0.00    -0.195 SA 
HETATM   15  C   UNL     1     -10.102  10.004  67.377  1.00  0.00    -0.208 A  
HETATM   16  C   UNL     1      -9.408   8.908  67.939  1.00  0.00    -0.155 A  
HETATM   17  C   UNL     1      -9.272   8.769  69.310  1.00  0.00    -0.149 A  
HETATM   18  C   UNL     1      -9.842   9.722  70.134  1.00  0.00    -0.306 A  
HETATM   19  C   UNL     1     -10.549  10.806  69.578  1.00  0.00    -0.235 A  
HETATM   20  C   UNL     1     -10.693  11.002  68.184  1.00  0.00    -0.205 A  
ENDBRANCH   6   7
ENDBRANCH   2   6
TORSDOF 3
ENDMDL
MODEL       47
REMARK 921   NORMALIZED FREE ENERGY PREDICTED BY IDOCK:   -4.85 KCAL/MOL
REMARK 922        TOTAL FREE ENERGY PREDICTED BY IDOCK:   -6.06 KCAL/MOL
REMARK 923 INTER-LIGAND FREE ENERGY PREDICTED BY IDOCK:   -5.70 KCAL/MOL
REMARK 924 INTRA-LIGAND FREE ENERGY PREDICTED BY IDOCK:   -0.36 KCAL/MOL
REMARK 927      BINDING AFFINITY PREDICTED BY RF-SCORE:    0.00 PKD
ROOT
HETATM    1  C   UNL     1      -9.437   8.120  67.569  1.00  0.00    -0.184 C  
HETATM    2  C   UNL     1      -9.866   9.288  68.480  1.00  0.00    -0.158 C  
ENDROOT
BRANCH   2   3
HETATM    3  N   UNL     1      -9.753   8.860  69.918  1.00  0.00    -0.172 NA 
HETATM    4  C   UNL     1      -8.546   9.376  70.574  1.00  0.00    -0.223 C  
HETATM    5  C   UNL     1      -9.742   7.392  70.059  1.00  0.00    -0.175 C  
ENDBRANCH   2   3
BRANCH   2   6
HETATM    6  C   UNL     1     -11.309   9.767  68.055  1.00  0.00     0.174 C  
BRANCH   6   7
HETATM    7  N   UNL     1     -11.429  11.257  67.909  1.00  0.00    -0.433 NA 
HETATM    8  C   UNL     1     -11.043  11.812  66.640  1.00  0.00    -0.310 A  
HETATM    9  C   UNL     1     -10.603  11.016  65.559  1.00  0.00    -0.267 A  
HETATM   10  C   UNL     1     -10.201  11.551  64.326  1.00  0.00    -0.361 A  
HETATM   11  C   UNL     1     -10.233  12.919  64.119  1.00  0.00    -0.311 A  
HETATM   12  C   UNL     1     -10.670  13.738  65.149  1.00  0.00    -0.365 A  
HETATM   13  C   UNL     1     -11.070  13.201  66.392  1.00  0.00    -0.289 A  
HETATM   14  S   UNL     1     -11.590  14.415  67.570  1.00  0.00    -0.388 SA 
HETATM   15  C   UNL     1     -11.973  13.430  68.989  1.00  0.00    -0.315 A  
HETATM   16  C   UNL     1     -12.428  14.177  70.099  1.00  0.00    -0.391 A  
HETATM   17  C   UNL     1     -12.786  13.558  71.286  1.00  0.00    -0.420 A  
HETATM   18  C   UNL     1     -12.679  12.183  71.376  1.00  0.00    -0.368 A  
HETATM   19  C   UNL     1     -12.210  11.437  70.278  1.00  0.00    -0.433 A  
HETATM   20  C   UNL     1     -11.856  12.023  69.040  1.00  0.00    -0.315 A  
ENDBRANCH   6   7
ENDBRANCH   2   6
TORSDOF 3
ENDMDL
MODEL       48
REMARK 921   NORMALIZED FREE ENERGY PREDICTED BY IDOCK:   -4.78 KCAL/MOL
REMARK 922        TOTAL FREE ENERGY PREDICTED BY IDOCK:   -5.98 KCAL/MOL
REMARK 923 INTER-LIGAND FREE ENERGY PREDICTED BY IDOCK:   -5.61 KCAL/MOL
REMARK 924 INTRA-LIGAND FREE ENERGY PREDICTED BY IDOCK:   -0.38 KCAL/MOL
REMARK 927      BINDING AFFINITY PREDICTED BY RF-SCORE:    0.00 PKD
ROOT
HETATM    1  C   UNL     1      -8.099   8.193  66.787  1.00  0.00    -0.103 C  
HETATM    2  C   UNL     1      -8.983   8.696  67.946  1.00  0.00    -0.140 C  
ENDROOT
BRANCH   2   3
HETATM    3  N   UNL     1      -8.901   7.720  69.089  1.00  0.00    -0.138 NA 
HETATM    4  C   UNL     1      -7.756   6.808  68.981  1.00  0.00    -0.110 C  
HETATM    5  C   UNL     1     -10.118   6.894  69.199  1.00  0.00    -0.173 C  
ENDBRANCH   2   3
BRANCH   2   6
HETATM    6  C   UNL     1     -10.446   8.943  67.406  1.00  0.00    -0.277 C  
BRANCH   6   7
HETATM    7  N   UNL     1     -10.820  10.395  67.327  1.00  0.00    -0.279 NA 
HETATM    8  C   UNL     1     -11.320  10.996  68.534  1.00  0.00    -0.287 A  
HETATM    9  C   UNL     1     -11.430  10.289  69.752  1.00  0.00    -0.320 A  
HETATM   10  C   UNL     1     -11.939  10.862  70.928  1.00  0.00    -0.416 A  
HETATM   11  C   UNL     1     -12.354  12.181  70.934  1.00  0.00    -0.370 A  
HETATM   12  C   UNL     1     -12.253  12.917  69.763  1.00  0.00    -0.227 A  
HETATM   13  C   UNL     1     -11.746  12.341  68.578  1.00  0.00    -0.331 A  
HETATM   14  S   UNL     1     -11.704  13.448  67.197  1.00  0.00    -0.389 SA 
HETATM   15  C   UNL     1     -11.070  12.419  65.904  1.00  0.00    -0.313 A  
HETATM   16  C   UNL     1     -10.931  13.081  64.663  1.00  0.00    -0.364 A  
HETATM   17  C   UNL     1     -10.434  12.424  63.549  1.00  0.00    -0.430 A  
HETATM   18  C   UNL     1     -10.083  11.092  63.665  1.00  0.00    -0.432 A  
HETATM   19  C   UNL     1     -10.235  10.425  64.896  1.00  0.00    -0.330 A  
HETATM   20  C   UNL     1     -10.716  11.061  66.065  1.00  0.00    -0.177 A  
ENDBRANCH   6   7
ENDBRANCH   2   6
TORSDOF 3
ENDMDL
MODEL       49
REMARK 921   NORMALIZED FREE ENERGY PREDICTED BY IDOCK:   -4.75 KCAL/MOL
REMARK 922        TOTAL FREE ENERGY PREDICTED BY IDOCK:   -5.95 KCAL/MOL
REMARK 923 INTER-LIGAND FREE ENERGY PREDICTED BY IDOCK:   -5.61 KCAL/MOL
REMARK 924 INTRA-LIGAND FREE ENERGY PREDICTED BY IDOCK:   -0.34 KCAL/MOL
REMARK 927      BINDING AFFINITY PREDICTED BY RF-SCORE:    0.00 PKD
ROOT
HETATM    1  C   UNL     1      -9.339  10.876  68.335  1.00  0.00    -0.172 C  
HETATM    2  C   UNL     1      -9.528  12.406  68.377  1.00  0.00    -0.169 C  
ENDROOT
BRANCH   2   3
HETATM    3  N   UNL     1     -10.997  12.720  68.469  1.00  0.00    -0.247 NA 
HETATM    4  C   UNL     1     -11.308  13.691  69.525  1.00  0.00    -0.214 C  
HETATM    5  C   UNL     1     -11.805  11.513  68.723  1.00  0.00    -0.330 C  
ENDBRANCH   2   3
BRANCH   2   6
HETATM    6  C   UNL     1      -8.802  13.048  67.131  1.00  0.00    -0.218 C  
BRANCH   6   7
HETATM    7  N   UNL     1      -9.682  13.960  66.326  1.00  0.00    -0.295 NA 
HETATM    8  C   UNL     1     -10.481  13.344  65.301  1.00  0.00    -0.324 A  
HETATM    9  C   UNL     1     -10.481  11.951  65.066  1.00  0.00    -0.333 A  
HETATM   10  C   UNL     1     -11.238  11.345  64.052  1.00  0.00    -0.350 A  
HETATM   11  C   UNL     1     -12.042  12.116  63.230  1.00  0.00    -0.512 A  
HETATM   12  C   UNL     1     -12.081  13.486  63.433  1.00  0.00    -0.351 A  
HETATM   13  C   UNL     1     -11.316  14.098  64.449  1.00  0.00    -0.299 A  
HETATM   14  S   UNL     1     -11.507  15.856  64.539  1.00  0.00    -0.149 SA 
HETATM   15  C   UNL     1     -10.408  16.292  65.857  1.00  0.00    -0.365 A  
HETATM   16  C   UNL     1     -10.376  17.676  66.140  1.00  0.00    -0.334 A  
HETATM   17  C   UNL     1      -9.579  18.185  67.153  1.00  0.00    -0.277 A  
HETATM   18  C   UNL     1      -8.797  17.311  67.884  1.00  0.00    -0.235 A  
HETATM   19  C   UNL     1      -8.814  15.933  67.593  1.00  0.00    -0.180 A  
HETATM   20  C   UNL     1      -9.628  15.366  66.585  1.00  0.00    -0.256 A  
ENDBRANCH   6   7
ENDBRANCH   2   6
TORSDOF 3
ENDMDL
MODEL       50
REMARK 921   NORMALIZED FREE ENERGY PREDICTED BY IDOCK:   -4.75 KCAL/MOL
REMARK 922        TOTAL FREE ENERGY PREDICTED BY IDOCK:   -5.94 KCAL/MOL
REMARK 923 INTER-LIGAND FREE ENERGY PREDICTED BY IDOCK:   -5.58 KCAL/MOL
REMARK 924 INTRA-LIGAND FREE ENERGY PREDICTED BY IDOCK:   -0.36 KCAL/MOL
REMARK 927      BINDING AFFINITY PREDICTED BY RF-SCORE:    0.00 PKD
ROOT
HETATM    1  C   UNL     1     -10.760  18.969  65.991  1.00  0.00    -0.417 C  
HETATM    2  C   UNL     1      -9.940  18.016  66.885  1.00  0.00    -0.340 C  
ENDROOT
BRANCH   2   3
HETATM    3  N   UNL     1      -9.096  18.829  67.829  1.00  0.00    -0.283 NA 
HETATM    4  C   UNL     1      -9.891  19.700  68.701  1.00  0.00    -0.427 C  
HETATM    5  C   UNL     1      -8.129  19.681  67.111  1.00  0.00    -0.282 C  
ENDBRANCH   2   3
BRANCH   2   6
HETATM    6  C   UNL     1      -9.122  17.028  65.966  1.00  0.00    -0.137 C  
BRANCH   6   7
HETATM    7  N   UNL     1      -9.211  15.592  66.398  1.00  0.00    -0.283 NA 
HETATM    8  C   UNL     1      -8.191  15.128  67.299  1.00  0.00    -0.208 A  
HETATM    9  C   UNL     1      -7.167  15.967  67.794  1.00  0.00    -0.161 A  
HETATM   10  C   UNL     1      -6.155  15.516  68.654  1.00  0.00    -0.097 A  
HETATM   11  C   UNL     1      -6.130  14.195  69.065  1.00  0.00    -0.093 A  
HETATM   12  C   UNL     1      -7.122  13.338  68.613  1.00  0.00    -0.103 A  
HETATM   13  C   UNL     1      -8.138  13.790  67.743  1.00  0.00    -0.176 A  
HETATM   14  S   UNL     1      -9.304  12.539  67.283  1.00  0.00    -0.196 SA 
HETATM   15  C   UNL     1     -10.387  13.411  66.189  1.00  0.00    -0.295 A  
HETATM   16  C   UNL     1     -11.436  12.619  65.670  1.00  0.00    -0.387 A  
HETATM   17  C   UNL     1     -12.382  13.151  64.809  1.00  0.00    -0.477 A  
HETATM   18  C   UNL     1     -12.278  14.482  64.449  1.00  0.00    -0.480 A  
HETATM   19  C   UNL     1     -11.224  15.270  64.950  1.00  0.00    -0.422 A  
HETATM   20  C   UNL     1     -10.249  14.776  65.849  1.00  0.00    -0.313 A  
ENDBRANCH   6   7
ENDBRANCH   2   6
TORSDOF 3
ENDMDL
MODEL       51
REMARK 921   NORMALIZED FREE ENERGY PREDICTED BY IDOCK:   -4.74 KCAL/MOL
REMARK 922        TOTAL FREE ENERGY PREDICTED BY IDOCK:   -5.94 KCAL/MOL
REMARK 923 INTER-LIGAND FREE ENERGY PREDICTED BY IDOCK:   -5.65 KCAL/MOL
REMARK 924 INTRA-LIGAND FREE ENERGY PREDICTED BY IDOCK:   -0.29 KCAL/MOL
REMARK 927      BINDING AFFINITY PREDICTED BY RF-SCORE:    0.00 PKD
ROOT
HETATM    1  C   UNL     1      -9.344   7.950  66.966  1.00  0.00    -0.200 C  
HETATM    2  C   UNL     1      -9.673   9.123  67.911  1.00  0.00    -0.154 C  
ENDROOT
BRANCH   2   3
HETATM    3  N   UNL     1      -9.404   8.703  69.332  1.00  0.00    -0.150 NA 
HETATM    4  C   UNL     1      -8.413   9.555  70.000  1.00  0.00    -0.195 C  
HETATM    5  C   UNL     1      -8.922   7.312  69.415  1.00  0.00    -0.139 C  
ENDBRANCH   2   3
BRANCH   2   6
HETATM    6  C   UNL     1     -11.155   9.598  67.644  1.00  0.00     0.008 C  
BRANCH   6   7
HETATM    7  N   UNL     1     -11.365  11.068  67.866  1.00  0.00    -0.387 NA 
HETATM    8  C   UNL     1     -11.797  11.464  69.179  1.00  0.00    -0.345 A  
HETATM    9  C   UNL     1     -11.989  10.541  70.232  1.00  0.00    -0.411 A  
HETATM   10  C   UNL     1     -12.434  10.916  71.509  1.00  0.00    -0.419 A  
HETATM   11  C   UNL     1     -12.699  12.244  71.789  1.00  0.00    -0.257 A  
HETATM   12  C   UNL     1     -12.514  13.186  70.789  1.00  0.00    -0.389 A  
HETATM   13  C   UNL     1     -12.071  12.810  69.503  1.00  0.00    -0.205 A  
HETATM   14  S   UNL     1     -11.901  14.162  68.373  1.00  0.00    -0.338 SA 
HETATM   15  C   UNL     1     -11.382  13.353  66.886  1.00  0.00    -0.323 A  
HETATM   16  C   UNL     1     -11.168  14.233  65.801  1.00  0.00    -0.317 A  
HETATM   17  C   UNL     1     -10.743  13.765  64.568  1.00  0.00    -0.405 A  
HETATM   18  C   UNL     1     -10.543  12.407  64.407  1.00  0.00    -0.366 A  
HETATM   19  C   UNL     1     -10.773  11.526  65.481  1.00  0.00    -0.328 A  
HETATM   20  C   UNL     1     -11.183  11.960  66.763  1.00  0.00    -0.327 A  
ENDBRANCH   6   7
ENDBRANCH   2   6
TORSDOF 3
ENDMDL
MODEL       52
REMARK 921   NORMALIZED FREE ENERGY PREDICTED BY IDOCK:   -4.74 KCAL/MOL
REMARK 922        TOTAL FREE ENERGY PREDICTED BY IDOCK:   -5.93 KCAL/MOL
REMARK 923 INTER-LIGAND FREE ENERGY PREDICTED BY IDOCK:   -5.58 KCAL/MOL
REMARK 924 INTRA-LIGAND FREE ENERGY PREDICTED BY IDOCK:   -0.35 KCAL/MOL
REMARK 927      BINDING AFFINITY PREDICTED BY RF-SCORE:    0.00 PKD
ROOT
HETATM    1  C   UNL     1      -8.328  16.887  66.790  1.00  0.00    -0.269 C  
HETATM    2  C   UNL     1      -9.519  16.682  67.746  1.00  0.00    -0.227 C  
ENDROOT
BRANCH   2   3
HETATM    3  N   UNL     1     -10.014  18.024  68.214  1.00  0.00    -0.349 NA 
HETATM    4  C   UNL     1     -10.855  18.701  67.219  1.00  0.00    -0.310 C  
HETATM    5  C   UNL     1      -8.905  18.935  68.552  1.00  0.00    -0.352 C  
ENDBRANCH   2   3
BRANCH   2   6
HETATM    6  C   UNL     1      -9.083  15.708  68.909  1.00  0.00    -0.217 C  
BRANCH   6   7
HETATM    7  N   UNL     1     -10.033  14.566  69.127  1.00  0.00    -0.160 NA 
HETATM    8  C   UNL     1      -9.822  13.393  68.324  1.00  0.00    -0.235 A  
HETATM    9  C   UNL     1      -8.762  13.281  67.396  1.00  0.00    -0.206 A  
HETATM   10  C   UNL     1      -8.563  12.149  66.591  1.00  0.00    -0.122 A  
HETATM   11  C   UNL     1      -9.420  11.067  66.690  1.00  0.00    -0.207 A  
HETATM   12  C   UNL     1     -10.468  11.129  67.596  1.00  0.00    -0.230 A  
HETATM   13  C   UNL     1     -10.672  12.269  68.403  1.00  0.00    -0.234 A  
HETATM   14  S   UNL     1     -12.065  12.146  69.489  1.00  0.00    -0.143 SA 
HETATM   15  C   UNL     1     -12.054  13.718  70.302  1.00  0.00    -0.355 A  
HETATM   16  C   UNL     1     -13.091  13.879  71.249  1.00  0.00    -0.385 A  
HETATM   17  C   UNL     1     -13.217  15.046  71.986  1.00  0.00    -0.457 A  
HETATM   18  C   UNL     1     -12.312  16.068  71.771  1.00  0.00    -0.496 A  
HETATM   19  C   UNL     1     -11.288  15.917  70.816  1.00  0.00    -0.424 A  
HETATM   20  C   UNL     1     -11.106  14.736  70.058  1.00  0.00    -0.204 A  
ENDBRANCH   6   7
ENDBRANCH   2   6
TORSDOF 3
ENDMDL
MODEL       53
REMARK 921   NORMALIZED FREE ENERGY PREDICTED BY IDOCK:   -4.73 KCAL/MOL
REMARK 922        TOTAL FREE ENERGY PREDICTED BY IDOCK:   -5.92 KCAL/MOL
REMARK 923 INTER-LIGAND FREE ENERGY PREDICTED BY IDOCK:   -5.63 KCAL/MOL
REMARK 924 INTRA-LIGAND FREE ENERGY PREDICTED BY IDOCK:   -0.30 KCAL/MOL
REMARK 927      BINDING AFFINITY PREDICTED BY RF-SCORE:    0.00 PKD
ROOT
HETATM    1  C   UNL     1      -7.073  16.440  66.944  1.00  0.00    -0.256 C  
HETATM    2  C   UNL     1      -8.491  16.297  66.356  1.00  0.00    -0.330 C  
ENDROOT
BRANCH   2   3
HETATM    3  N   UNL     1      -9.097  17.665  66.189  1.00  0.00    -0.496 NA 
HETATM    4  C   UNL     1      -8.166  18.747  66.531  1.00  0.00    -0.291 C  
HETATM    5  C   UNL     1     -10.305  17.840  67.017  1.00  0.00    -0.344 C  
ENDBRANCH   2   3
BRANCH   2   6
HETATM    6  C   UNL     1      -9.331  15.322  67.270  1.00  0.00    -0.205 C  
BRANCH   6   7
HETATM    7  N   UNL     1      -9.380  13.911  66.758  1.00  0.00    -0.269 NA 
HETATM    8  C   UNL     1      -8.469  12.976  67.361  1.00  0.00    -0.200 A  
HETATM    9  C   UNL     1      -7.587  13.333  68.406  1.00  0.00    -0.137 A  
HETATM   10  C   UNL     1      -6.678  12.434  68.983  1.00  0.00    -0.100 A  
HETATM   11  C   UNL     1      -6.620  11.125  68.540  1.00  0.00    -0.060 A  
HETATM   12  C   UNL     1      -7.476  10.727  67.524  1.00  0.00    -0.093 A  
HETATM   13  C   UNL     1      -8.387  11.632  66.939  1.00  0.00    -0.169 A  
HETATM   14  S   UNL     1      -9.386  10.926  65.659  1.00  0.00    -0.215 SA 
HETATM   15  C   UNL     1     -10.360  12.306  65.131  1.00  0.00    -0.286 A  
HETATM   16  C   UNL     1     -11.267  12.002  64.091  1.00  0.00    -0.441 A  
HETATM   17  C   UNL     1     -12.116  12.965  63.571  1.00  0.00    -0.633 A  
HETATM   18  C   UNL     1     -12.054  14.249  64.081  1.00  0.00    -0.423 A  
HETATM   19  C   UNL     1     -11.140  14.560  65.105  1.00  0.00    -0.374 A  
HETATM   20  C   UNL     1     -10.271  13.604  65.682  1.00  0.00    -0.304 A  
ENDBRANCH   6   7
ENDBRANCH   2   6
TORSDOF 3
ENDMDL
MODEL       54
REMARK 921   NORMALIZED FREE ENERGY PREDICTED BY IDOCK:   -4.72 KCAL/MOL
REMARK 922        TOTAL FREE ENERGY PREDICTED BY IDOCK:   -5.91 KCAL/MOL
REMARK 923 INTER-LIGAND FREE ENERGY PREDICTED BY IDOCK:   -5.64 KCAL/MOL
REMARK 924 INTRA-LIGAND FREE ENERGY PREDICTED BY IDOCK:   -0.27 KCAL/MOL
REMARK 927      BINDING AFFINITY PREDICTED BY RF-SCORE:    0.00 PKD
ROOT
HETATM    1  C   UNL     1     -12.521  12.393  70.478  1.00  0.00    -0.270 C  
HETATM    2  C   UNL     1     -12.021  11.208  69.626  1.00  0.00    -0.359 C  
ENDROOT
BRANCH   2   3
HETATM    3  N   UNL     1     -12.062   9.952  70.456  1.00  0.00    -0.240 NA 
HETATM    4  C   UNL     1     -13.129   9.968  71.464  1.00  0.00    -0.433 C  
HETATM    5  C   UNL     1     -10.789   9.713  71.160  1.00  0.00    -0.334 C  
ENDBRANCH   2   3
BRANCH   2   6
HETATM    6  C   UNL     1     -10.596  11.557  69.045  1.00  0.00    -0.173 C  
BRANCH   6   7
HETATM    7  N   UNL     1     -10.468  11.301  67.571  1.00  0.00    -0.193 NA 
HETATM    8  C   UNL     1      -9.734  10.126  67.185  1.00  0.00    -0.173 A  
HETATM    9  C   UNL     1      -9.181   9.226  68.124  1.00  0.00    -0.136 A  
HETATM   10  C   UNL     1      -8.443   8.091  67.755  1.00  0.00    -0.128 A  
HETATM   11  C   UNL     1      -8.233   7.803  66.419  1.00  0.00    -0.116 A  
HETATM   12  C   UNL     1      -8.767   8.653  65.463  1.00  0.00    -0.219 A  
HETATM   13  C   UNL     1      -9.506   9.798  65.832  1.00  0.00    -0.226 A  
HETATM   14  S   UNL     1     -10.096  10.750  64.461  1.00  0.00    -0.357 SA 
HETATM   15  C   UNL     1     -10.923  12.096  65.260  1.00  0.00    -0.304 A  
HETATM   16  C   UNL     1     -11.502  13.024  64.365  1.00  0.00    -0.409 A  
HETATM   17  C   UNL     1     -12.201  14.128  64.825  1.00  0.00    -0.457 A  
HETATM   18  C   UNL     1     -12.313  14.321  66.189  1.00  0.00    -0.411 A  
HETATM   19  C   UNL     1     -11.722  13.408  67.084  1.00  0.00    -0.424 A  
HETATM   20  C   UNL     1     -11.022  12.254  66.660  1.00  0.00    -0.278 A  
ENDBRANCH   6   7
ENDBRANCH   2   6
TORSDOF 3
ENDMDL
MODEL       55
REMARK 921   NORMALIZED FREE ENERGY PREDICTED BY IDOCK:   -4.71 KCAL/MOL
REMARK 922        TOTAL FREE ENERGY PREDICTED BY IDOCK:   -5.90 KCAL/MOL
REMARK 923 INTER-LIGAND FREE ENERGY PREDICTED BY IDOCK:   -5.61 KCAL/MOL
REMARK 924 INTRA-LIGAND FREE ENERGY PREDICTED BY IDOCK:   -0.29 KCAL/MOL
REMARK 927      BINDING AFFINITY PREDICTED BY RF-SCORE:    0.00 PKD
ROOT
HETATM    1  C   UNL     1      -9.759  13.098  68.278  1.00  0.00    -0.223 C  
HETATM    2  C   UNL     1      -9.871  14.632  68.396  1.00  0.00    -0.220 C  
ENDROOT
BRANCH   2   3
HETATM    3  N   UNL     1     -11.295  15.044  68.131  1.00  0.00    -0.317 NA 
HETATM    4  C   UNL     1     -12.149  14.945  69.321  1.00  0.00    -0.251 C  
HETATM    5  C   UNL     1     -11.917  14.232  67.069  1.00  0.00    -0.433 C  
ENDBRANCH   2   3
BRANCH   2   6
HETATM    6  C   UNL     1      -8.811  15.300  67.437  1.00  0.00    -0.179 C  
BRANCH   6   7
HETATM    7  N   UNL     1      -8.364  16.660  67.888  1.00  0.00    -0.182 NA 
HETATM    8  C   UNL     1      -9.040  17.786  67.303  1.00  0.00    -0.246 A  
HETATM    9  C   UNL     1     -10.096  17.647  66.375  1.00  0.00    -0.356 A  
HETATM   10  C   UNL     1     -10.745  18.740  65.781  1.00  0.00    -0.263 A  
HETATM   11  C   UNL     1     -10.365  20.031  66.102  1.00  0.00    -0.570 A  
HETATM   12  C   UNL     1      -9.340  20.215  67.017  1.00  0.00    -0.523 A  
HETATM   13  C   UNL     1      -8.683  19.116  67.612  1.00  0.00    -0.296 A  
HETATM   14  S   UNL     1      -7.404  19.568  68.749  1.00  0.00    -0.350 SA 
HETATM   15  C   UNL     1      -6.780  17.994  69.265  1.00  0.00    -0.209 A  
HETATM   16  C   UNL     1      -5.725  18.076  70.202  1.00  0.00    -0.224 A  
HETATM   17  C   UNL     1      -5.133  16.936  70.721  1.00  0.00    -0.232 A  
HETATM   18  C   UNL     1      -5.585  15.701  70.295  1.00  0.00    -0.158 A  
HETATM   19  C   UNL     1      -6.624  15.616  69.348  1.00  0.00    -0.166 A  
HETATM   20  C   UNL     1      -7.274  16.751  68.810  1.00  0.00    -0.217 A  
ENDBRANCH   6   7
ENDBRANCH   2   6
TORSDOF 3
ENDMDL
MODEL       56
REMARK 921   NORMALIZED FREE ENERGY PREDICTED BY IDOCK:   -4.70 KCAL/MOL
REMARK 922        TOTAL FREE ENERGY PREDICTED BY IDOCK:   -5.89 KCAL/MOL
REMARK 923 INTER-LIGAND FREE ENERGY PREDICTED BY IDOCK:   -5.58 KCAL/MOL
REMARK 924 INTRA-LIGAND FREE ENERGY PREDICTED BY IDOCK:   -0.31 KCAL/MOL
REMARK 927      BINDING AFFINITY PREDICTED BY RF-SCORE:    0.00 PKD
ROOT
HETATM    1  C   UNL     1      -9.855   7.618  66.727  1.00  0.00    -0.307 C  
HETATM    2  C   UNL     1      -9.962   9.135  66.982  1.00  0.00    -0.230 C  
ENDROOT
BRANCH   2   3
HETATM    3  N   UNL     1      -9.248   9.873  65.882  1.00  0.00    -0.164 NA 
HETATM    4  C   UNL     1      -7.953  10.418  66.306  1.00  0.00    -0.138 C  
HETATM    5  C   UNL     1     -10.050  10.993  65.356  1.00  0.00    -0.269 C  
ENDBRANCH   2   3
BRANCH   2   6
HETATM    6  C   UNL     1      -9.424   9.451  68.432  1.00  0.00    -0.141 C  
BRANCH   6   7
HETATM    7  N   UNL     1     -10.500   9.857  69.398  1.00  0.00    -0.216 NA 
HETATM    8  C   UNL     1     -11.041   8.818  70.232  1.00  0.00    -0.222 A  
HETATM    9  C   UNL     1     -10.578   7.484  70.188  1.00  0.00    -0.241 A  
HETATM   10  C   UNL     1     -11.116   6.459  70.981  1.00  0.00    -0.349 A  
HETATM   11  C   UNL     1     -12.145   6.732  71.865  1.00  0.00    -0.375 A  
HETATM   12  C   UNL     1     -12.623   8.030  71.949  1.00  0.00    -0.359 A  
HETATM   13  C   UNL     1     -12.086   9.062  71.148  1.00  0.00    -0.287 A  
HETATM   14  S   UNL     1     -12.838  10.643  71.407  1.00  0.00    -0.469 SA 
HETATM   15  C   UNL     1     -11.977  11.668  70.248  1.00  0.00    -0.358 A  
HETATM   16  C   UNL     1     -12.397  13.018  70.256  1.00  0.00    -0.311 A  
HETATM   17  C   UNL     1     -11.815  13.957  69.421  1.00  0.00    -0.384 A  
HETATM   18  C   UNL     1     -10.814  13.549  68.558  1.00  0.00    -0.283 A  
HETATM   19  C   UNL     1     -10.405  12.202  68.536  1.00  0.00    -0.233 A  
HETATM   20  C   UNL     1     -10.954  11.214  69.386  1.00  0.00    -0.244 A  
ENDBRANCH   6   7
ENDBRANCH   2   6
TORSDOF 3
ENDMDL
MODEL       57
REMARK 921   NORMALIZED FREE ENERGY PREDICTED BY IDOCK:   -4.69 KCAL/MOL
REMARK 922        TOTAL FREE ENERGY PREDICTED BY IDOCK:   -5.87 KCAL/MOL
REMARK 923 INTER-LIGAND FREE ENERGY PREDICTED BY IDOCK:   -5.89 KCAL/MOL
REMARK 924 INTRA-LIGAND FREE ENERGY PREDICTED BY IDOCK:    0.01 KCAL/MOL
REMARK 927      BINDING AFFINITY PREDICTED BY RF-SCORE:    0.00 PKD
ROOT
HETATM    1  C   UNL     1     -11.357  14.817  67.967  1.00  0.00    -0.332 C  
HETATM    2  C   UNL     1     -11.555  15.052  66.456  1.00  0.00    -0.184 C  
ENDROOT
BRANCH   2   3
HETATM    3  N   UNL     1     -12.264  13.865  65.861  1.00  0.00    -0.439 NA 
HETATM    4  C   UNL     1     -11.808  12.587  66.421  1.00  0.00    -0.381 C  
HETATM    5  C   UNL     1     -12.093  13.795  64.398  1.00  0.00    -0.436 C  
ENDBRANCH   2   3
BRANCH   2   6
HETATM    6  C   UNL     1     -10.156  15.370  65.798  1.00  0.00    -0.363 C  
BRANCH   6   7
HETATM    7  N   UNL     1      -9.227  16.133  66.698  1.00  0.00    -0.226 NA 
HETATM    8  C   UNL     1      -9.389  17.562  66.726  1.00  0.00    -0.265 A  
HETATM    9  C   UNL     1     -10.384  18.234  65.981  1.00  0.00    -0.377 A  
HETATM   10  C   UNL     1     -10.532  19.629  65.983  1.00  0.00    -0.622 A  
HETATM   11  C   UNL     1      -9.688  20.416  66.747  1.00  0.00    -0.528 A  
HETATM   12  C   UNL     1      -8.704  19.798  67.503  1.00  0.00    -0.388 A  
HETATM   13  C   UNL     1      -8.551  18.395  67.498  1.00  0.00    -0.257 A  
HETATM   14  S   UNL     1      -7.236  17.808  68.528  1.00  0.00    -0.267 SA 
HETATM   15  C   UNL     1      -7.295  16.059  68.262  1.00  0.00    -0.128 A  
HETATM   16  C   UNL     1      -6.325  15.336  68.992  1.00  0.00    -0.108 A  
HETATM   17  C   UNL     1      -6.244  13.955  68.911  1.00  0.00    -0.090 A  
HETATM   18  C   UNL     1      -7.128  13.286  68.086  1.00  0.00    -0.111 A  
HETATM   19  C   UNL     1      -8.085  14.005  67.343  1.00  0.00    -0.199 A  
HETATM   20  C   UNL     1      -8.220  15.411  67.413  1.00  0.00    -0.183 A  
ENDBRANCH   6   7
ENDBRANCH   2   6
TORSDOF 3
ENDMDL
MODEL       58
REMARK 921   NORMALIZED FREE ENERGY PREDICTED BY IDOCK:   -4.69 KCAL/MOL
REMARK 922        TOTAL FREE ENERGY PREDICTED BY IDOCK:   -5.87 KCAL/MOL
REMARK 923 INTER-LIGAND FREE ENERGY PREDICTED BY IDOCK:   -5.90 KCAL/MOL
REMARK 924 INTRA-LIGAND FREE ENERGY PREDICTED BY IDOCK:    0.02 KCAL/MOL
REMARK 927      BINDING AFFINITY PREDICTED BY RF-SCORE:    0.00 PKD
ROOT
HETATM    1  C   UNL     1     -10.196  14.033  68.703  1.00  0.00    -0.233 C  
HETATM    2  C   UNL     1     -11.683  14.260  69.041  1.00  0.00    -0.317 C  
ENDROOT
BRANCH   2   3
HETATM    3  N   UNL     1     -11.830  14.436  70.529  1.00  0.00    -0.298 NA 
HETATM    4  C   UNL     1     -13.215  14.695  70.939  1.00  0.00    -0.337 C  
HETATM    5  C   UNL     1     -11.001  15.544  71.039  1.00  0.00    -0.266 C  
ENDBRANCH   2   3
BRANCH   2   6
HETATM    6  C   UNL     1     -12.533  13.074  68.439  1.00  0.00     0.479 C  
BRANCH   6   7
HETATM    7  N   UNL     1     -11.699  11.955  67.886  1.00  0.00    -0.487 NA 
HETATM    8  C   UNL     1     -11.367  12.032  66.488  1.00  0.00    -0.354 A  
HETATM    9  C   UNL     1     -11.765  13.109  65.666  1.00  0.00    -0.402 A  
HETATM   10  C   UNL     1     -11.467  13.180  64.296  1.00  0.00    -0.428 A  
HETATM   11  C   UNL     1     -10.743  12.168  63.691  1.00  0.00    -0.518 A  
HETATM   12  C   UNL     1     -10.322  11.096  64.463  1.00  0.00    -0.400 A  
HETATM   13  C   UNL     1     -10.626  11.022  65.839  1.00  0.00    -0.206 A  
HETATM   14  S   UNL     1      -9.999   9.573  66.640  1.00  0.00    -0.258 SA 
HETATM   15  C   UNL     1     -10.579   9.774  68.300  1.00  0.00    -0.229 A  
HETATM   16  C   UNL     1     -10.201   8.726  69.170  1.00  0.00    -0.215 A  
HETATM   17  C   UNL     1     -10.559   8.736  70.508  1.00  0.00    -0.252 A  
HETATM   18  C   UNL     1     -11.313   9.792  70.985  1.00  0.00    -0.460 A  
HETATM   19  C   UNL     1     -11.705  10.830  70.118  1.00  0.00    -0.425 A  
HETATM   20  C   UNL     1     -11.343  10.874  68.751  1.00  0.00    -0.292 A  
ENDBRANCH   6   7
ENDBRANCH   2   6
TORSDOF 3
ENDMDL
MODEL       59
REMARK 921   NORMALIZED FREE ENERGY PREDICTED BY IDOCK:   -4.67 KCAL/MOL
REMARK 922        TOTAL FREE ENERGY PREDICTED BY IDOCK:   -5.85 KCAL/MOL
REMARK 923 INTER-LIGAND FREE ENERGY PREDICTED BY IDOCK:   -5.53 KCAL/MOL
REMARK 924 INTRA-LIGAND FREE ENERGY PREDICTED BY IDOCK:   -0.33 KCAL/MOL
REMARK 927      BINDING AFFINITY PREDICTED BY RF-SCORE:    0.00 PKD
ROOT
HETATM    1  C   UNL     1      -8.744  13.783  67.268  1.00  0.00    -0.226 C  
HETATM    2  C   UNL     1      -8.933  12.555  68.182  1.00  0.00    -0.199 C  
ENDROOT
BRANCH   2   3
HETATM    3  N   UNL     1      -7.808  11.584  67.942  1.00  0.00    -0.117 NA 
HETATM    4  C   UNL     1      -6.522  12.249  67.696  1.00  0.00    -0.120 C  
HETATM    5  C   UNL     1      -8.077  10.699  66.794  1.00  0.00    -0.131 C  
ENDBRANCH   2   3
BRANCH   2   6
HETATM    6  C   UNL     1     -10.372  11.953  67.944  1.00  0.00    -0.198 C  
BRANCH   6   7
HETATM    7  N   UNL     1     -11.175  11.798  69.204  1.00  0.00    -0.250 NA 
HETATM    8  C   UNL     1     -11.285  10.466  69.735  1.00  0.00    -0.293 A  
HETATM    9  C   UNL     1     -10.653   9.351  69.141  1.00  0.00    -0.234 A  
HETATM   10  C   UNL     1     -10.775   8.045  69.639  1.00  0.00    -0.207 A  
HETATM   11  C   UNL     1     -11.535   7.801  70.769  1.00  0.00    -0.285 A  
HETATM   12  C   UNL     1     -12.165   8.868  71.391  1.00  0.00    -0.374 A  
HETATM   13  C   UNL     1     -12.047  10.181  70.888  1.00  0.00    -0.356 A  
HETATM   14  S   UNL     1     -12.929  11.396  71.827  1.00  0.00    -0.308 SA 
HETATM   15  C   UNL     1     -12.607  12.883  70.923  1.00  0.00    -0.270 A  
HETATM   16  C   UNL     1     -13.211  14.034  71.479  1.00  0.00    -0.431 A  
HETATM   17  C   UNL     1     -13.047  15.283  70.904  1.00  0.00    -0.523 A  
HETATM   18  C   UNL     1     -12.285  15.389  69.755  1.00  0.00    -0.336 A  
HETATM   19  C   UNL     1     -11.697  14.243  69.187  1.00  0.00    -0.360 A  
HETATM   20  C   UNL     1     -11.817  12.952  69.753  1.00  0.00    -0.310 A  
ENDBRANCH   6   7
ENDBRANCH   2   6
TORSDOF 3
ENDMDL
MODEL       60
REMARK 921   NORMALIZED FREE ENERGY PREDICTED BY IDOCK:   -4.66 KCAL/MOL
REMARK 922        TOTAL FREE ENERGY PREDICTED BY IDOCK:   -5.85 KCAL/MOL
REMARK 923 INTER-LIGAND FREE ENERGY PREDICTED BY IDOCK:   -5.51 KCAL/MOL
REMARK 924 INTRA-LIGAND FREE ENERGY PREDICTED BY IDOCK:   -0.34 KCAL/MOL
REMARK 927      BINDING AFFINITY PREDICTED BY RF-SCORE:    0.00 PKD
ROOT
HETATM    1  C   UNL     1      -8.992   8.690  66.143  1.00  0.00    -0.221 C  
HETATM    2  C   UNL     1     -10.019   9.391  67.053  1.00  0.00    -0.221 C  
ENDROOT
BRANCH   2   3
HETATM    3  N   UNL     1     -10.371  10.730  66.461  1.00  0.00    -0.238 NA 
HETATM    4  C   UNL     1     -10.321  10.736  64.995  1.00  0.00    -0.287 C  
HETATM    5  C   UNL     1      -9.477  11.799  66.941  1.00  0.00    -0.193 C  
ENDBRANCH   2   3
BRANCH   2   6
HETATM    6  C   UNL     1      -9.442   9.461  68.521  1.00  0.00    -0.145 C  
BRANCH   6   7
HETATM    7  N   UNL     1     -10.316   8.794  69.543  1.00  0.00    -0.209 NA 
HETATM    8  C   UNL     1     -10.156   7.373  69.696  1.00  0.00    -0.186 A  
HETATM    9  C   UNL     1      -9.209   6.626  68.960  1.00  0.00    -0.131 A  
HETATM   10  C   UNL     1      -9.063   5.236  69.086  1.00  0.00    -0.136 A  
HETATM   11  C   UNL     1      -9.860   4.531  69.970  1.00  0.00    -0.296 A  
HETATM   12  C   UNL     1     -10.795   5.226  70.722  1.00  0.00    -0.117 A  
HETATM   13  C   UNL     1     -10.947   6.623  70.593  1.00  0.00    -0.280 A  
HETATM   14  S   UNL     1     -12.196   7.314  71.640  1.00  0.00    -0.360 SA 
HETATM   15  C   UNL     1     -12.150   9.030  71.206  1.00  0.00    -0.314 A  
HETATM   16  C   UNL     1     -13.073   9.826  71.921  1.00  0.00    -0.544 A  
HETATM   17  C   UNL     1     -13.156  11.193  71.715  1.00  0.00    -0.536 A  
HETATM   18  C   UNL     1     -12.323  11.775  70.778  1.00  0.00    -0.433 A  
HETATM   19  C   UNL     1     -11.413  10.982  70.051  1.00  0.00    -0.398 A  
HETATM   20  C   UNL     1     -11.277   9.588  70.246  1.00  0.00    -0.261 A  
ENDBRANCH   6   7
ENDBRANCH   2   6
TORSDOF 3
ENDMDL
MODEL       61
REMARK 921   NORMALIZED FREE ENERGY PREDICTED BY IDOCK:   -4.63 KCAL/MOL
REMARK 922        TOTAL FREE ENERGY PREDICTED BY IDOCK:   -5.81 KCAL/MOL
REMARK 923 INTER-LIGAND FREE ENERGY PREDICTED BY IDOCK:   -5.45 KCAL/MOL
REMARK 924 INTRA-LIGAND FREE ENERGY PREDICTED BY IDOCK:   -0.36 KCAL/MOL
REMARK 927      BINDING AFFINITY PREDICTED BY RF-SCORE:    0.00 PKD
ROOT
HETATM    1  C   UNL     1      -8.403  12.189  68.028  1.00  0.00    -0.167 C  
HETATM    2  C   UNL     1      -8.888  11.051  68.949  1.00  0.00    -0.113 C  
ENDROOT
BRANCH   2   3
HETATM    3  N   UNL     1      -7.885   9.929  68.916  1.00  0.00    -0.086 NA 
HETATM    4  C   UNL     1      -6.554  10.339  69.380  1.00  0.00    -0.058 C  
HETATM    5  C   UNL     1      -7.729   9.366  67.562  1.00  0.00    -0.091 C  
ENDBRANCH   2   3
BRANCH   2   6
HETATM    6  C   UNL     1     -10.348  10.631  68.521  1.00  0.00    -0.183 C  
BRANCH   6   7
HETATM    7  N   UNL     1     -11.250  10.325  69.682  1.00  0.00    -0.255 NA 
HETATM    8  C   UNL     1     -11.926  11.443  70.282  1.00  0.00    -0.373 A  
HETATM    9  C   UNL     1     -11.792  12.765  69.803  1.00  0.00    -0.380 A  
HETATM   10  C   UNL     1     -12.429  13.865  70.398  1.00  0.00    -0.404 A  
HETATM   11  C   UNL     1     -13.241  13.682  71.503  1.00  0.00    -0.409 A  
HETATM   12  C   UNL     1     -13.411  12.399  72.001  1.00  0.00    -0.511 A  
HETATM   13  C   UNL     1     -12.767  11.293  71.406  1.00  0.00    -0.396 A  
HETATM   14  S   UNL     1     -13.113   9.746  72.194  1.00  0.00    -0.377 SA 
HETATM   15  C   UNL     1     -12.141   8.610  71.246  1.00  0.00    -0.290 A  
HETATM   16  C   UNL     1     -12.246   7.268  71.679  1.00  0.00    -0.377 A  
HETATM   17  C   UNL     1     -11.562   6.249  71.036  1.00  0.00    -0.337 A  
HETATM   18  C   UNL     1     -10.755   6.568  69.960  1.00  0.00    -0.302 A  
HETATM   19  C   UNL     1     -10.635   7.906  69.536  1.00  0.00    -0.220 A  
HETATM   20  C   UNL     1     -11.333   8.974  70.147  1.00  0.00    -0.121 A  
ENDBRANCH   6   7
ENDBRANCH   2   6
TORSDOF 3
ENDMDL
MODEL       62
REMARK 921   NORMALIZED FREE ENERGY PREDICTED BY IDOCK:   -4.63 KCAL/MOL
REMARK 922        TOTAL FREE ENERGY PREDICTED BY IDOCK:   -5.80 KCAL/MOL
REMARK 923 INTER-LIGAND FREE ENERGY PREDICTED BY IDOCK:   -5.53 KCAL/MOL
REMARK 924 INTRA-LIGAND FREE ENERGY PREDICTED BY IDOCK:   -0.27 KCAL/MOL
REMARK 927      BINDING AFFINITY PREDICTED BY RF-SCORE:    0.00 PKD
ROOT
HETATM    1  C   UNL     1     -11.168   6.172  69.142  1.00  0.00    -0.409 C  
HETATM    2  C   UNL     1     -10.528   6.902  67.943  1.00  0.00    -0.212 C  
ENDROOT
BRANCH   2   3
HETATM    3  N   UNL     1      -9.752   5.910  67.119  1.00  0.00    -0.124 NA 
HETATM    4  C   UNL     1     -10.613   5.051  66.298  1.00  0.00    -0.276 C  
HETATM    5  C   UNL     1      -8.915   5.031  67.956  1.00  0.00    -0.108 C  
ENDBRANCH   2   3
BRANCH   2   6
HETATM    6  C   UNL     1      -9.672   8.115  68.477  1.00  0.00    -0.162 C  
BRANCH   6   7
HETATM    7  N   UNL     1     -10.321   9.452  68.259  1.00  0.00    -0.204 NA 
HETATM    8  C   UNL     1     -11.086   9.981  69.356  1.00  0.00    -0.223 A  
HETATM    9  C   UNL     1     -11.208   9.315  70.596  1.00  0.00    -0.333 A  
HETATM   10  C   UNL     1     -11.972   9.812  71.662  1.00  0.00    -0.454 A  
HETATM   11  C   UNL     1     -12.645  11.014  71.533  1.00  0.00    -0.461 A  
HETATM   12  C   UNL     1     -12.544  11.708  70.337  1.00  0.00    -0.213 A  
HETATM   13  C   UNL     1     -11.780  11.206  69.261  1.00  0.00    -0.331 A  
HETATM   14  S   UNL     1     -11.784  12.243  67.826  1.00  0.00    -0.289 SA 
HETATM   15  C   UNL     1     -10.790  11.321  66.688  1.00  0.00    -0.273 A  
HETATM   16  C   UNL     1     -10.628  11.948  65.431  1.00  0.00    -0.315 A  
HETATM   17  C   UNL     1      -9.866  11.368  64.430  1.00  0.00    -0.303 A  
HETATM   18  C   UNL     1      -9.269  10.146  64.675  1.00  0.00    -0.300 A  
HETATM   19  C   UNL     1      -9.442   9.510  65.919  1.00  0.00    -0.307 A  
HETATM   20  C   UNL     1     -10.191  10.075  66.978  1.00  0.00    -0.237 A  
ENDBRANCH   6   7
ENDBRANCH   2   6
TORSDOF 3
ENDMDL
MODEL       63
REMARK 921   NORMALIZED FREE ENERGY PREDICTED BY IDOCK:   -4.59 KCAL/MOL
REMARK 922        TOTAL FREE ENERGY PREDICTED BY IDOCK:   -5.76 KCAL/MOL
REMARK 923 INTER-LIGAND FREE ENERGY PREDICTED BY IDOCK:   -5.58 KCAL/MOL
REMARK 924 INTRA-LIGAND FREE ENERGY PREDICTED BY IDOCK:   -0.18 KCAL/MOL
REMARK 927      BINDING AFFINITY PREDICTED BY RF-SCORE:    0.00 PKD
ROOT
HETATM    1  C   UNL     1      -9.214  14.613  69.040  1.00  0.00    -0.108 C  
HETATM    2  C   UNL     1     -10.551  14.589  68.272  1.00  0.00    -0.241 C  
ENDROOT
BRANCH   2   3
HETATM    3  N   UNL     1     -11.404  15.742  68.730  1.00  0.00    -0.340 NA 
HETATM    4  C   UNL     1     -10.626  16.956  69.002  1.00  0.00    -0.338 C  
HETATM    5  C   UNL     1     -12.163  15.417  69.952  1.00  0.00    -0.334 C  
ENDBRANCH   2   3
BRANCH   2   6
HETATM    6  C   UNL     1     -11.222  13.172  68.452  1.00  0.00    -0.271 C  
BRANCH   6   7
HETATM    7  N   UNL     1     -10.779  12.162  67.434  1.00  0.00    -0.228 NA 
HETATM    8  C   UNL     1      -9.947  11.090  67.911  1.00  0.00    -0.174 A  
HETATM    9  C   UNL     1      -9.581  10.953  69.269  1.00  0.00    -0.067 A  
HETATM   10  C   UNL     1      -8.750   9.924  69.739  1.00  0.00    -0.229 A  
HETATM   11  C   UNL     1      -8.255   8.976  68.862  1.00  0.00    -0.120 A  
HETATM   12  C   UNL     1      -8.598   9.066  67.522  1.00  0.00    -0.120 A  
HETATM   13  C   UNL     1      -9.429  10.103  67.046  1.00  0.00    -0.167 A  
HETATM   14  S   UNL     1      -9.743  10.037  65.305  1.00  0.00    -0.312 SA 
HETATM   15  C   UNL     1     -10.757  11.464  65.047  1.00  0.00    -0.277 A  
HETATM   16  C   UNL     1     -11.160  11.645  63.704  1.00  0.00    -0.506 A  
HETATM   17  C   UNL     1     -11.970  12.706  63.332  1.00  0.00    -0.613 A  
HETATM   18  C   UNL     1     -12.373  13.605  64.301  1.00  0.00    -0.388 A  
HETATM   19  C   UNL     1     -11.960  13.438  65.637  1.00  0.00    -0.439 A  
HETATM   20  C   UNL     1     -11.154  12.358  66.067  1.00  0.00    -0.308 A  
ENDBRANCH   6   7
ENDBRANCH   2   6
TORSDOF 3
ENDMDL
MODEL       64
REMARK 921   NORMALIZED FREE ENERGY PREDICTED BY IDOCK:   -4.58 KCAL/MOL
REMARK 922        TOTAL FREE ENERGY PREDICTED BY IDOCK:   -5.75 KCAL/MOL
REMARK 923 INTER-LIGAND FREE ENERGY PREDICTED BY IDOCK:   -5.50 KCAL/MOL
REMARK 924 INTRA-LIGAND FREE ENERGY PREDICTED BY IDOCK:   -0.25 KCAL/MOL
REMARK 927      BINDING AFFINITY PREDICTED BY RF-SCORE:    0.00 PKD
ROOT
HETATM    1  C   UNL     1      -8.979  11.300  68.800  1.00  0.00    -0.116 C  
HETATM    2  C   UNL     1      -9.504  12.707  68.452  1.00  0.00    -0.163 C  
ENDROOT
BRANCH   2   3
HETATM    3  N   UNL     1     -11.007  12.667  68.370  1.00  0.00    -0.244 NA 
HETATM    4  C   UNL     1     -11.653  13.634  69.264  1.00  0.00    -0.311 C  
HETATM    5  C   UNL     1     -11.542  11.333  68.697  1.00  0.00    -0.318 C  
ENDBRANCH   2   3
BRANCH   2   6
HETATM    6  C   UNL     1      -8.794  13.209  67.134  1.00  0.00    -0.222 C  
BRANCH   6   7
HETATM    7  N   UNL     1      -9.688  14.020  66.241  1.00  0.00    -0.297 NA 
HETATM    8  C   UNL     1      -9.705  15.440  66.467  1.00  0.00    -0.272 A  
HETATM    9  C   UNL     1      -8.906  16.068  67.450  1.00  0.00    -0.197 A  
HETATM   10  C   UNL     1      -8.935  17.450  67.693  1.00  0.00    -0.233 A  
HETATM   11  C   UNL     1      -9.766  18.269  66.950  1.00  0.00    -0.317 A  
HETATM   12  C   UNL     1     -10.559  17.697  65.967  1.00  0.00    -0.220 A  
HETATM   13  C   UNL     1     -10.535  16.306  65.724  1.00  0.00    -0.364 A  
HETATM   14  S   UNL     1     -11.622  15.780  64.430  1.00  0.00    -0.093 SA 
HETATM   15  C   UNL     1     -11.378  14.027  64.417  1.00  0.00    -0.319 A  
HETATM   16  C   UNL     1     -12.149  13.349  63.445  1.00  0.00    -0.437 A  
HETATM   17  C   UNL     1     -12.065  11.975  63.291  1.00  0.00    -0.509 A  
HETATM   18  C   UNL     1     -11.218  11.264  64.120  1.00  0.00    -0.222 A  
HETATM   19  C   UNL     1     -10.461  11.934  65.101  1.00  0.00    -0.330 A  
HETATM   20  C   UNL     1     -10.496  13.337  65.279  1.00  0.00    -0.313 A  
ENDBRANCH   6   7
ENDBRANCH   2   6
TORSDOF 3
ENDMDL
MODEL       65
REMARK 921   NORMALIZED FREE ENERGY PREDICTED BY IDOCK:   -4.57 KCAL/MOL
REMARK 922        TOTAL FREE ENERGY PREDICTED BY IDOCK:   -5.74 KCAL/MOL
REMARK 923 INTER-LIGAND FREE ENERGY PREDICTED BY IDOCK:   -5.32 KCAL/MOL
REMARK 924 INTRA-LIGAND FREE ENERGY PREDICTED BY IDOCK:   -0.42 KCAL/MOL
REMARK 927      BINDING AFFINITY PREDICTED BY RF-SCORE:    0.00 PKD
ROOT
HETATM    1  C   UNL     1      -7.709   7.379  68.058  1.00  0.00    -0.116 C  
HETATM    2  C   UNL     1      -8.893   7.522  69.035  1.00  0.00    -0.132 C  
ENDROOT
BRANCH   2   3
HETATM    3  N   UNL     1     -10.179   7.542  68.253  1.00  0.00    -0.181 NA 
HETATM    4  C   UNL     1     -10.964   6.312  68.413  1.00  0.00    -0.325 C  
HETATM    5  C   UNL     1      -9.946   7.735  66.810  1.00  0.00    -0.261 C  
ENDBRANCH   2   3
BRANCH   2   6
HETATM    6  C   UNL     1      -8.662   8.796  69.939  1.00  0.00    -0.135 C  
BRANCH   6   7
HETATM    7  N   UNL     1      -9.759   9.815  69.834  1.00  0.00    -0.226 NA 
HETATM    8  C   UNL     1      -9.542  10.901  68.917  1.00  0.00    -0.181 A  
HETATM    9  C   UNL     1      -8.380  11.009  68.120  1.00  0.00    -0.130 A  
HETATM   10  C   UNL     1      -8.149  12.078  67.242  1.00  0.00    -0.174 A  
HETATM   11  C   UNL     1      -9.085  13.089  67.117  1.00  0.00    -0.225 A  
HETATM   12  C   UNL     1     -10.245  13.019  67.872  1.00  0.00    -0.234 A  
HETATM   13  C   UNL     1     -10.477  11.946  68.760  1.00  0.00    -0.184 A  
HETATM   14  S   UNL     1     -12.016  12.047  69.629  1.00  0.00    -0.262 SA 
HETATM   15  C   UNL     1     -11.969  10.607  70.656  1.00  0.00    -0.367 A  
HETATM   16  C   UNL     1     -13.113  10.446  71.470  1.00  0.00    -0.532 A  
HETATM   17  C   UNL     1     -13.244   9.362  72.323  1.00  0.00    -0.528 A  
HETATM   18  C   UNL     1     -12.220   8.434  72.378  1.00  0.00    -0.430 A  
HETATM   19  C   UNL     1     -11.071   8.600  71.582  1.00  0.00    -0.375 A  
HETATM   20  C   UNL     1     -10.905   9.677  70.680  1.00  0.00    -0.320 A  
ENDBRANCH   6   7
ENDBRANCH   2   6
TORSDOF 3
ENDMDL
MODEL       66
REMARK 921   NORMALIZED FREE ENERGY PREDICTED BY IDOCK:   -4.56 KCAL/MOL
REMARK 922        TOTAL FREE ENERGY PREDICTED BY IDOCK:   -5.73 KCAL/MOL
REMARK 923 INTER-LIGAND FREE ENERGY PREDICTED BY IDOCK:   -5.37 KCAL/MOL
REMARK 924 INTRA-LIGAND FREE ENERGY PREDICTED BY IDOCK:   -0.36 KCAL/MOL
REMARK 927      BINDING AFFINITY PREDICTED BY RF-SCORE:    0.00 PKD
ROOT
HETATM    1  C   UNL     1     -11.403  10.621  69.600  1.00  0.00    -0.360 C  
HETATM    2  C   UNL     1     -10.760   9.821  68.450  1.00  0.00    -0.221 C  
ENDROOT
BRANCH   2   3
HETATM    3  N   UNL     1     -10.198   8.536  68.996  1.00  0.00    -0.204 NA 
HETATM    4  C   UNL     1      -8.753   8.604  69.244  1.00  0.00    -0.133 C  
HETATM    5  C   UNL     1     -10.440   7.398  68.089  1.00  0.00    -0.193 C  
ENDBRANCH   2   3
BRANCH   2   6
HETATM    6  C   UNL     1      -9.701  10.734  67.717  1.00  0.00    -0.162 C  
BRANCH   6   7
HETATM    7  N   UNL     1     -10.037  11.012  66.281  1.00  0.00    -0.227 NA 
HETATM    8  C   UNL     1      -9.420  10.160  65.300  1.00  0.00    -0.248 A  
HETATM    9  C   UNL     1      -8.566   9.089  65.646  1.00  0.00    -0.187 A  
HETATM   10  C   UNL     1      -7.941   8.268  64.695  1.00  0.00    -0.145 A  
HETATM   11  C   UNL     1      -8.156   8.483  63.345  1.00  0.00    -0.160 A  
HETATM   12  C   UNL     1      -8.996   9.516  62.960  1.00  0.00    -0.221 A  
HETATM   13  C   UNL     1      -9.621  10.346  63.916  1.00  0.00    -0.312 A  
HETATM   14  S   UNL     1     -10.651  11.605  63.217  1.00  0.00    -0.313 SA 
HETATM   15  C   UNL     1     -11.231  12.463  64.652  1.00  0.00    -0.312 A  
HETATM   16  C   UNL     1     -12.098  13.541  64.362  1.00  0.00    -0.468 A  
HETATM   17  C   UNL     1     -12.655  14.309  65.373  1.00  0.00    -0.422 A  
HETATM   18  C   UNL     1     -12.336  14.011  66.684  1.00  0.00    -0.408 A  
HETATM   19  C   UNL     1     -11.459  12.948  66.976  1.00  0.00    -0.390 A  
HETATM   20  C   UNL     1     -10.886  12.123  65.979  1.00  0.00    -0.282 A  
ENDBRANCH   6   7
ENDBRANCH   2   6
TORSDOF 3
ENDMDL
MODEL       67
REMARK 921   NORMALIZED FREE ENERGY PREDICTED BY IDOCK:   -4.56 KCAL/MOL
REMARK 922        TOTAL FREE ENERGY PREDICTED BY IDOCK:   -5.72 KCAL/MOL
REMARK 923 INTER-LIGAND FREE ENERGY PREDICTED BY IDOCK:   -5.41 KCAL/MOL
REMARK 924 INTRA-LIGAND FREE ENERGY PREDICTED BY IDOCK:   -0.32 KCAL/MOL
REMARK 927      BINDING AFFINITY PREDICTED BY RF-SCORE:    0.00 PKD
ROOT
HETATM    1  C   UNL     1     -11.261  11.755  64.853  1.00  0.00    -0.328 C  
HETATM    2  C   UNL     1     -11.455  12.209  66.314  1.00  0.00    -0.374 C  
ENDROOT
BRANCH   2   3
HETATM    3  N   UNL     1     -11.708  13.693  66.340  1.00  0.00    -0.354 NA 
HETATM    4  C   UNL     1     -12.075  14.233  65.026  1.00  0.00    -0.425 C  
HETATM    5  C   UNL     1     -10.534  14.446  66.818  1.00  0.00    -0.273 C  
ENDBRANCH   2   3
BRANCH   2   6
HETATM    6  C   UNL     1     -10.209  11.747  67.166  1.00  0.00    -0.212 C  
BRANCH   6   7
HETATM    7  N   UNL     1     -10.492  10.572  68.056  1.00  0.00    -0.184 NA 
HETATM    8  C   UNL     1      -9.976   9.301  67.626  1.00  0.00    -0.196 A  
HETATM    9  C   UNL     1      -9.212   9.145  66.448  1.00  0.00    -0.233 A  
HETATM   10  C   UNL     1      -8.726   7.904  66.007  1.00  0.00    -0.182 A  
HETATM   11  C   UNL     1      -8.980   6.759  66.741  1.00  0.00    -0.141 A  
HETATM   12  C   UNL     1      -9.717   6.867  67.910  1.00  0.00    -0.136 A  
HETATM   13  C   UNL     1     -10.211   8.113  68.352  1.00  0.00    -0.209 A  
HETATM   14  S   UNL     1     -11.128   8.033  69.864  1.00  0.00    -0.031 SA 
HETATM   15  C   UNL     1     -11.620   9.716  70.101  1.00  0.00    -0.141 A  
HETATM   16  C   UNL     1     -12.383   9.930  71.272  1.00  0.00    -0.478 A  
HETATM   17  C   UNL     1     -12.835  11.194  71.615  1.00  0.00    -0.524 A  
HETATM   18  C   UNL     1     -12.540  12.254  70.779  1.00  0.00    -0.302 A  
HETATM   19  C   UNL     1     -11.795  12.042  69.603  1.00  0.00    -0.401 A  
HETATM   20  C   UNL     1     -11.292  10.775  69.225  1.00  0.00    -0.286 A  
ENDBRANCH   6   7
ENDBRANCH   2   6
TORSDOF 3
ENDMDL
MODEL       68
REMARK 921   NORMALIZED FREE ENERGY PREDICTED BY IDOCK:   -4.56 KCAL/MOL
REMARK 922        TOTAL FREE ENERGY PREDICTED BY IDOCK:   -5.72 KCAL/MOL
REMARK 923 INTER-LIGAND FREE ENERGY PREDICTED BY IDOCK:   -5.34 KCAL/MOL
REMARK 924 INTRA-LIGAND FREE ENERGY PREDICTED BY IDOCK:   -0.38 KCAL/MOL
REMARK 927      BINDING AFFINITY PREDICTED BY RF-SCORE:    0.00 PKD
ROOT
HETATM    1  C   UNL     1     -10.735   9.369  69.741  1.00  0.00    -0.250 C  
HETATM    2  C   UNL     1     -10.365   9.214  68.252  1.00  0.00    -0.214 C  
ENDROOT
BRANCH   2   3
HETATM    3  N   UNL     1      -9.905   7.802  68.002  1.00  0.00    -0.158 NA 
HETATM    4  C   UNL     1     -10.795   7.063  67.100  1.00  0.00    -0.357 C  
HETATM    5  C   UNL     1      -9.795   7.028  69.252  1.00  0.00    -0.159 C  
ENDBRANCH   2   3
BRANCH   2   6
HETATM    6  C   UNL     1      -9.308  10.320  67.867  1.00  0.00    -0.138 C  
BRANCH   6   7
HETATM    7  N   UNL     1      -9.799  11.286  66.828  1.00  0.00    -0.196 NA 
HETATM    8  C   UNL     1     -10.420  12.490  67.312  1.00  0.00    -0.220 A  
HETATM    9  C   UNL     1     -10.543  12.787  68.688  1.00  0.00    -0.256 A  
HETATM   10  C   UNL     1     -11.169  13.947  69.169  1.00  0.00    -0.311 A  
HETATM   11  C   UNL     1     -11.694  14.871  68.283  1.00  0.00    -0.342 A  
HETATM   12  C   UNL     1     -11.586  14.625  66.923  1.00  0.00    -0.374 A  
HETATM   13  C   UNL     1     -10.961  13.456  66.437  1.00  0.00    -0.289 A  
HETATM   14  S   UNL     1     -10.930  13.333  64.672  1.00  0.00    -0.391 SA 
HETATM   15  C   UNL     1     -10.134  11.774  64.412  1.00  0.00    -0.282 A  
HETATM   16  C   UNL     1      -9.978  11.431  63.050  1.00  0.00    -0.354 A  
HETATM   17  C   UNL     1      -9.360  10.250  62.671  1.00  0.00    -0.335 A  
HETATM   18  C   UNL     1      -8.904   9.394  63.657  1.00  0.00    -0.198 A  
HETATM   19  C   UNL     1      -9.073   9.725  65.015  1.00  0.00    -0.280 A  
HETATM   20  C   UNL     1      -9.676  10.929  65.448  1.00  0.00    -0.238 A  
ENDBRANCH   6   7
ENDBRANCH   2   6
TORSDOF 3
ENDMDL
MODEL       69
REMARK 921   NORMALIZED FREE ENERGY PREDICTED BY IDOCK:   -4.55 KCAL/MOL
REMARK 922        TOTAL FREE ENERGY PREDICTED BY IDOCK:   -5.71 KCAL/MOL
REMARK 923 INTER-LIGAND FREE ENERGY PREDICTED BY IDOCK:   -5.38 KCAL/MOL
REMARK 924 INTRA-LIGAND FREE ENERGY PREDICTED BY IDOCK:   -0.33 KCAL/MOL
REMARK 927      BINDING AFFINITY PREDICTED BY RF-SCORE:    0.00 PKD
ROOT
HETATM    1  C   UNL     1      -8.061   8.957  64.630  1.00  0.00    -0.151 C  
HETATM    2  C   UNL     1      -8.488   9.774  65.866  1.00  0.00    -0.128 C  
ENDROOT
BRANCH   2   3
HETATM    3  N   UNL     1      -7.683   9.325  67.056  1.00  0.00    -0.095 NA 
HETATM    4  C   UNL     1      -6.807  10.379  67.583  1.00  0.00    -0.075 C  
HETATM    5  C   UNL     1      -6.836   8.159  66.743  1.00  0.00    -0.069 C  
ENDBRANCH   2   3
BRANCH   2   6
HETATM    6  C   UNL     1     -10.050   9.646  66.052  1.00  0.00    -0.248 C  
BRANCH   6   7
HETATM    7  N   UNL     1     -10.656  10.772  66.839  1.00  0.00    -0.253 NA 
HETATM    8  C   UNL     1     -10.940  10.509  68.224  1.00  0.00    -0.263 A  
HETATM    9  C   UNL     1     -10.641   9.275  68.845  1.00  0.00    -0.222 A  
HETATM   10  C   UNL     1     -10.937   9.002  70.189  1.00  0.00    -0.256 A  
HETATM   11  C   UNL     1     -11.541   9.966  70.977  1.00  0.00    -0.470 A  
HETATM   12  C   UNL     1     -11.841  11.195  70.412  1.00  0.00    -0.462 A  
HETATM   13  C   UNL     1     -11.549  11.470  69.058  1.00  0.00    -0.318 A  
HETATM   14  S   UNL     1     -12.014  13.096  68.534  1.00  0.00    -0.212 SA 
HETATM   15  C   UNL     1     -11.555  13.091  66.825  1.00  0.00    -0.368 A  
HETATM   16  C   UNL     1     -11.825  14.307  66.156  1.00  0.00    -0.413 A  
HETATM   17  C   UNL     1     -11.512  14.477  64.817  1.00  0.00    -0.408 A  
HETATM   18  C   UNL     1     -10.938  13.423  64.131  1.00  0.00    -0.329 A  
HETATM   19  C   UNL     1     -10.683  12.204  64.789  1.00  0.00    -0.342 A  
HETATM   20  C   UNL     1     -10.964  11.993  66.160  1.00  0.00    -0.302 A  
ENDBRANCH   6   7
ENDBRANCH   2   6
TORSDOF 3
ENDMDL
MODEL       70
REMARK 921   NORMALIZED FREE ENERGY PREDICTED BY IDOCK:   -4.54 KCAL/MOL
REMARK 922        TOTAL FREE ENERGY PREDICTED BY IDOCK:   -5.70 KCAL/MOL
REMARK 923 INTER-LIGAND FREE ENERGY PREDICTED BY IDOCK:   -5.58 KCAL/MOL
REMARK 924 INTRA-LIGAND FREE ENERGY PREDICTED BY IDOCK:   -0.12 KCAL/MOL
REMARK 927      BINDING AFFINITY PREDICTED BY RF-SCORE:    0.00 PKD
ROOT
HETATM    1  C   UNL     1     -11.508  11.762  66.158  1.00  0.00    -0.288 C  
HETATM    2  C   UNL     1     -11.720  12.525  67.481  1.00  0.00    -0.374 C  
ENDROOT
BRANCH   2   3
HETATM    3  N   UNL     1     -12.128  13.942  67.175  1.00  0.00    -0.411 NA 
HETATM    4  C   UNL     1     -12.515  14.133  65.772  1.00  0.00    -0.466 C  
HETATM    5  C   UNL     1     -11.050  14.903  67.474  1.00  0.00    -0.317 C  
ENDBRANCH   2   3
BRANCH   2   6
HETATM    6  C   UNL     1     -10.416  12.400  68.362  1.00  0.00    -0.235 C  
BRANCH   6   7
HETATM    7  N   UNL     1     -10.172  11.012  68.881  1.00  0.00    -0.201 NA 
HETATM    8  C   UNL     1      -9.108  10.272  68.258  1.00  0.00    -0.139 A  
HETATM    9  C   UNL     1      -8.298  10.811  67.234  1.00  0.00    -0.124 A  
HETATM   10  C   UNL     1      -7.274  10.087  66.604  1.00  0.00    -0.099 A  
HETATM   11  C   UNL     1      -7.010   8.783  66.986  1.00  0.00    -0.074 A  
HETATM   12  C   UNL     1      -7.773   8.217  67.995  1.00  0.00    -0.107 A  
HETATM   13  C   UNL     1      -8.807   8.943  68.626  1.00  0.00    -0.137 A  
HETATM   14  S   UNL     1      -9.660   8.038  69.886  1.00  0.00    -0.171 SA 
HETATM   15  C   UNL     1     -10.883   9.198  70.426  1.00  0.00    -0.242 A  
HETATM   16  C   UNL     1     -11.717   8.712  71.458  1.00  0.00    -0.369 A  
HETATM   17  C   UNL     1     -12.717   9.498  72.007  1.00  0.00    -0.479 A  
HETATM   18  C   UNL     1     -12.900  10.777  71.515  1.00  0.00    -0.567 A  
HETATM   19  C   UNL     1     -12.082  11.259  70.475  1.00  0.00    -0.481 A  
HETATM   20  C   UNL     1     -11.034  10.501  69.901  1.00  0.00    -0.298 A  
ENDBRANCH   6   7
ENDBRANCH   2   6
TORSDOF 3
ENDMDL
MODEL       71
REMARK 921   NORMALIZED FREE ENERGY PREDICTED BY IDOCK:   -4.52 KCAL/MOL
REMARK 922        TOTAL FREE ENERGY PREDICTED BY IDOCK:   -5.68 KCAL/MOL
REMARK 923 INTER-LIGAND FREE ENERGY PREDICTED BY IDOCK:   -5.29 KCAL/MOL
REMARK 924 INTRA-LIGAND FREE ENERGY PREDICTED BY IDOCK:   -0.39 KCAL/MOL
REMARK 927      BINDING AFFINITY PREDICTED BY RF-SCORE:    0.00 PKD
ROOT
HETATM    1  C   UNL     1     -12.266  10.982  70.454  1.00  0.00    -0.461 C  
HETATM    2  C   UNL     1     -11.313  10.091  69.633  1.00  0.00    -0.202 C  
ENDROOT
BRANCH   2   3
HETATM    3  N   UNL     1     -10.764   9.006  70.520  1.00  0.00    -0.226 NA 
HETATM    4  C   UNL     1     -11.172   7.662  70.097  1.00  0.00    -0.180 C  
HETATM    5  C   UNL     1     -11.183   9.176  71.924  1.00  0.00    -0.329 C  
ENDBRANCH   2   3
BRANCH   2   6
HETATM    6  C   UNL     1     -10.212  11.000  68.960  1.00  0.00    -0.200 C  
BRANCH   6   7
HETATM    7  N   UNL     1     -10.192  10.912  67.461  1.00  0.00    -0.184 NA 
HETATM    8  C   UNL     1     -10.971  11.889  66.750  1.00  0.00    -0.292 A  
HETATM    9  C   UNL     1     -11.698  12.909  67.402  1.00  0.00    -0.428 A  
HETATM   10  C   UNL     1     -12.480  13.851  66.716  1.00  0.00    -0.254 A  
HETATM   11  C   UNL     1     -12.559  13.815  65.335  1.00  0.00    -0.534 A  
HETATM   12  C   UNL     1     -11.852  12.837  64.653  1.00  0.00    -0.428 A  
HETATM   13  C   UNL     1     -11.069  11.886  65.342  1.00  0.00    -0.306 A  
HETATM   14  S   UNL     1     -10.250  10.724  64.287  1.00  0.00    -0.311 SA 
HETATM   15  C   UNL     1      -9.412   9.681  65.446  1.00  0.00    -0.278 A  
HETATM   16  C   UNL     1      -8.661   8.646  64.846  1.00  0.00    -0.163 A  
HETATM   17  C   UNL     1      -7.931   7.749  65.610  1.00  0.00    -0.118 A  
HETATM   18  C   UNL     1      -7.960   7.874  66.986  1.00  0.00    -0.112 A  
HETATM   19  C   UNL     1      -8.721   8.893  67.589  1.00  0.00    -0.124 A  
HETATM   20  C   UNL     1      -9.461   9.845  66.849  1.00  0.00    -0.163 A  
ENDBRANCH   6   7
ENDBRANCH   2   6
TORSDOF 3
ENDMDL
MODEL       72
REMARK 921   NORMALIZED FREE ENERGY PREDICTED BY IDOCK:   -4.50 KCAL/MOL
REMARK 922        TOTAL FREE ENERGY PREDICTED BY IDOCK:   -5.65 KCAL/MOL
REMARK 923 INTER-LIGAND FREE ENERGY PREDICTED BY IDOCK:   -5.24 KCAL/MOL
REMARK 924 INTRA-LIGAND FREE ENERGY PREDICTED BY IDOCK:   -0.42 KCAL/MOL
REMARK 927      BINDING AFFINITY PREDICTED BY RF-SCORE:    0.00 PKD
ROOT
HETATM    1  C   UNL     1      -8.691  12.684  68.065  1.00  0.00    -0.190 C  
HETATM    2  C   UNL     1      -8.733  11.186  68.425  1.00  0.00    -0.157 C  
ENDROOT
BRANCH   2   3
HETATM    3  N   UNL     1      -7.596  10.480  67.735  1.00  0.00    -0.088 NA 
HETATM    4  C   UNL     1      -6.334  11.226  67.805  1.00  0.00    -0.056 C  
HETATM    5  C   UNL     1      -7.885  10.228  66.311  1.00  0.00    -0.118 C  
ENDBRANCH   2   3
BRANCH   2   6
HETATM    6  C   UNL     1     -10.162  10.613  68.076  1.00  0.00    -0.175 C  
BRANCH   6   7
HETATM    7  N   UNL     1     -10.835   9.929  69.230  1.00  0.00    -0.224 NA 
HETATM    8  C   UNL     1     -10.644   8.507  69.335  1.00  0.00    -0.195 A  
HETATM    9  C   UNL     1      -9.842   7.775  68.431  1.00  0.00    -0.180 A  
HETATM   10  C   UNL     1      -9.671   6.384  68.512  1.00  0.00    -0.134 A  
HETATM   11  C   UNL     1     -10.294   5.665  69.516  1.00  0.00    -0.345 A  
HETATM   12  C   UNL     1     -11.081   6.345  70.432  1.00  0.00    -0.400 A  
HETATM   13  C   UNL     1     -11.258   7.743  70.349  1.00  0.00    -0.237 A  
HETATM   14  S   UNL     1     -12.302   8.415  71.612  1.00  0.00    -0.334 SA 
HETATM   15  C   UNL     1     -12.340  10.135  71.199  1.00  0.00    -0.385 A  
HETATM   16  C   UNL     1     -13.123  10.918  72.078  1.00  0.00    -0.462 A  
HETATM   17  C   UNL     1     -13.247  12.287  71.906  1.00  0.00    -0.481 A  
HETATM   18  C   UNL     1     -12.598  12.884  70.842  1.00  0.00    -0.355 A  
HETATM   19  C   UNL     1     -11.831  12.105  69.954  1.00  0.00    -0.392 A  
HETATM   20  C   UNL     1     -11.657  10.709  70.103  1.00  0.00    -0.330 A  
ENDBRANCH   6   7
ENDBRANCH   2   6
TORSDOF 3
ENDMDL
MODEL       73
REMARK 921   NORMALIZED FREE ENERGY PREDICTED BY IDOCK:   -4.49 KCAL/MOL
REMARK 922        TOTAL FREE ENERGY PREDICTED BY IDOCK:   -5.64 KCAL/MOL
REMARK 923 INTER-LIGAND FREE ENERGY PREDICTED BY IDOCK:   -5.63 KCAL/MOL
REMARK 924 INTRA-LIGAND FREE ENERGY PREDICTED BY IDOCK:   -0.01 KCAL/MOL
REMARK 927      BINDING AFFINITY PREDICTED BY RF-SCORE:    0.00 PKD
ROOT
HETATM    1  C   UNL     1     -11.040  15.411  71.162  1.00  0.00    -0.362 C  
HETATM    2  C   UNL     1     -12.339  15.708  70.387  1.00  0.00    -0.391 C  
ENDROOT
BRANCH   2   3
HETATM    3  N   UNL     1     -13.433  14.804  70.889  1.00  0.00    -0.335 NA 
HETATM    4  C   UNL     1     -14.206  15.397  71.986  1.00  0.00    -0.552 C  
HETATM    5  C   UNL     1     -12.905  13.512  71.365  1.00  0.00    -0.355 C  
ENDBRANCH   2   3
BRANCH   2   6
HETATM    6  C   UNL     1     -12.054  15.586  68.839  1.00  0.00    -0.194 C  
BRANCH   6   7
HETATM    7  N   UNL     1     -10.594  15.489  68.502  1.00  0.00    -0.239 NA 
HETATM    8  C   UNL     1      -9.885  16.732  68.357  1.00  0.00    -0.253 A  
HETATM    9  C   UNL     1     -10.498  17.990  68.549  1.00  0.00    -0.291 A  
HETATM   10  C   UNL     1      -9.819  19.207  68.385  1.00  0.00    -0.473 A  
HETATM   11  C   UNL     1      -8.483  19.214  68.028  1.00  0.00    -0.345 A  
HETATM   12  C   UNL     1      -7.837  18.002  67.840  1.00  0.00    -0.235 A  
HETATM   13  C   UNL     1      -8.520  16.777  68.000  1.00  0.00    -0.205 A  
HETATM   14  S   UNL     1      -7.516  15.347  67.712  1.00  0.00    -0.173 SA 
HETATM   15  C   UNL     1      -8.664  14.021  67.951  1.00  0.00    -0.184 A  
HETATM   16  C   UNL     1      -8.099  12.737  67.779  1.00  0.00    -0.168 A  
HETATM   17  C   UNL     1      -8.856  11.589  67.945  1.00  0.00    -0.152 A  
HETATM   18  C   UNL     1     -10.193  11.718  68.273  1.00  0.00    -0.209 A  
HETATM   19  C   UNL     1     -10.764  12.996  68.429  1.00  0.00    -0.273 A  
HETATM   20  C   UNL     1     -10.024  14.194  68.292  1.00  0.00    -0.241 A  
ENDBRANCH   6   7
ENDBRANCH   2   6
TORSDOF 3
ENDMDL
MODEL       74
REMARK 921   NORMALIZED FREE ENERGY PREDICTED BY IDOCK:   -4.49 KCAL/MOL
REMARK 922        TOTAL FREE ENERGY PREDICTED BY IDOCK:   -5.64 KCAL/MOL
REMARK 923 INTER-LIGAND FREE ENERGY PREDICTED BY IDOCK:   -5.72 KCAL/MOL
REMARK 924 INTRA-LIGAND FREE ENERGY PREDICTED BY IDOCK:    0.08 KCAL/MOL
REMARK 927      BINDING AFFINITY PREDICTED BY RF-SCORE:    0.00 PKD
ROOT
HETATM    1  C   UNL     1     -11.140  15.150  71.242  1.00  0.00    -0.257 C  
HETATM    2  C   UNL     1     -12.484  15.643  70.668  1.00  0.00    -0.417 C  
ENDROOT
BRANCH   2   3
HETATM    3  N   UNL     1     -13.593  14.764  71.183  1.00  0.00    -0.391 NA 
HETATM    4  C   UNL     1     -14.323  15.365  72.305  1.00  0.00    -0.483 C  
HETATM    5  C   UNL     1     -13.094  13.450  71.630  1.00  0.00    -0.375 C  
ENDBRANCH   2   3
BRANCH   2   6
HETATM    6  C   UNL     1     -12.379  15.703  69.094  1.00  0.00     0.010 C  
BRANCH   6   7
HETATM    7  N   UNL     1     -11.002  15.415  68.571  1.00  0.00    -0.265 NA 
HETATM    8  C   UNL     1     -10.723  14.051  68.213  1.00  0.00    -0.254 A  
HETATM    9  C   UNL     1     -11.687  13.022  68.306  1.00  0.00    -0.390 A  
HETATM   10  C   UNL     1     -11.416  11.685  67.981  1.00  0.00    -0.385 A  
HETATM   11  C   UNL     1     -10.158  11.319  67.536  1.00  0.00    -0.207 A  
HETATM   12  C   UNL     1      -9.183  12.298  67.419  1.00  0.00    -0.182 A  
HETATM   13  C   UNL     1      -9.453  13.643  67.750  1.00  0.00    -0.221 A  
HETATM   14  S   UNL     1      -8.074  14.732  67.531  1.00  0.00    -0.195 SA 
HETATM   15  C   UNL     1      -8.730  16.288  68.061  1.00  0.00    -0.178 A  
HETATM   16  C   UNL     1      -7.807  17.356  67.980  1.00  0.00    -0.207 A  
HETATM   17  C   UNL     1      -8.163  18.645  68.341  1.00  0.00    -0.361 A  
HETATM   18  C   UNL     1      -9.447  18.874  68.801  1.00  0.00    -0.407 A  
HETATM   19  C   UNL     1     -10.364  17.810  68.900  1.00  0.00    -0.300 A  
HETATM   20  C   UNL     1     -10.052  16.483  68.520  1.00  0.00    -0.255 A  
ENDBRANCH   6   7
ENDBRANCH   2   6
TORSDOF 3
ENDMDL
MODEL       75
REMARK 921   NORMALIZED FREE ENERGY PREDICTED BY IDOCK:   -4.49 KCAL/MOL
REMARK 922        TOTAL FREE ENERGY PREDICTED BY IDOCK:   -5.64 KCAL/MOL
REMARK 923 INTER-LIGAND FREE ENERGY PREDICTED BY IDOCK:   -5.65 KCAL/MOL
REMARK 924 INTRA-LIGAND FREE ENERGY PREDICTED BY IDOCK:    0.01 KCAL/MOL
REMARK 927      BINDING AFFINITY PREDICTED BY RF-SCORE:    0.00 PKD
ROOT
HETATM    1  C   UNL     1     -11.640  12.160  69.224  1.00  0.00    -0.377 C  
HETATM    2  C   UNL     1     -10.682  11.372  68.308  1.00  0.00    -0.204 C  
ENDROOT
BRANCH   2   3
HETATM    3  N   UNL     1     -10.185  10.156  69.042  1.00  0.00    -0.194 NA 
HETATM    4  C   UNL     1     -10.461   8.905  68.327  1.00  0.00    -0.195 C  
HETATM    5  C   UNL     1     -10.780  10.041  70.386  1.00  0.00    -0.307 C  
ENDBRANCH   2   3
BRANCH   2   6
HETATM    6  C   UNL     1      -9.541  12.339  67.803  1.00  0.00    -0.200 C  
BRANCH   6   7
HETATM    7  N   UNL     1     -10.042  13.461  66.940  1.00  0.00    -0.250 NA 
HETATM    8  C   UNL     1      -9.781  14.796  67.407  1.00  0.00    -0.214 A  
HETATM    9  C   UNL     1      -9.064  15.065  68.594  1.00  0.00    -0.191 A  
HETATM   10  C   UNL     1      -8.826  16.364  69.069  1.00  0.00    -0.240 A  
HETATM   11  C   UNL     1      -9.293  17.458  68.363  1.00  0.00    -0.285 A  
HETATM   12  C   UNL     1      -9.992  17.241  67.186  1.00  0.00    -0.282 A  
HETATM   13  C   UNL     1     -10.236  15.935  66.709  1.00  0.00    -0.282 A  
HETATM   14  S   UNL     1     -11.147  15.878  65.192  1.00  0.00    -0.261 SA 
HETATM   15  C   UNL     1     -11.307  14.138  64.909  1.00  0.00    -0.365 A  
HETATM   16  C   UNL     1     -12.010  13.813  63.727  1.00  0.00    -0.365 A  
HETATM   17  C   UNL     1     -12.211  12.495  63.348  1.00  0.00    -0.613 A  
HETATM   18  C   UNL     1     -11.720  11.489  64.159  1.00  0.00    -0.197 A  
HETATM   19  C   UNL     1     -11.034  11.810  65.347  1.00  0.00    -0.352 A  
HETATM   20  C   UNL     1     -10.784  13.139  65.761  1.00  0.00    -0.279 A  
ENDBRANCH   6   7
ENDBRANCH   2   6
TORSDOF 3
ENDMDL
MODEL       76
REMARK 921   NORMALIZED FREE ENERGY PREDICTED BY IDOCK:   -4.48 KCAL/MOL
REMARK 922        TOTAL FREE ENERGY PREDICTED BY IDOCK:   -5.64 KCAL/MOL
REMARK 923 INTER-LIGAND FREE ENERGY PREDICTED BY IDOCK:   -5.53 KCAL/MOL
REMARK 924 INTRA-LIGAND FREE ENERGY PREDICTED BY IDOCK:   -0.10 KCAL/MOL
REMARK 927      BINDING AFFINITY PREDICTED BY RF-SCORE:    0.00 PKD
ROOT
HETATM    1  C   UNL     1     -10.887  16.717  68.039  1.00  0.00    -0.341 C  
HETATM    2  C   UNL     1      -9.466  17.137  67.613  1.00  0.00    -0.241 C  
ENDROOT
BRANCH   2   3
HETATM    3  N   UNL     1      -9.391  18.640  67.560  1.00  0.00    -0.281 NA 
HETATM    4  C   UNL     1     -10.671  19.264  67.205  1.00  0.00    -0.488 C  
HETATM    5  C   UNL     1      -8.384  19.109  66.590  1.00  0.00    -0.300 C  
ENDBRANCH   2   3
BRANCH   2   6
HETATM    6  C   UNL     1      -9.104  16.420  66.254  1.00  0.00    -0.327 C  
BRANCH   6   7
HETATM    7  N   UNL     1      -9.067  14.922  66.356  1.00  0.00    -0.278 NA 
HETATM    8  C   UNL     1     -10.070  14.204  65.617  1.00  0.00    -0.328 A  
HETATM    9  C   UNL     1     -11.029  14.847  64.803  1.00  0.00    -0.390 A  
HETATM   10  C   UNL     1     -12.026  14.155  64.099  1.00  0.00    -0.421 A  
HETATM   11  C   UNL     1     -12.097  12.775  64.173  1.00  0.00    -0.513 A  
HETATM   12  C   UNL     1     -11.169  12.101  64.951  1.00  0.00    -0.374 A  
HETATM   13  C   UNL     1     -10.169  12.796  65.664  1.00  0.00    -0.279 A  
HETATM   14  S   UNL     1      -9.087  11.751  66.596  1.00  0.00    -0.196 SA 
HETATM   15  C   UNL     1      -8.009  12.917  67.378  1.00  0.00    -0.178 A  
HETATM   16  C   UNL     1      -7.023  12.325  68.199  1.00  0.00    -0.087 A  
HETATM   17  C   UNL     1      -6.089  13.095  68.872  1.00  0.00    -0.083 A  
HETATM   18  C   UNL     1      -6.143  14.470  68.739  1.00  0.00    -0.087 A  
HETATM   19  C   UNL     1      -7.135  15.065  67.936  1.00  0.00    -0.165 A  
HETATM   20  C   UNL     1      -8.094  14.318  67.212  1.00  0.00    -0.178 A  
ENDBRANCH   6   7
ENDBRANCH   2   6
TORSDOF 3
ENDMDL
MODEL       77
REMARK 921   NORMALIZED FREE ENERGY PREDICTED BY IDOCK:   -4.44 KCAL/MOL
REMARK 922        TOTAL FREE ENERGY PREDICTED BY IDOCK:   -5.58 KCAL/MOL
REMARK 923 INTER-LIGAND FREE ENERGY PREDICTED BY IDOCK:   -5.44 KCAL/MOL
REMARK 924 INTRA-LIGAND FREE ENERGY PREDICTED BY IDOCK:   -0.14 KCAL/MOL
REMARK 927      BINDING AFFINITY PREDICTED BY RF-SCORE:    0.00 PKD
ROOT
HETATM    1  C   UNL     1     -10.877  11.399  65.724  1.00  0.00    -0.290 C  
HETATM    2  C   UNL     1     -11.201  12.257  66.964  1.00  0.00    -0.310 C  
ENDROOT
BRANCH   2   3
HETATM    3  N   UNL     1     -11.450  13.676  66.530  1.00  0.00    -0.323 NA 
HETATM    4  C   UNL     1     -12.645  13.815  65.690  1.00  0.00    -0.509 C  
HETATM    5  C   UNL     1     -10.310  14.232  65.777  1.00  0.00    -0.327 C  
ENDBRANCH   2   3
BRANCH   2   6
HETATM    6  C   UNL     1     -10.040  12.094  68.020  1.00  0.00    -0.204 C  
BRANCH   6   7
HETATM    7  N   UNL     1     -10.086  10.794  68.770  1.00  0.00    -0.183 NA 
HETATM    8  C   UNL     1     -11.044  10.702  69.838  1.00  0.00    -0.298 A  
HETATM    9  C   UNL     1     -11.930  11.754  70.164  1.00  0.00    -0.421 A  
HETATM   10  C   UNL     1     -12.850  11.682  71.221  1.00  0.00    -0.430 A  
HETATM   11  C   UNL     1     -12.929  10.539  71.997  1.00  0.00    -0.490 A  
HETATM   12  C   UNL     1     -12.086   9.477  71.705  1.00  0.00    -0.459 A  
HETATM   13  C   UNL     1     -11.156   9.550  70.646  1.00  0.00    -0.300 A  
HETATM   14  S   UNL     1     -10.175   8.090  70.444  1.00  0.00    -0.204 SA 
HETATM   15  C   UNL     1      -9.118   8.526  69.092  1.00  0.00    -0.146 A  
HETATM   16  C   UNL     1      -8.215   7.504  68.719  1.00  0.00    -0.129 A  
HETATM   17  C   UNL     1      -7.328   7.676  67.669  1.00  0.00    -0.095 A  
HETATM   18  C   UNL     1      -7.327   8.880  66.991  1.00  0.00    -0.083 A  
HETATM   19  C   UNL     1      -8.213   9.907  67.371  1.00  0.00    -0.118 A  
HETATM   20  C   UNL     1      -9.152   9.768  68.420  1.00  0.00    -0.123 A  
ENDBRANCH   6   7
ENDBRANCH   2   6
TORSDOF 3
ENDMDL
MODEL       78
REMARK 921   NORMALIZED FREE ENERGY PREDICTED BY IDOCK:   -4.43 KCAL/MOL
REMARK 922        TOTAL FREE ENERGY PREDICTED BY IDOCK:   -5.57 KCAL/MOL
REMARK 923 INTER-LIGAND FREE ENERGY PREDICTED BY IDOCK:   -5.19 KCAL/MOL
REMARK 924 INTRA-LIGAND FREE ENERGY PREDICTED BY IDOCK:   -0.38 KCAL/MOL
REMARK 927      BINDING AFFINITY PREDICTED BY RF-SCORE:    0.00 PKD
ROOT
HETATM    1  C   UNL     1      -7.595   7.418  68.314  1.00  0.00    -0.114 C  
HETATM    2  C   UNL     1      -8.846   7.593  69.198  1.00  0.00    -0.139 C  
ENDROOT
BRANCH   2   3
HETATM    3  N   UNL     1     -10.065   7.667  68.318  1.00  0.00    -0.180 NA 
HETATM    4  C   UNL     1     -11.000   6.557  68.543  1.00  0.00    -0.286 C  
HETATM    5  C   UNL     1      -9.714   7.668  66.886  1.00  0.00    -0.213 C  
ENDBRANCH   2   3
BRANCH   2   6
HETATM    6  C   UNL     1      -8.643   8.847  70.134  1.00  0.00    -0.155 C  
BRANCH   6   7
HETATM    7  N   UNL     1      -9.691   9.908  69.955  1.00  0.00    -0.236 NA 
HETATM    8  C   UNL     1     -10.893   9.761  70.730  1.00  0.00    -0.333 A  
HETATM    9  C   UNL     1     -11.089   8.702  71.645  1.00  0.00    -0.375 A  
HETATM   10  C   UNL     1     -12.268   8.539  72.388  1.00  0.00    -0.432 A  
HETATM   11  C   UNL     1     -13.306   9.442  72.250  1.00  0.00    -0.539 A  
HETATM   12  C   UNL     1     -13.153  10.504  71.371  1.00  0.00    -0.509 A  
HETATM   13  C   UNL     1     -11.969  10.667  70.620  1.00  0.00    -0.367 A  
HETATM   14  S   UNL     1     -11.977  12.083  69.557  1.00  0.00    -0.248 SA 
HETATM   15  C   UNL     1     -10.403  11.967  68.756  1.00  0.00    -0.165 A  
HETATM   16  C   UNL     1     -10.152  13.008  67.834  1.00  0.00    -0.235 A  
HETATM   17  C   UNL     1      -8.960  13.076  67.132  1.00  0.00    -0.223 A  
HETATM   18  C   UNL     1      -8.012  12.091  67.338  1.00  0.00    -0.165 A  
HETATM   19  C   UNL     1      -8.266  11.042  68.242  1.00  0.00    -0.130 A  
HETATM   20  C   UNL     1      -9.458  10.945  68.998  1.00  0.00    -0.146 A  
ENDBRANCH   6   7
ENDBRANCH   2   6
TORSDOF 3
ENDMDL
MODEL       79
REMARK 921   NORMALIZED FREE ENERGY PREDICTED BY IDOCK:   -4.42 KCAL/MOL
REMARK 922        TOTAL FREE ENERGY PREDICTED BY IDOCK:   -5.56 KCAL/MOL
REMARK 923 INTER-LIGAND FREE ENERGY PREDICTED BY IDOCK:   -5.23 KCAL/MOL
REMARK 924 INTRA-LIGAND FREE ENERGY PREDICTED BY IDOCK:   -0.32 KCAL/MOL
REMARK 927      BINDING AFFINITY PREDICTED BY RF-SCORE:    0.00 PKD
ROOT
HETATM    1  C   UNL     1     -11.863  14.918  64.447  1.00  0.00    -0.372 C  
HETATM    2  C   UNL     1     -10.929  13.816  64.987  1.00  0.00    -0.357 C  
ENDROOT
BRANCH   2   3
HETATM    3  N   UNL     1     -11.376  12.484  64.449  1.00  0.00    -0.323 NA 
HETATM    4  C   UNL     1     -10.392  11.874  63.546  1.00  0.00    -0.458 C  
HETATM    5  C   UNL     1     -12.651  12.583  63.715  1.00  0.00    -0.390 C  
ENDBRANCH   2   3
BRANCH   2   6
HETATM    6  C   UNL     1     -10.891  13.902  66.563  1.00  0.00    -0.295 C  
BRANCH   6   7
HETATM    7  N   UNL     1      -9.577  14.382  67.108  1.00  0.00    -0.243 NA 
HETATM    8  C   UNL     1      -9.513  15.761  67.508  1.00  0.00    -0.218 A  
HETATM    9  C   UNL     1     -10.623  16.632  67.433  1.00  0.00    -0.295 A  
HETATM   10  C   UNL     1     -10.562  17.986  67.798  1.00  0.00    -0.409 A  
HETATM   11  C   UNL     1      -9.377  18.526  68.266  1.00  0.00    -0.350 A  
HETATM   12  C   UNL     1      -8.265  17.705  68.366  1.00  0.00    -0.289 A  
HETATM   13  C   UNL     1      -8.323  16.344  67.995  1.00  0.00    -0.178 A  
HETATM   14  S   UNL     1      -6.795  15.473  68.197  1.00  0.00    -0.136 SA 
HETATM   15  C   UNL     1      -7.202  13.851  67.617  1.00  0.00    -0.174 A  
HETATM   16  C   UNL     1      -6.127  12.936  67.678  1.00  0.00    -0.154 A  
HETATM   17  C   UNL     1      -6.279  11.618  67.277  1.00  0.00    -0.115 A  
HETATM   18  C   UNL     1      -7.510  11.209  66.797  1.00  0.00    -0.146 A  
HETATM   19  C   UNL     1      -8.578  12.123  66.719  1.00  0.00    -0.163 A  
HETATM   20  C   UNL     1      -8.475  13.470  67.140  1.00  0.00    -0.166 A  
ENDBRANCH   6   7
ENDBRANCH   2   6
TORSDOF 3
ENDMDL
MODEL       80
REMARK 921   NORMALIZED FREE ENERGY PREDICTED BY IDOCK:   -4.40 KCAL/MOL
REMARK 922        TOTAL FREE ENERGY PREDICTED BY IDOCK:   -5.54 KCAL/MOL
REMARK 923 INTER-LIGAND FREE ENERGY PREDICTED BY IDOCK:   -5.18 KCAL/MOL
REMARK 924 INTRA-LIGAND FREE ENERGY PREDICTED BY IDOCK:   -0.36 KCAL/MOL
REMARK 927      BINDING AFFINITY PREDICTED BY RF-SCORE:    0.00 PKD
ROOT
HETATM    1  C   UNL     1      -7.460   7.428  67.465  1.00  0.00    -0.100 C  
HETATM    2  C   UNL     1      -8.480   7.653  68.599  1.00  0.00    -0.129 C  
ENDROOT
BRANCH   2   3
HETATM    3  N   UNL     1      -8.310   6.576  69.637  1.00  0.00    -0.129 NA 
HETATM    4  C   UNL     1      -9.459   5.665  69.707  1.00  0.00    -0.148 C  
HETATM    5  C   UNL     1      -8.103   7.135  70.985  1.00  0.00    -0.104 C  
ENDBRANCH   2   3
BRANCH   2   6
HETATM    6  C   UNL     1      -9.929   7.735  67.978  1.00  0.00    -0.175 C  
BRANCH   6   7
HETATM    7  N   UNL     1     -10.504   9.122  67.974  1.00  0.00    -0.228 NA 
HETATM    8  C   UNL     1     -10.320   9.890  66.773  1.00  0.00    -0.217 A  
HETATM    9  C   UNL     1      -9.666   9.379  65.630  1.00  0.00    -0.336 A  
HETATM   10  C   UNL     1      -9.461  10.130  64.463  1.00  0.00    -0.364 A  
HETATM   11  C   UNL     1      -9.915  11.434  64.388  1.00  0.00    -0.321 A  
HETATM   12  C   UNL     1     -10.573  11.974  65.482  1.00  0.00    -0.313 A  
HETATM   13  C   UNL     1     -10.776  11.222  66.659  1.00  0.00    -0.272 A  
HETATM   14  S   UNL     1     -11.633  12.096  67.937  1.00  0.00    -0.341 SA 
HETATM   15  C   UNL     1     -11.681  10.906  69.247  1.00  0.00    -0.324 A  
HETATM   16  C   UNL     1     -12.333  11.364  70.414  1.00  0.00    -0.404 A  
HETATM   17  C   UNL     1     -12.472  10.552  71.527  1.00  0.00    -0.493 A  
HETATM   18  C   UNL     1     -11.945   9.275  71.487  1.00  0.00    -0.439 A  
HETATM   19  C   UNL     1     -11.280   8.820  70.332  1.00  0.00    -0.247 A  
HETATM   20  C   UNL     1     -11.135   9.605  69.164  1.00  0.00    -0.092 A  
ENDBRANCH   6   7
ENDBRANCH   2   6
TORSDOF 3
ENDMDL
MODEL       81
REMARK 921   NORMALIZED FREE ENERGY PREDICTED BY IDOCK:   -4.40 KCAL/MOL
REMARK 922        TOTAL FREE ENERGY PREDICTED BY IDOCK:   -5.54 KCAL/MOL
REMARK 923 INTER-LIGAND FREE ENERGY PREDICTED BY IDOCK:   -5.26 KCAL/MOL
REMARK 924 INTRA-LIGAND FREE ENERGY PREDICTED BY IDOCK:   -0.27 KCAL/MOL
REMARK 927      BINDING AFFINITY PREDICTED BY RF-SCORE:    0.00 PKD
ROOT
HETATM    1  C   UNL     1     -12.909  14.308  65.296  1.00  0.00    -0.300 C  
HETATM    2  C   UNL     1     -11.798  13.498  65.995  1.00  0.00    -0.379 C  
ENDROOT
BRANCH   2   3
HETATM    3  N   UNL     1     -10.480  14.196  65.798  1.00  0.00    -0.299 NA 
HETATM    4  C   UNL     1      -9.839  14.573  67.064  1.00  0.00    -0.249 C  
HETATM    5  C   UNL     1     -10.619  15.421  64.989  1.00  0.00    -0.420 C  
ENDBRANCH   2   3
BRANCH   2   6
HETATM    6  C   UNL     1     -11.833  12.012  65.462  1.00  0.00    -0.181 C  
BRANCH   6   7
HETATM    7  N   UNL     1     -10.608  11.219  65.812  1.00  0.00    -0.260 NA 
HETATM    8  C   UNL     1     -10.469  10.823  67.187  1.00  0.00    -0.237 A  
HETATM    9  C   UNL     1     -11.438  11.122  68.171  1.00  0.00    -0.373 A  
HETATM   10  C   UNL     1     -11.300  10.761  69.520  1.00  0.00    -0.355 A  
HETATM   11  C   UNL     1     -10.178  10.069  69.941  1.00  0.00    -0.304 A  
HETATM   12  C   UNL     1      -9.206   9.744  69.008  1.00  0.00    -0.165 A  
HETATM   13  C   UNL     1      -9.342  10.111  67.651  1.00  0.00    -0.148 A  
HETATM   14  S   UNL     1      -7.992   9.603  66.626  1.00  0.00    -0.109 SA 
HETATM   15  C   UNL     1      -8.454  10.242  65.042  1.00  0.00    -0.172 A  
HETATM   16  C   UNL     1      -7.522   9.962  64.017  1.00  0.00    -0.135 A  
HETATM   17  C   UNL     1      -7.738  10.378  62.713  1.00  0.00    -0.145 A  
HETATM   18  C   UNL     1      -8.888  11.091  62.427  1.00  0.00    -0.358 A  
HETATM   19  C   UNL     1      -9.811  11.386  63.448  1.00  0.00    -0.422 A  
HETATM   20  C   UNL     1      -9.643  10.962  64.787  1.00  0.00    -0.252 A  
ENDBRANCH   6   7
ENDBRANCH   2   6
TORSDOF 3
ENDMDL
MODEL       82
REMARK 921   NORMALIZED FREE ENERGY PREDICTED BY IDOCK:   -4.38 KCAL/MOL
REMARK 922        TOTAL FREE ENERGY PREDICTED BY IDOCK:   -5.51 KCAL/MOL
REMARK 923 INTER-LIGAND FREE ENERGY PREDICTED BY IDOCK:   -5.24 KCAL/MOL
REMARK 924 INTRA-LIGAND FREE ENERGY PREDICTED BY IDOCK:   -0.27 KCAL/MOL
REMARK 927      BINDING AFFINITY PREDICTED BY RF-SCORE:    0.00 PKD
ROOT
HETATM    1  C   UNL     1      -7.607  10.868  69.184  1.00  0.00    -0.133 C  
HETATM    2  C   UNL     1      -8.861  11.245  68.370  1.00  0.00    -0.159 C  
ENDROOT
BRANCH   2   3
HETATM    3  N   UNL     1      -9.699  10.014  68.154  1.00  0.00    -0.139 NA 
HETATM    4  C   UNL     1      -9.287   9.243  66.975  1.00  0.00    -0.144 C  
HETATM    5  C   UNL     1     -11.129  10.339  67.995  1.00  0.00    -0.274 C  
ENDBRANCH   2   3
BRANCH   2   6
HETATM    6  C   UNL     1      -8.413  11.969  67.041  1.00  0.00    -0.183 C  
BRANCH   6   7
HETATM    7  N   UNL     1      -9.210  13.202  66.729  1.00  0.00    -0.239 NA 
HETATM    8  C   UNL     1     -10.188  13.088  65.681  1.00  0.00    -0.287 A  
HETATM    9  C   UNL     1     -10.430  11.880  64.989  1.00  0.00    -0.333 A  
HETATM   10  C   UNL     1     -11.366  11.765  63.949  1.00  0.00    -0.494 A  
HETATM   11  C   UNL     1     -12.111  12.864  63.562  1.00  0.00    -0.633 A  
HETATM   12  C   UNL     1     -11.914  14.068  64.221  1.00  0.00    -0.463 A  
HETATM   13  C   UNL     1     -10.970  14.186  65.264  1.00  0.00    -0.337 A  
HETATM   14  S   UNL     1     -10.873  15.806  65.971  1.00  0.00    -0.202 SA 
HETATM   15  C   UNL     1      -9.601  15.615  67.187  1.00  0.00    -0.218 A  
HETATM   16  C   UNL     1      -9.324  16.794  67.915  1.00  0.00    -0.229 A  
HETATM   17  C   UNL     1      -8.366  16.814  68.916  1.00  0.00    -0.222 A  
HETATM   18  C   UNL     1      -7.665  15.653  69.187  1.00  0.00    -0.212 A  
HETATM   19  C   UNL     1      -7.926  14.481  68.451  1.00  0.00    -0.141 A  
HETATM   20  C   UNL     1      -8.911  14.408  67.438  1.00  0.00    -0.203 A  
ENDBRANCH   6   7
ENDBRANCH   2   6
TORSDOF 3
ENDMDL
MODEL       83
REMARK 921   NORMALIZED FREE ENERGY PREDICTED BY IDOCK:   -4.36 KCAL/MOL
REMARK 922        TOTAL FREE ENERGY PREDICTED BY IDOCK:   -5.49 KCAL/MOL
REMARK 923 INTER-LIGAND FREE ENERGY PREDICTED BY IDOCK:   -5.31 KCAL/MOL
REMARK 924 INTRA-LIGAND FREE ENERGY PREDICTED BY IDOCK:   -0.18 KCAL/MOL
REMARK 927      BINDING AFFINITY PREDICTED BY RF-SCORE:    0.00 PKD
ROOT
HETATM    1  C   UNL     1      -9.654  14.940  66.240  1.00  0.00    -0.334 C  
HETATM    2  C   UNL     1     -10.054  14.240  67.554  1.00  0.00    -0.236 C  
ENDROOT
BRANCH   2   3
HETATM    3  N   UNL     1      -8.811  13.763  68.258  1.00  0.00    -0.183 NA 
HETATM    4  C   UNL     1      -8.007  14.863  68.803  1.00  0.00    -0.156 C  
HETATM    5  C   UNL     1      -7.940  12.975  67.367  1.00  0.00    -0.172 C  
ENDBRANCH   2   3
BRANCH   2   6
HETATM    6  C   UNL     1     -11.097  13.100  67.233  1.00  0.00    -0.279 C  
BRANCH   6   7
HETATM    7  N   UNL     1     -11.354  12.176  68.388  1.00  0.00    -0.260 NA 
HETATM    8  C   UNL     1     -10.935  10.811  68.225  1.00  0.00    -0.255 A  
HETATM    9  C   UNL     1     -10.282  10.345  67.062  1.00  0.00    -0.277 A  
HETATM   10  C   UNL     1      -9.891   9.008  66.885  1.00  0.00    -0.288 A  
HETATM   11  C   UNL     1     -10.133   8.077  67.879  1.00  0.00    -0.243 A  
HETATM   12  C   UNL     1     -10.761   8.493  69.043  1.00  0.00    -0.113 A  
HETATM   13  C   UNL     1     -11.159   9.835  69.220  1.00  0.00    -0.149 A  
HETATM   14  S   UNL     1     -11.946  10.157  70.773  1.00  0.00    -0.375 SA 
HETATM   15  C   UNL     1     -12.341  11.878  70.651  1.00  0.00    -0.313 A  
HETATM   16  C   UNL     1     -12.989  12.398  71.794  1.00  0.00    -0.422 A  
HETATM   17  C   UNL     1     -13.354  13.733  71.869  1.00  0.00    -0.499 A  
HETATM   18  C   UNL     1     -13.084  14.556  70.793  1.00  0.00    -0.363 A  
HETATM   19  C   UNL     1     -12.453  14.037  69.645  1.00  0.00    -0.204 A  
HETATM   20  C   UNL     1     -12.042  12.688  69.533  1.00  0.00    -0.192 A  
ENDBRANCH   6   7
ENDBRANCH   2   6
TORSDOF 3
ENDMDL
MODEL       84
REMARK 921   NORMALIZED FREE ENERGY PREDICTED BY IDOCK:   -4.36 KCAL/MOL
REMARK 922        TOTAL FREE ENERGY PREDICTED BY IDOCK:   -5.49 KCAL/MOL
REMARK 923 INTER-LIGAND FREE ENERGY PREDICTED BY IDOCK:   -5.08 KCAL/MOL
REMARK 924 INTRA-LIGAND FREE ENERGY PREDICTED BY IDOCK:   -0.41 KCAL/MOL
REMARK 927      BINDING AFFINITY PREDICTED BY RF-SCORE:    0.00 PKD
ROOT
HETATM    1  C   UNL     1     -11.471  15.445  68.778  1.00  0.00    -0.352 C  
HETATM    2  C   UNL     1     -10.234  14.606  68.401  1.00  0.00    -0.235 C  
ENDROOT
BRANCH   2   3
HETATM    3  N   UNL     1      -9.628  15.159  67.139  1.00  0.00    -0.215 NA 
HETATM    4  C   UNL     1      -8.212  15.514  67.293  1.00  0.00    -0.197 C  
HETATM    5  C   UNL     1     -10.338  16.361  66.665  1.00  0.00    -0.292 C  
ENDBRANCH   2   3
BRANCH   2   6
HETATM    6  C   UNL     1     -10.651  13.086  68.311  1.00  0.00    -0.247 C  
BRANCH   6   7
HETATM    7  N   UNL     1     -10.049  12.365  67.140  1.00  0.00    -0.212 NA 
HETATM    8  C   UNL     1     -10.831  12.331  65.934  1.00  0.00    -0.271 A  
HETATM    9  C   UNL     1     -12.090  12.964  65.820  1.00  0.00    -0.513 A  
HETATM   10  C   UNL     1     -12.870  12.914  64.655  1.00  0.00    -0.323 A  
HETATM   11  C   UNL     1     -12.415  12.231  63.543  1.00  0.00    -0.642 A  
HETATM   12  C   UNL     1     -11.180  11.604  63.605  1.00  0.00    -0.497 A  
HETATM   13  C   UNL     1     -10.395  11.648  64.778  1.00  0.00    -0.282 A  
HETATM   14  S   UNL     1      -8.856  10.784  64.651  1.00  0.00    -0.095 SA 
HETATM   15  C   UNL     1      -8.162  11.002  66.264  1.00  0.00    -0.164 A  
HETATM   16  C   UNL     1      -6.897  10.394  66.430  1.00  0.00    -0.112 A  
HETATM   17  C   UNL     1      -6.207  10.483  67.629  1.00  0.00    -0.056 A  
HETATM   18  C   UNL     1      -6.786  11.171  68.678  1.00  0.00    -0.070 A  
HETATM   19  C   UNL     1      -8.055  11.763  68.522  1.00  0.00    -0.140 A  
HETATM   20  C   UNL     1      -8.784  11.719  67.311  1.00  0.00    -0.163 A  
ENDBRANCH   6   7
ENDBRANCH   2   6
TORSDOF 3
ENDMDL
MODEL       85
REMARK 921   NORMALIZED FREE ENERGY PREDICTED BY IDOCK:   -4.35 KCAL/MOL
REMARK 922        TOTAL FREE ENERGY PREDICTED BY IDOCK:   -5.48 KCAL/MOL
REMARK 923 INTER-LIGAND FREE ENERGY PREDICTED BY IDOCK:   -5.98 KCAL/MOL
REMARK 924 INTRA-LIGAND FREE ENERGY PREDICTED BY IDOCK:    0.50 KCAL/MOL
REMARK 927      BINDING AFFINITY PREDICTED BY RF-SCORE:    0.00 PKD
ROOT
HETATM    1  C   UNL     1     -10.437  12.686  64.151  1.00  0.00    -0.438 C  
HETATM    2  C   UNL     1     -10.127  12.331  65.620  1.00  0.00    -0.252 C  
ENDROOT
BRANCH   2   3
HETATM    3  N   UNL     1      -9.377  11.027  65.665  1.00  0.00    -0.207 NA 
HETATM    4  C   UNL     1      -8.561  10.796  64.467  1.00  0.00    -0.047 C  
HETATM    5  C   UNL     1     -10.283   9.873  65.814  1.00  0.00    -0.181 C  
ENDBRANCH   2   3
BRANCH   2   6
HETATM    6  C   UNL     1     -11.473  12.336  66.445  1.00  0.00    -0.378 C  
BRANCH   6   7
HETATM    7  N   UNL     1     -11.456  13.272  67.619  1.00  0.00    -0.302 NA 
HETATM    8  C   UNL     1     -11.855  12.721  68.885  1.00  0.00    -0.308 A  
HETATM    9  C   UNL     1     -12.217  11.365  69.050  1.00  0.00    -0.200 A  
HETATM   10  C   UNL     1     -12.631  10.825  70.277  1.00  0.00    -0.350 A  
HETATM   11  C   UNL     1     -12.692  11.627  71.403  1.00  0.00    -0.445 A  
HETATM   12  C   UNL     1     -12.335  12.961  71.290  1.00  0.00    -0.179 A  
HETATM   13  C   UNL     1     -11.923  13.507  70.055  1.00  0.00    -0.340 A  
HETATM   14  S   UNL     1     -11.513  15.228  70.126  1.00  0.00    -0.321 SA 
HETATM   15  C   UNL     1     -11.089  15.588  68.446  1.00  0.00    -0.315 A  
HETATM   16  C   UNL     1     -10.710  16.932  68.227  1.00  0.00    -0.377 A  
HETATM   17  C   UNL     1     -10.332  17.377  66.971  1.00  0.00    -0.318 A  
HETATM   18  C   UNL     1     -10.343  16.482  65.918  1.00  0.00    -0.365 A  
HETATM   19  C   UNL     1     -10.736  15.146  66.129  1.00  0.00    -0.327 A  
HETATM   20  C   UNL     1     -11.107  14.641  67.397  1.00  0.00    -0.326 A  
ENDBRANCH   6   7
ENDBRANCH   2   6
TORSDOF 3
ENDMDL
MODEL       86
REMARK 921   NORMALIZED FREE ENERGY PREDICTED BY IDOCK:   -4.31 KCAL/MOL
REMARK 922        TOTAL FREE ENERGY PREDICTED BY IDOCK:   -5.43 KCAL/MOL
REMARK 923 INTER-LIGAND FREE ENERGY PREDICTED BY IDOCK:   -5.43 KCAL/MOL
REMARK 924 INTRA-LIGAND FREE ENERGY PREDICTED BY IDOCK:    0.01 KCAL/MOL
REMARK 927      BINDING AFFINITY PREDICTED BY RF-SCORE:    0.00 PKD
ROOT
HETATM    1  C   UNL     1     -10.446   6.081  70.284  1.00  0.00    -0.305 C  
HETATM    2  C   UNL     1     -10.274   7.604  70.450  1.00  0.00    -0.203 C  
ENDROOT
BRANCH   2   3
HETATM    3  N   UNL     1      -9.752   7.894  71.832  1.00  0.00    -0.168 NA 
HETATM    4  C   UNL     1      -8.672   6.987  72.236  1.00  0.00    -0.125 C  
HETATM    5  C   UNL     1     -10.813   7.805  72.852  1.00  0.00    -0.392 C  
ENDBRANCH   2   3
BRANCH   2   6
HETATM    6  C   UNL     1     -11.640   8.317  70.107  1.00  0.00     0.102 C  
BRANCH   6   7
HETATM    7  N   UNL     1     -11.472   9.632  69.402  1.00  0.00     0.003 NA 
HETATM    8  C   UNL     1     -10.811   9.597  68.126  1.00  0.00    -0.190 A  
HETATM    9  C   UNL     1     -10.363   8.397  67.529  1.00  0.00    -0.333 A  
HETATM   10  C   UNL     1      -9.695   8.357  66.295  1.00  0.00    -0.278 A  
HETATM   11  C   UNL     1      -9.454   9.527  65.598  1.00  0.00    -0.326 A  
HETATM   12  C   UNL     1      -9.887  10.727  66.141  1.00  0.00    -0.269 A  
HETATM   13  C   UNL     1     -10.554  10.770  67.384  1.00  0.00    -0.242 A  
HETATM   14  S   UNL     1     -11.020  12.398  67.899  1.00  0.00    -0.242 SA 
HETATM   15  C   UNL     1     -11.778  12.099  69.470  1.00  0.00    -0.336 A  
HETATM   16  C   UNL     1     -12.252  13.267  70.109  1.00  0.00    -0.376 A  
HETATM   17  C   UNL     1     -12.886  13.208  71.339  1.00  0.00    -0.401 A  
HETATM   18  C   UNL     1     -13.038  11.976  71.949  1.00  0.00    -0.475 A  
HETATM   19  C   UNL     1     -12.551  10.812  71.324  1.00  0.00    -0.532 A  
HETATM   20  C   UNL     1     -11.919  10.822  70.058  1.00  0.00    -0.347 A  
ENDBRANCH   6   7
ENDBRANCH   2   6
TORSDOF 3
ENDMDL
MODEL       87
REMARK 921   NORMALIZED FREE ENERGY PREDICTED BY IDOCK:   -4.30 KCAL/MOL
REMARK 922        TOTAL FREE ENERGY PREDICTED BY IDOCK:   -5.42 KCAL/MOL
REMARK 923 INTER-LIGAND FREE ENERGY PREDICTED BY IDOCK:   -5.04 KCAL/MOL
REMARK 924 INTRA-LIGAND FREE ENERGY PREDICTED BY IDOCK:   -0.38 KCAL/MOL
REMARK 927      BINDING AFFINITY PREDICTED BY RF-SCORE:    0.00 PKD
ROOT
HETATM    1  C   UNL     1      -8.858   9.653  64.908  1.00  0.00    -0.234 C  
HETATM    2  C   UNL     1      -8.901   8.890  66.247  1.00  0.00    -0.158 C  
ENDROOT
BRANCH   2   3
HETATM    3  N   UNL     1      -8.039   7.660  66.142  1.00  0.00    -0.112 NA 
HETATM    4  C   UNL     1      -6.759   7.799  66.846  1.00  0.00    -0.067 C  
HETATM    5  C   UNL     1      -7.740   7.313  64.741  1.00  0.00    -0.115 C  
ENDBRANCH   2   3
BRANCH   2   6
HETATM    6  C   UNL     1     -10.406   8.599  66.625  1.00  0.00    -0.232 C  
BRANCH   6   7
HETATM    7  N   UNL     1     -10.738   8.910  68.056  1.00  0.00    -0.162 NA 
HETATM    8  C   UNL     1     -10.685   7.810  68.981  1.00  0.00    -0.103 A  
HETATM    9  C   UNL     1     -10.310   6.504  68.596  1.00  0.00    -0.216 A  
HETATM   10  C   UNL     1     -10.279   5.420  69.488  1.00  0.00    -0.336 A  
HETATM   11  C   UNL     1     -10.617   5.605  70.817  1.00  0.00    -0.335 A  
HETATM   12  C   UNL     1     -10.980   6.874  71.241  1.00  0.00    -0.275 A  
HETATM   13  C   UNL     1     -11.016   7.963  70.345  1.00  0.00    -0.249 A  
HETATM   14  S   UNL     1     -11.508   9.494  71.086  1.00  0.00    -0.390 SA 
HETATM   15  C   UNL     1     -11.485  10.608  69.712  1.00  0.00    -0.302 A  
HETATM   16  C   UNL     1     -11.845  11.934  70.043  1.00  0.00    -0.407 A  
HETATM   17  C   UNL     1     -11.864  12.936  69.087  1.00  0.00    -0.353 A  
HETATM   18  C   UNL     1     -11.534  12.615  67.783  1.00  0.00    -0.375 A  
HETATM   19  C   UNL     1     -11.192  11.291  67.445  1.00  0.00    -0.370 A  
HETATM   20  C   UNL     1     -11.136  10.242  68.392  1.00  0.00    -0.247 A  
ENDBRANCH   6   7
ENDBRANCH   2   6
TORSDOF 3
ENDMDL
MODEL       88
REMARK 921   NORMALIZED FREE ENERGY PREDICTED BY IDOCK:   -4.30 KCAL/MOL
REMARK 922        TOTAL FREE ENERGY PREDICTED BY IDOCK:   -5.41 KCAL/MOL
REMARK 923 INTER-LIGAND FREE ENERGY PREDICTED BY IDOCK:   -5.04 KCAL/MOL
REMARK 924 INTRA-LIGAND FREE ENERGY PREDICTED BY IDOCK:   -0.37 KCAL/MOL
REMARK 927      BINDING AFFINITY PREDICTED BY RF-SCORE:    0.00 PKD
ROOT
HETATM    1  C   UNL     1     -12.147  11.172  69.754  1.00  0.00    -0.414 C  
HETATM    2  C   UNL     1     -11.995   9.901  70.613  1.00  0.00    -0.277 C  
ENDROOT
BRANCH   2   3
HETATM    3  N   UNL     1     -12.688  10.111  71.932  1.00  0.00    -0.415 NA 
HETATM    4  C   UNL     1     -13.762   9.140  72.174  1.00  0.00    -0.471 C  
HETATM    5  C   UNL     1     -13.276  11.459  72.039  1.00  0.00    -0.327 C  
ENDBRANCH   2   3
BRANCH   2   6
HETATM    6  C   UNL     1     -10.462   9.543  70.733  1.00  0.00    -0.314 C  
BRANCH   6   7
HETATM    7  N   UNL     1     -10.105   8.216  70.130  1.00  0.00    -0.192 NA 
HETATM    8  C   UNL     1      -9.724   8.222  68.743  1.00  0.00    -0.157 A  
HETATM    9  C   UNL     1      -9.649   9.406  67.976  1.00  0.00    -0.156 A  
HETATM   10  C   UNL     1      -9.302   9.418  66.616  1.00  0.00    -0.211 A  
HETATM   11  C   UNL     1      -9.004   8.234  65.965  1.00  0.00    -0.224 A  
HETATM   12  C   UNL     1      -9.054   7.049  66.682  1.00  0.00    -0.175 A  
HETATM   13  C   UNL     1      -9.408   7.035  68.049  1.00  0.00    -0.127 A  
HETATM   14  S   UNL     1      -9.414   5.421  68.777  1.00  0.00    -0.137 SA 
HETATM   15  C   UNL     1      -9.925   5.755  70.438  1.00  0.00    -0.198 A  
HETATM   16  C   UNL     1     -10.009   4.603  71.253  1.00  0.00    -0.268 A  
HETATM   17  C   UNL     1     -10.380   4.689  72.586  1.00  0.00    -0.253 A  
HETATM   18  C   UNL     1     -10.683   5.932  73.110  1.00  0.00    -0.288 A  
HETATM   19  C   UNL     1     -10.618   7.079  72.297  1.00  0.00    -0.242 A  
HETATM   20  C   UNL     1     -10.221   7.042  70.939  1.00  0.00    -0.197 A  
ENDBRANCH   6   7
ENDBRANCH   2   6
TORSDOF 3
ENDMDL
MODEL       89
REMARK 921   NORMALIZED FREE ENERGY PREDICTED BY IDOCK:   -4.25 KCAL/MOL
REMARK 922        TOTAL FREE ENERGY PREDICTED BY IDOCK:   -5.36 KCAL/MOL
REMARK 923 INTER-LIGAND FREE ENERGY PREDICTED BY IDOCK:   -5.02 KCAL/MOL
REMARK 924 INTRA-LIGAND FREE ENERGY PREDICTED BY IDOCK:   -0.34 KCAL/MOL
REMARK 927      BINDING AFFINITY PREDICTED BY RF-SCORE:    0.00 PKD
ROOT
HETATM    1  C   UNL     1     -11.715  15.173  64.520  1.00  0.00    -0.331 C  
HETATM    2  C   UNL     1     -10.655  14.222  65.112  1.00  0.00    -0.406 C  
ENDROOT
BRANCH   2   3
HETATM    3  N   UNL     1     -11.063  12.799  64.840  1.00  0.00    -0.283 NA 
HETATM    4  C   UNL     1     -10.678  12.341  63.499  1.00  0.00    -0.451 C  
HETATM    5  C   UNL     1     -12.519  12.605  64.974  1.00  0.00    -0.487 C  
ENDBRANCH   2   3
BRANCH   2   6
HETATM    6  C   UNL     1     -10.457  14.560  66.641  1.00  0.00    -0.274 C  
BRANCH   6   7
HETATM    7  N   UNL     1      -9.043  14.391  67.116  1.00  0.00    -0.216 NA 
HETATM    8  C   UNL     1      -8.730  13.150  67.772  1.00  0.00    -0.188 A  
HETATM    9  C   UNL     1      -9.677  12.115  67.943  1.00  0.00    -0.200 A  
HETATM   10  C   UNL     1      -9.386  10.911  68.603  1.00  0.00    -0.188 A  
HETATM   11  C   UNL     1      -8.121  10.688  69.116  1.00  0.00    -0.143 A  
HETATM   12  C   UNL     1      -7.157  11.673  68.962  1.00  0.00    -0.108 A  
HETATM   13  C   UNL     1      -7.449  12.886  68.303  1.00  0.00    -0.125 A  
HETATM   14  S   UNL     1      -6.083  14.008  68.215  1.00  0.00    -0.131 SA 
HETATM   15  C   UNL     1      -6.788  15.403  67.384  1.00  0.00    -0.170 A  
HETATM   16  C   UNL     1      -5.880  16.467  67.180  1.00  0.00    -0.174 A  
HETATM   17  C   UNL     1      -6.266  17.628  66.531  1.00  0.00    -0.240 A  
HETATM   18  C   UNL     1      -7.572  17.740  66.091  1.00  0.00    -0.302 A  
HETATM   19  C   UNL     1      -8.484  16.689  66.308  1.00  0.00    -0.355 A  
HETATM   20  C   UNL     1      -8.128  15.477  66.944  1.00  0.00    -0.249 A  
ENDBRANCH   6   7
ENDBRANCH   2   6
TORSDOF 3
ENDMDL
MODEL       90
REMARK 921   NORMALIZED FREE ENERGY PREDICTED BY IDOCK:   -4.22 KCAL/MOL
REMARK 922        TOTAL FREE ENERGY PREDICTED BY IDOCK:   -5.33 KCAL/MOL
REMARK 923 INTER-LIGAND FREE ENERGY PREDICTED BY IDOCK:   -5.03 KCAL/MOL
REMARK 924 INTRA-LIGAND FREE ENERGY PREDICTED BY IDOCK:   -0.29 KCAL/MOL
REMARK 927      BINDING AFFINITY PREDICTED BY RF-SCORE:    0.00 PKD
ROOT
HETATM    1  C   UNL     1      -8.549   6.027  71.294  1.00  0.00    -0.129 C  
HETATM    2  C   UNL     1      -9.901   6.568  71.800  1.00  0.00    -0.165 C  
ENDROOT
BRANCH   2   3
HETATM    3  N   UNL     1     -10.352   5.747  72.978  1.00  0.00    -0.194 NA 
HETATM    4  C   UNL     1     -11.755   5.330  72.879  1.00  0.00    -0.153 C  
HETATM    5  C   UNL     1     -10.193   6.473  74.251  1.00  0.00    -0.350 C  
ENDBRANCH   2   3
BRANCH   2   6
HETATM    6  C   UNL     1     -10.924   6.600  70.599  1.00  0.00    -0.280 C  
BRANCH   6   7
HETATM    7  N   UNL     1     -10.935   7.902  69.851  1.00  0.00    -0.220 NA 
HETATM    8  C   UNL     1     -10.269   7.917  68.577  1.00  0.00    -0.205 A  
HETATM    9  C   UNL     1      -9.658   6.771  68.020  1.00  0.00    -0.117 A  
HETATM   10  C   UNL     1      -8.985   6.783  66.788  1.00  0.00    -0.141 A  
HETATM   11  C   UNL     1      -8.903   7.952  66.053  1.00  0.00    -0.191 A  
HETATM   12  C   UNL     1      -9.498   9.099  66.557  1.00  0.00    -0.266 A  
HETATM   13  C   UNL     1     -10.171   9.090  67.798  1.00  0.00    -0.230 A  
HETATM   14  S   UNL     1     -10.858  10.655  68.259  1.00  0.00    -0.262 SA 
HETATM   15  C   UNL     1     -11.575  10.305  69.839  1.00  0.00    -0.256 A  
HETATM   16  C   UNL     1     -12.208  11.417  70.439  1.00  0.00    -0.450 A  
HETATM   17  C   UNL     1     -12.833  11.312  71.671  1.00  0.00    -0.510 A  
HETATM   18  C   UNL     1     -12.818  10.091  72.320  1.00  0.00    -0.306 A  
HETATM   19  C   UNL     1     -12.173   8.986  71.734  1.00  0.00    -0.434 A  
HETATM   20  C   UNL     1     -11.543   9.040  70.468  1.00  0.00    -0.175 A  
ENDBRANCH   6   7
ENDBRANCH   2   6
TORSDOF 3
ENDMDL
MODEL       91
REMARK 921   NORMALIZED FREE ENERGY PREDICTED BY IDOCK:   -4.19 KCAL/MOL
REMARK 922        TOTAL FREE ENERGY PREDICTED BY IDOCK:   -5.29 KCAL/MOL
REMARK 923 INTER-LIGAND FREE ENERGY PREDICTED BY IDOCK:   -4.89 KCAL/MOL
REMARK 924 INTRA-LIGAND FREE ENERGY PREDICTED BY IDOCK:   -0.40 KCAL/MOL
REMARK 927      BINDING AFFINITY PREDICTED BY RF-SCORE:    0.00 PKD
ROOT
HETATM    1  C   UNL     1      -8.128   9.059  67.101  1.00  0.00    -0.106 C  
HETATM    2  C   UNL     1      -8.971   8.175  68.042  1.00  0.00    -0.134 C  
ENDROOT
BRANCH   2   3
HETATM    3  N   UNL     1     -10.386   8.119  67.532  1.00  0.00    -0.243 NA 
HETATM    4  C   UNL     1     -10.737   6.812  66.964  1.00  0.00    -0.365 C  
HETATM    5  C   UNL     1     -10.639   9.136  66.494  1.00  0.00    -0.026 C  
ENDBRANCH   2   3
BRANCH   2   6
HETATM    6  C   UNL     1      -8.833   8.718  69.518  1.00  0.00    -0.144 C  
BRANCH   6   7
HETATM    7  N   UNL     1      -9.999   8.373  70.398  1.00  0.00    -0.184 NA 
HETATM    8  C   UNL     1     -10.962   9.416  70.628  1.00  0.00    -0.290 A  
HETATM    9  C   UNL     1     -10.857  10.697  70.041  1.00  0.00    -0.280 A  
HETATM   10  C   UNL     1     -11.778  11.728  70.280  1.00  0.00    -0.317 A  
HETATM   11  C   UNL     1     -12.858  11.513  71.117  1.00  0.00    -0.414 A  
HETATM   12  C   UNL     1     -13.007  10.267  71.706  1.00  0.00    -0.574 A  
HETATM   13  C   UNL     1     -12.079   9.231  71.471  1.00  0.00    -0.361 A  
HETATM   14  S   UNL     1     -12.450   7.721  72.318  1.00  0.00    -0.128 SA 
HETATM   15  C   UNL     1     -11.101   6.678  71.846  1.00  0.00    -0.253 A  
HETATM   16  C   UNL     1     -11.161   5.379  72.400  1.00  0.00    -0.289 A  
HETATM   17  C   UNL     1     -10.191   4.430  72.119  1.00  0.00    -0.247 A  
HETATM   18  C   UNL     1      -9.142   4.780  71.289  1.00  0.00    -0.179 A  
HETATM   19  C   UNL     1      -9.069   6.079  70.750  1.00  0.00    -0.161 A  
HETATM   20  C   UNL     1     -10.048   7.071  70.989  1.00  0.00    -0.195 A  
ENDBRANCH   6   7
ENDBRANCH   2   6
TORSDOF 3
ENDMDL
MODEL       92
REMARK 921   NORMALIZED FREE ENERGY PREDICTED BY IDOCK:   -4.19 KCAL/MOL
REMARK 922        TOTAL FREE ENERGY PREDICTED BY IDOCK:   -5.29 KCAL/MOL
REMARK 923 INTER-LIGAND FREE ENERGY PREDICTED BY IDOCK:   -5.50 KCAL/MOL
REMARK 924 INTRA-LIGAND FREE ENERGY PREDICTED BY IDOCK:    0.22 KCAL/MOL
REMARK 927      BINDING AFFINITY PREDICTED BY RF-SCORE:    0.00 PKD
ROOT
HETATM    1  C   UNL     1      -6.707  16.869  69.390  1.00  0.00    -0.220 C  
HETATM    2  C   UNL     1      -7.225  15.449  69.085  1.00  0.00    -0.171 C  
ENDROOT
BRANCH   2   3
HETATM    3  N   UNL     1      -6.636  14.978  67.783  1.00  0.00    -0.157 NA 
HETATM    4  C   UNL     1      -5.514  14.049  67.966  1.00  0.00    -0.117 C  
HETATM    5  C   UNL     1      -6.153  16.099  66.956  1.00  0.00     0.033 C  
ENDBRANCH   2   3
BRANCH   2   6
HETATM    6  C   UNL     1      -8.803  15.460  69.120  1.00  0.00    -0.249 C  
BRANCH   6   7
HETATM    7  N   UNL     1      -9.432  15.755  67.789  1.00  0.00    -0.211 NA 
HETATM    8  C   UNL     1      -9.666  17.140  67.483  1.00  0.00    -0.256 A  
HETATM    9  C   UNL     1      -9.301  18.190  68.356  1.00  0.00    -0.319 A  
HETATM   10  C   UNL     1      -9.547  19.542  68.075  1.00  0.00    -0.450 A  
HETATM   11  C   UNL     1     -10.167  19.904  66.892  1.00  0.00    -0.600 A  
HETATM   12  C   UNL     1     -10.533  18.908  66.000  1.00  0.00    -0.507 A  
HETATM   13  C   UNL     1     -10.290  17.546  66.283  1.00  0.00    -0.335 A  
HETATM   14  S   UNL     1     -10.835  16.436  65.017  1.00  0.00    -0.145 SA 
HETATM   15  C   UNL     1     -10.423  14.854  65.694  1.00  0.00    -0.349 A  
HETATM   16  C   UNL     1     -10.760  13.767  64.856  1.00  0.00    -0.410 A  
HETATM   17  C   UNL     1     -10.492  12.460  65.228  1.00  0.00    -0.316 A  
HETATM   18  C   UNL     1      -9.895  12.228  66.454  1.00  0.00    -0.242 A  
HETATM   19  C   UNL     1      -9.574  13.308  67.299  1.00  0.00    -0.234 A  
HETATM   20  C   UNL     1      -9.807  14.659  66.951  1.00  0.00    -0.249 A  
ENDBRANCH   6   7
ENDBRANCH   2   6
TORSDOF 3
ENDMDL
MODEL       93
REMARK 921   NORMALIZED FREE ENERGY PREDICTED BY IDOCK:   -4.19 KCAL/MOL
REMARK 922        TOTAL FREE ENERGY PREDICTED BY IDOCK:   -5.28 KCAL/MOL
REMARK 923 INTER-LIGAND FREE ENERGY PREDICTED BY IDOCK:   -5.26 KCAL/MOL
REMARK 924 INTRA-LIGAND FREE ENERGY PREDICTED BY IDOCK:   -0.03 KCAL/MOL
REMARK 927      BINDING AFFINITY PREDICTED BY RF-SCORE:    0.00 PKD
ROOT
HETATM    1  C   UNL     1      -9.438   9.131  70.877  1.00  0.00    -0.343 C  
HETATM    2  C   UNL     1     -10.874   9.117  70.314  1.00  0.00    -0.246 C  
ENDROOT
BRANCH   2   3
HETATM    3  N   UNL     1     -11.533  10.437  70.610  1.00  0.00    -0.336 NA 
HETATM    4  C   UNL     1     -12.669  10.314  71.532  1.00  0.00    -0.452 C  
HETATM    5  C   UNL     1     -12.024  11.097  69.386  1.00  0.00    -0.349 C  
ENDBRANCH   2   3
BRANCH   2   6
HETATM    6  C   UNL     1     -11.639   7.863  70.891  1.00  0.00    -0.273 C  
BRANCH   6   7
HETATM    7  N   UNL     1     -10.923   6.563  70.663  1.00  0.00    -0.267 NA 
HETATM    8  C   UNL     1     -10.464   5.868  71.835  1.00  0.00    -0.220 A  
HETATM    9  C   UNL     1     -10.693   6.345  73.145  1.00  0.00    -0.294 A  
HETATM   10  C   UNL     1     -10.227   5.686  74.293  1.00  0.00    -0.293 A  
HETATM   11  C   UNL     1      -9.515   4.505  74.175  1.00  0.00    -0.129 A  
HETATM   12  C   UNL     1      -9.278   3.995  72.909  1.00  0.00    -0.130 A  
HETATM   13  C   UNL     1      -9.741   4.659  71.753  1.00  0.00    -0.169 A  
HETATM   14  S   UNL     1      -9.330   3.843  70.236  1.00  0.00    -0.183 SA 
HETATM   15  C   UNL     1     -10.009   4.936  69.020  1.00  0.00    -0.167 A  
HETATM   16  C   UNL     1      -9.816   4.501  67.689  1.00  0.00    -0.181 A  
HETATM   17  C   UNL     1     -10.299   5.232  66.616  1.00  0.00    -0.330 A  
HETATM   18  C   UNL     1     -10.969   6.415  66.866  1.00  0.00    -0.413 A  
HETATM   19  C   UNL     1     -11.148   6.860  68.190  1.00  0.00    -0.165 A  
HETATM   20  C   UNL     1     -10.694   6.135  69.317  1.00  0.00    -0.318 A  
ENDBRANCH   6   7
ENDBRANCH   2   6
TORSDOF 3
ENDMDL
MODEL       94
REMARK 921   NORMALIZED FREE ENERGY PREDICTED BY IDOCK:   -4.18 KCAL/MOL
REMARK 922        TOTAL FREE ENERGY PREDICTED BY IDOCK:   -5.28 KCAL/MOL
REMARK 923 INTER-LIGAND FREE ENERGY PREDICTED BY IDOCK:   -4.90 KCAL/MOL
REMARK 924 INTRA-LIGAND FREE ENERGY PREDICTED BY IDOCK:   -0.39 KCAL/MOL
REMARK 927      BINDING AFFINITY PREDICTED BY RF-SCORE:    0.00 PKD
ROOT
HETATM    1  C   UNL     1      -8.605   9.113  65.580  1.00  0.00    -0.192 C  
HETATM    2  C   UNL     1      -8.779   8.390  66.931  1.00  0.00    -0.130 C  
ENDROOT
BRANCH   2   3
HETATM    3  N   UNL     1      -7.918   7.155  66.944  1.00  0.00    -0.113 NA 
HETATM    4  C   UNL     1      -6.828   7.229  67.924  1.00  0.00    -0.070 C  
HETATM    5  C   UNL     1      -7.312   6.890  65.626  1.00  0.00    -0.079 C  
ENDBRANCH   2   3
BRANCH   2   6
HETATM    6  C   UNL     1     -10.314   8.115  67.173  1.00  0.00    -0.321 C  
BRANCH   6   7
HETATM    7  N   UNL     1     -10.774   8.454  68.561  1.00  0.00    -0.090 NA 
HETATM    8  C   UNL     1     -11.187   9.813  68.787  1.00  0.00    -0.020 A  
HETATM    9  C   UNL     1     -11.200  10.789  67.765  1.00  0.00    -0.385 A  
HETATM   10  C   UNL     1     -11.578  12.122  67.982  1.00  0.00    -0.411 A  
HETATM   11  C   UNL     1     -11.971  12.536  69.243  1.00  0.00    -0.304 A  
HETATM   12  C   UNL     1     -11.983  11.610  70.274  1.00  0.00    -0.445 A  
HETATM   13  C   UNL     1     -11.599  10.269  70.058  1.00  0.00    -0.276 A  
HETATM   14  S   UNL     1     -11.684   9.250  71.503  1.00  0.00    -0.404 SA 
HETATM   15  C   UNL     1     -11.112   7.687  70.902  1.00  0.00    -0.263 A  
HETATM   16  C   UNL     1     -11.087   6.671  71.885  1.00  0.00    -0.289 A  
HETATM   17  C   UNL     1     -10.679   5.383  71.578  1.00  0.00    -0.262 A  
HETATM   18  C   UNL     1     -10.280   5.104  70.284  1.00  0.00    -0.342 A  
HETATM   19  C   UNL     1     -10.288   6.118  69.307  1.00  0.00    -0.276 A  
HETATM   20  C   UNL     1     -10.718   7.440  69.568  1.00  0.00    -0.224 A  
ENDBRANCH   6   7
ENDBRANCH   2   6
TORSDOF 3
ENDMDL
MODEL       95
REMARK 921   NORMALIZED FREE ENERGY PREDICTED BY IDOCK:   -4.11 KCAL/MOL
REMARK 922        TOTAL FREE ENERGY PREDICTED BY IDOCK:   -5.20 KCAL/MOL
REMARK 923 INTER-LIGAND FREE ENERGY PREDICTED BY IDOCK:   -4.91 KCAL/MOL
REMARK 924 INTRA-LIGAND FREE ENERGY PREDICTED BY IDOCK:   -0.28 KCAL/MOL
REMARK 927      BINDING AFFINITY PREDICTED BY RF-SCORE:    0.00 PKD
ROOT
HETATM    1  C   UNL     1      -8.164   7.654  67.904  1.00  0.00    -0.123 C  
HETATM    2  C   UNL     1      -8.806   8.988  67.472  1.00  0.00    -0.123 C  
ENDROOT
BRANCH   2   3
HETATM    3  N   UNL     1      -8.229   9.408  66.147  1.00  0.00    -0.110 NA 
HETATM    4  C   UNL     1      -7.353  10.581  66.251  1.00  0.00    -0.133 C  
HETATM    5  C   UNL     1      -9.279   9.723  65.162  1.00  0.00    -0.240 C  
ENDBRANCH   2   3
BRANCH   2   6
HETATM    6  C   UNL     1      -8.618  10.047  68.628  1.00  0.00    -0.123 C  
BRANCH   6   7
HETATM    7  N   UNL     1      -9.912  10.573  69.178  1.00  0.00    -0.214 NA 
HETATM    8  C   UNL     1     -10.388  11.812  68.626  1.00  0.00    -0.214 A  
HETATM    9  C   UNL     1      -9.710  12.501  67.595  1.00  0.00    -0.196 A  
HETATM   10  C   UNL     1     -10.155  13.723  67.067  1.00  0.00    -0.256 A  
HETATM   11  C   UNL     1     -11.313  14.307  67.549  1.00  0.00    -0.346 A  
HETATM   12  C   UNL     1     -12.017  13.660  68.553  1.00  0.00    -0.396 A  
HETATM   13  C   UNL     1     -11.568  12.433  69.088  1.00  0.00    -0.314 A  
HETATM   14  S   UNL     1     -12.608  11.776  70.362  1.00  0.00    -0.037 SA 
HETATM   15  C   UNL     1     -11.755  10.296  70.825  1.00  0.00    -0.360 A  
HETATM   16  C   UNL     1     -12.395   9.563  71.849  1.00  0.00    -0.450 A  
HETATM   17  C   UNL     1     -11.868   8.371  72.319  1.00  0.00    -0.456 A  
HETATM   18  C   UNL     1     -10.685   7.909  71.775  1.00  0.00    -0.281 A  
HETATM   19  C   UNL     1     -10.034   8.646  70.766  1.00  0.00    -0.241 A  
HETATM   20  C   UNL     1     -10.547   9.854  70.239  1.00  0.00    -0.301 A  
ENDBRANCH   6   7
ENDBRANCH   2   6
TORSDOF 3
ENDMDL
MODEL       96
REMARK 921   NORMALIZED FREE ENERGY PREDICTED BY IDOCK:   -4.11 KCAL/MOL
REMARK 922        TOTAL FREE ENERGY PREDICTED BY IDOCK:   -5.19 KCAL/MOL
REMARK 923 INTER-LIGAND FREE ENERGY PREDICTED BY IDOCK:   -5.23 KCAL/MOL
REMARK 924 INTRA-LIGAND FREE ENERGY PREDICTED BY IDOCK:    0.04 KCAL/MOL
REMARK 927      BINDING AFFINITY PREDICTED BY RF-SCORE:    0.00 PKD
ROOT
HETATM    1  C   UNL     1     -10.965  11.210  66.326  1.00  0.00    -0.227 C  
HETATM    2  C   UNL     1     -11.488  12.527  66.933  1.00  0.00    -0.353 C  
ENDROOT
BRANCH   2   3
HETATM    3  N   UNL     1     -11.464  13.600  65.878  1.00  0.00    -0.310 NA 
HETATM    4  C   UNL     1     -12.783  13.846  65.283  1.00  0.00    -0.449 C  
HETATM    5  C   UNL     1     -10.535  13.275  64.780  1.00  0.00    -0.384 C  
ENDBRANCH   2   3
BRANCH   2   6
HETATM    6  C   UNL     1     -10.649  12.866  68.226  1.00  0.00    -0.246 C  
BRANCH   6   7
HETATM    7  N   UNL     1     -10.024  11.663  68.871  1.00  0.00    -0.126 NA 
HETATM    8  C   UNL     1     -10.838  10.944  69.813  1.00  0.00    -0.187 A  
HETATM    9  C   UNL     1     -12.171  11.309  70.108  1.00  0.00    -0.410 A  
HETATM   10  C   UNL     1     -12.964  10.626  71.044  1.00  0.00    -0.456 A  
HETATM   11  C   UNL     1     -12.452   9.534  71.722  1.00  0.00    -0.484 A  
HETATM   12  C   UNL     1     -11.152   9.134  71.455  1.00  0.00    -0.436 A  
HETATM   13  C   UNL     1     -10.352   9.822  70.518  1.00  0.00    -0.283 A  
HETATM   14  S   UNL     1      -8.725   9.152  70.327  1.00  0.00    -0.220 SA 
HETATM   15  C   UNL     1      -7.998  10.247  69.141  1.00  0.00    -0.135 A  
HETATM   16  C   UNL     1      -6.665   9.921  68.803  1.00  0.00    -0.050 A  
HETATM   17  C   UNL     1      -5.954  10.668  67.877  1.00  0.00    -0.043 A  
HETATM   18  C   UNL     1      -6.570  11.758  67.291  1.00  0.00    -0.132 A  
HETATM   19  C   UNL     1      -7.892  12.095  67.638  1.00  0.00    -0.153 A  
HETATM   20  C   UNL     1      -8.664  11.349  68.559  1.00  0.00    -0.149 A  
ENDBRANCH   6   7
ENDBRANCH   2   6
TORSDOF 3
ENDMDL
MODEL       97
REMARK 921   NORMALIZED FREE ENERGY PREDICTED BY IDOCK:   -4.10 KCAL/MOL
REMARK 922        TOTAL FREE ENERGY PREDICTED BY IDOCK:   -5.18 KCAL/MOL
REMARK 923 INTER-LIGAND FREE ENERGY PREDICTED BY IDOCK:   -5.21 KCAL/MOL
REMARK 924 INTRA-LIGAND FREE ENERGY PREDICTED BY IDOCK:    0.03 KCAL/MOL
REMARK 927      BINDING AFFINITY PREDICTED BY RF-SCORE:    0.00 PKD
ROOT
HETATM    1  C   UNL     1     -11.264  12.148  69.318  1.00  0.00    -0.288 C  
HETATM    2  C   UNL     1     -10.769  10.757  68.872  1.00  0.00    -0.222 C  
ENDROOT
BRANCH   2   3
HETATM    3  N   UNL     1     -10.123  10.065  70.042  1.00  0.00    -0.253 NA 
HETATM    4  C   UNL     1      -9.365   8.870  69.651  1.00  0.00    -0.163 C  
HETATM    5  C   UNL     1     -11.112   9.651  71.054  1.00  0.00    -0.368 C  
ENDBRANCH   2   3
BRANCH   2   6
HETATM    6  C   UNL     1      -9.829  10.925  67.615  1.00  0.00    -0.171 C  
BRANCH   6   7
HETATM    7  N   UNL     1      -9.581  12.356  67.236  1.00  0.00    -0.196 NA 
HETATM    8  C   UNL     1     -10.510  12.946  66.311  1.00  0.00    -0.270 A  
HETATM    9  C   UNL     1     -11.626  12.248  65.797  1.00  0.00    -0.443 A  
HETATM   10  C   UNL     1     -12.524  12.808  64.875  1.00  0.00    -0.563 A  
HETATM   11  C   UNL     1     -12.344  14.107  64.433  1.00  0.00    -0.410 A  
HETATM   12  C   UNL     1     -11.269  14.833  64.919  1.00  0.00    -0.411 A  
HETATM   13  C   UNL     1     -10.362  14.270  65.843  1.00  0.00    -0.314 A  
HETATM   14  S   UNL     1      -9.059  15.362  66.336  1.00  0.00    -0.321 SA 
HETATM   15  C   UNL     1      -8.109  14.351  67.435  1.00  0.00    -0.199 A  
HETATM   16  C   UNL     1      -6.983  15.005  67.985  1.00  0.00    -0.147 A  
HETATM   17  C   UNL     1      -6.141  14.361  68.877  1.00  0.00    -0.087 A  
HETATM   18  C   UNL     1      -6.413  13.049  69.216  1.00  0.00    -0.103 A  
HETATM   19  C   UNL     1      -7.524  12.388  68.657  1.00  0.00    -0.095 A  
HETATM   20  C   UNL     1      -8.424  13.013  67.762  1.00  0.00    -0.188 A  
ENDBRANCH   6   7
ENDBRANCH   2   6
TORSDOF 3
ENDMDL
MODEL       98
REMARK 921   NORMALIZED FREE ENERGY PREDICTED BY IDOCK:   -4.09 KCAL/MOL
REMARK 922        TOTAL FREE ENERGY PREDICTED BY IDOCK:   -5.17 KCAL/MOL
REMARK 923 INTER-LIGAND FREE ENERGY PREDICTED BY IDOCK:   -4.76 KCAL/MOL
REMARK 924 INTRA-LIGAND FREE ENERGY PREDICTED BY IDOCK:   -0.41 KCAL/MOL
REMARK 927      BINDING AFFINITY PREDICTED BY RF-SCORE:    0.00 PKD
ROOT
HETATM    1  C   UNL     1      -8.619   5.960  65.473  1.00  0.00    -0.150 C  
HETATM    2  C   UNL     1      -8.887   6.233  66.966  1.00  0.00    -0.108 C  
ENDROOT
BRANCH   2   3
HETATM    3  N   UNL     1      -8.519   5.011  67.765  1.00  0.00    -0.104 NA 
HETATM    4  C   UNL     1      -7.218   4.449  67.382  1.00  0.00    -0.069 C  
HETATM    5  C   UNL     1      -9.523   3.940  67.632  1.00  0.00    -0.185 C  
ENDBRANCH   2   3
BRANCH   2   6
HETATM    6  C   UNL     1     -10.385   6.698  67.143  1.00  0.00    -0.252 C  
BRANCH   6   7
HETATM    7  N   UNL     1     -10.537   7.932  67.985  1.00  0.00    -0.174 NA 
HETATM    8  C   UNL     1     -10.862   7.728  69.371  1.00  0.00    -0.113 A  
HETATM    9  C   UNL     1     -11.002   6.444  69.943  1.00  0.00    -0.410 A  
HETATM   10  C   UNL     1     -11.343   6.237  71.288  1.00  0.00    -0.356 A  
HETATM   11  C   UNL     1     -11.550   7.318  72.126  1.00  0.00    -0.324 A  
HETATM   12  C   UNL     1     -11.411   8.597  71.610  1.00  0.00    -0.375 A  
HETATM   13  C   UNL     1     -11.074   8.807  70.256  1.00  0.00    -0.222 A  
HETATM   14  S   UNL     1     -10.949  10.512  69.798  1.00  0.00    -0.297 SA 
HETATM   15  C   UNL     1     -10.562  10.417  68.073  1.00  0.00    -0.221 A  
HETATM   16  C   UNL     1     -10.402  11.676  67.452  1.00  0.00    -0.231 A  
HETATM   17  C   UNL     1     -10.082  11.780  66.108  1.00  0.00    -0.255 A  
HETATM   18  C   UNL     1      -9.932  10.621  65.370  1.00  0.00    -0.343 A  
HETATM   19  C   UNL     1     -10.108   9.365  65.981  1.00  0.00    -0.302 A  
HETATM   20  C   UNL     1     -10.411   9.210  67.354  1.00  0.00    -0.271 A  
ENDBRANCH   6   7
ENDBRANCH   2   6
TORSDOF 3
ENDMDL
MODEL       99
REMARK 921   NORMALIZED FREE ENERGY PREDICTED BY IDOCK:   -4.07 KCAL/MOL
REMARK 922        TOTAL FREE ENERGY PREDICTED BY IDOCK:   -5.15 KCAL/MOL
REMARK 923 INTER-LIGAND FREE ENERGY PREDICTED BY IDOCK:   -4.90 KCAL/MOL
REMARK 924 INTRA-LIGAND FREE ENERGY PREDICTED BY IDOCK:   -0.25 KCAL/MOL
REMARK 927      BINDING AFFINITY PREDICTED BY RF-SCORE:    0.00 PKD
ROOT
HETATM    1  C   UNL     1     -11.818  12.263  67.930  1.00  0.00    -0.358 C  
HETATM    2  C   UNL     1     -11.709  11.668  69.348  1.00  0.00    -0.340 C  
ENDROOT
BRANCH   2   3
HETATM    3  N   UNL     1     -12.006  12.743  70.359  1.00  0.00    -0.307 NA 
HETATM    4  C   UNL     1     -13.119  12.396  71.251  1.00  0.00    -0.126 C  
HETATM    5  C   UNL     1     -12.336  14.029  69.717  1.00  0.00    -0.291 C  
ENDBRANCH   2   3
BRANCH   2   6
HETATM    6  C   UNL     1     -10.292  10.993  69.514  1.00  0.00    -0.040 C  
BRANCH   6   7
HETATM    7  N   UNL     1     -10.275   9.534  69.157  1.00  0.00    -0.193 NA 
HETATM    8  C   UNL     1     -10.835   8.629  70.124  1.00  0.00    -0.233 A  
HETATM    9  C   UNL     1     -11.409   9.067  71.338  1.00  0.00    -0.394 A  
HETATM   10  C   UNL     1     -11.936   8.188  72.298  1.00  0.00    -0.434 A  
HETATM   11  C   UNL     1     -11.918   6.823  72.073  1.00  0.00    -0.355 A  
HETATM   12  C   UNL     1     -11.374   6.350  70.889  1.00  0.00    -0.398 A  
HETATM   13  C   UNL     1     -10.839   7.232  69.926  1.00  0.00    -0.247 A  
HETATM   14  S   UNL     1     -10.193   6.426  68.488  1.00  0.00    -0.194 SA 
HETATM   15  C   UNL     1      -9.583   7.784  67.531  1.00  0.00    -0.148 A  
HETATM   16  C   UNL     1      -9.005   7.403  66.299  1.00  0.00    -0.192 A  
HETATM   17  C   UNL     1      -8.493   8.345  65.422  1.00  0.00    -0.193 A  
HETATM   18  C   UNL     1      -8.543   9.680  65.778  1.00  0.00    -0.149 A  
HETATM   19  C   UNL     1      -9.103  10.062  67.012  1.00  0.00    -0.159 A  
HETATM   20  C   UNL     1      -9.659   9.138  67.928  1.00  0.00    -0.146 A  
ENDBRANCH   6   7
ENDBRANCH   2   6
TORSDOF 3
ENDMDL
MODEL      100
REMARK 921   NORMALIZED FREE ENERGY PREDICTED BY IDOCK:   -4.04 KCAL/MOL
REMARK 922        TOTAL FREE ENERGY PREDICTED BY IDOCK:   -5.11 KCAL/MOL
REMARK 923 INTER-LIGAND FREE ENERGY PREDICTED BY IDOCK:   -4.75 KCAL/MOL
REMARK 924 INTRA-LIGAND FREE ENERGY PREDICTED BY IDOCK:   -0.36 KCAL/MOL
REMARK 927      BINDING AFFINITY PREDICTED BY RF-SCORE:    0.00 PKD
ROOT
HETATM    1  C   UNL     1      -7.713  10.158  65.912  1.00  0.00    -0.127 C  
HETATM    2  C   UNL     1      -7.568  11.378  66.844  1.00  0.00    -0.151 C  
ENDROOT
BRANCH   2   3
HETATM    3  N   UNL     1      -6.532  11.077  67.894  1.00  0.00    -0.061 NA 
HETATM    4  C   UNL     1      -7.097  10.995  69.246  1.00  0.00    -0.123 C  
HETATM    5  C   UNL     1      -5.461  12.090  67.920  1.00  0.00    -0.060 C  
ENDBRANCH   2   3
BRANCH   2   6
HETATM    6  C   UNL     1      -8.987  11.757  67.420  1.00  0.00    -0.173 C  
BRANCH   6   7
HETATM    7  N   UNL     1      -9.546  13.031  66.856  1.00  0.00    -0.236 NA 
HETATM    8  C   UNL     1     -10.445  12.901  65.742  1.00  0.00    -0.278 A  
HETATM    9  C   UNL     1     -10.826  11.650  65.208  1.00  0.00    -0.340 A  
HETATM   10  C   UNL     1     -11.683  11.515  64.105  1.00  0.00    -0.197 A  
HETATM   11  C   UNL     1     -12.207  12.639  63.492  1.00  0.00    -0.638 A  
HETATM   12  C   UNL     1     -11.869  13.888  63.990  1.00  0.00    -0.372 A  
HETATM   13  C   UNL     1     -11.002  14.025  65.096  1.00  0.00    -0.353 A  
HETATM   14  S   UNL     1     -10.697  15.703  65.571  1.00  0.00    -0.389 SA 
HETATM   15  C   UNL     1      -9.572  15.517  66.925  1.00  0.00    -0.228 A  
HETATM   16  C   UNL     1      -9.165  16.741  67.503  1.00  0.00    -0.215 A  
HETATM   17  C   UNL     1      -8.297  16.773  68.582  1.00  0.00    -0.252 A  
HETATM   18  C   UNL     1      -7.819  15.578  69.085  1.00  0.00    -0.215 A  
HETATM   19  C   UNL     1      -8.209  14.358  68.501  1.00  0.00    -0.151 A  
HETATM   20  C   UNL     1      -9.110  14.275  67.414  1.00  0.00    -0.196 A  
ENDBRANCH   6   7
ENDBRANCH   2   6
TORSDOF 3
ENDMDL
MODEL      101
REMARK 921   NORMALIZED FREE ENERGY PREDICTED BY IDOCK:   -4.02 KCAL/MOL
REMARK 922        TOTAL FREE ENERGY PREDICTED BY IDOCK:   -5.09 KCAL/MOL
REMARK 923 INTER-LIGAND FREE ENERGY PREDICTED BY IDOCK:   -4.71 KCAL/MOL
REMARK 924 INTRA-LIGAND FREE ENERGY PREDICTED BY IDOCK:   -0.37 KCAL/MOL
REMARK 927      BINDING AFFINITY PREDICTED BY RF-SCORE:    0.00 PKD
ROOT
HETATM    1  C   UNL     1      -9.720   8.795  66.375  1.00  0.00    -0.335 C  
HETATM    2  C   UNL     1     -10.213  10.129  65.778  1.00  0.00    -0.213 C  
ENDROOT
BRANCH   2   3
HETATM    3  N   UNL     1      -9.175  10.656  64.824  1.00  0.00    -0.207 NA 
HETATM    4  C   UNL     1      -9.527  10.434  63.417  1.00  0.00    -0.315 C  
HETATM    5  C   UNL     1      -7.853  10.045  65.053  1.00  0.00    -0.137 C  
ENDBRANCH   2   3
BRANCH   2   6
HETATM    6  C   UNL     1     -10.577  11.116  66.954  1.00  0.00    -0.258 C  
BRANCH   6   7
HETATM    7  N   UNL     1      -9.777  12.386  66.943  1.00  0.00    -0.210 NA 
HETATM    8  C   UNL     1      -8.595  12.408  67.762  1.00  0.00    -0.172 A  
HETATM    9  C   UNL     1      -8.168  11.295  68.520  1.00  0.00    -0.150 A  
HETATM   10  C   UNL     1      -7.030  11.316  69.340  1.00  0.00    -0.109 A  
HETATM   11  C   UNL     1      -6.259  12.461  69.428  1.00  0.00    -0.114 A  
HETATM   12  C   UNL     1      -6.634  13.575  68.693  1.00  0.00    -0.098 A  
HETATM   13  C   UNL     1      -7.782  13.557  67.871  1.00  0.00    -0.153 A  
HETATM   14  S   UNL     1      -8.085  15.079  67.020  1.00  0.00    -0.131 SA 
HETATM   15  C   UNL     1      -9.579  14.730  66.137  1.00  0.00    -0.309 A  
HETATM   16  C   UNL     1     -10.046  15.810  65.354  1.00  0.00    -0.337 A  
HETATM   17  C   UNL     1     -11.195  15.700  64.587  1.00  0.00    -0.380 A  
HETATM   18  C   UNL     1     -11.895  14.508  64.609  1.00  0.00    -0.462 A  
HETATM   19  C   UNL     1     -11.442  13.435  65.402  1.00  0.00    -0.322 A  
HETATM   20  C   UNL     1     -10.263  13.494  66.181  1.00  0.00    -0.302 A  
ENDBRANCH   6   7
ENDBRANCH   2   6
TORSDOF 3
ENDMDL
MODEL      102
REMARK 921   NORMALIZED FREE ENERGY PREDICTED BY IDOCK:   -4.01 KCAL/MOL
REMARK 922        TOTAL FREE ENERGY PREDICTED BY IDOCK:   -5.08 KCAL/MOL
REMARK 923 INTER-LIGAND FREE ENERGY PREDICTED BY IDOCK:   -4.73 KCAL/MOL
REMARK 924 INTRA-LIGAND FREE ENERGY PREDICTED BY IDOCK:   -0.35 KCAL/MOL
REMARK 927      BINDING AFFINITY PREDICTED BY RF-SCORE:    0.00 PKD
ROOT
HETATM    1  C   UNL     1      -8.561  11.035  67.436  1.00  0.00    -0.132 C  
HETATM    2  C   UNL     1      -9.243  10.185  68.527  1.00  0.00    -0.144 C  
ENDROOT
BRANCH   2   3
HETATM    3  N   UNL     1      -8.690   8.786  68.481  1.00  0.00    -0.134 NA 
HETATM    4  C   UNL     1      -9.574   7.845  67.783  1.00  0.00    -0.147 C  
HETATM    5  C   UNL     1      -8.442   8.246  69.831  1.00  0.00    -0.127 C  
ENDBRANCH   2   3
BRANCH   2   6
HETATM    6  C   UNL     1     -10.809  10.272  68.342  1.00  0.00    -0.245 C  
BRANCH   6   7
HETATM    7  N   UNL     1     -11.513  10.951  69.481  1.00  0.00    -0.273 NA 
HETATM    8  C   UNL     1     -12.001  10.100  70.533  1.00  0.00    -0.311 A  
HETATM    9  C   UNL     1     -11.811   8.700  70.535  1.00  0.00    -0.031 A  
HETATM   10  C   UNL     1     -12.305   7.861  71.545  1.00  0.00    -0.340 A  
HETATM   11  C   UNL     1     -13.008   8.395  72.610  1.00  0.00    -0.146 A  
HETATM   12  C   UNL     1     -13.209   9.766  72.654  1.00  0.00    -0.044 A  
HETATM   13  C   UNL     1     -12.716  10.611  71.637  1.00  0.00    -0.426 A  
HETATM   14  S   UNL     1     -13.081  12.326  71.882  1.00  0.00    -0.251 SA 
HETATM   15  C   UNL     1     -12.374  13.076  70.443  1.00  0.00    -0.277 A  
HETATM   16  C   UNL     1     -12.529  14.480  70.394  1.00  0.00    -0.407 A  
HETATM   17  C   UNL     1     -12.020  15.224  69.343  1.00  0.00    -0.342 A  
HETATM   18  C   UNL     1     -11.362  14.565  68.321  1.00  0.00    -0.319 A  
HETATM   19  C   UNL     1     -11.221  13.165  68.357  1.00  0.00    -0.305 A  
HETATM   20  C   UNL     1     -11.703  12.367  69.421  1.00  0.00    -0.322 A  
ENDBRANCH   6   7
ENDBRANCH   2   6
TORSDOF 3
ENDMDL
MODEL      103
REMARK 921   NORMALIZED FREE ENERGY PREDICTED BY IDOCK:   -4.01 KCAL/MOL
REMARK 922        TOTAL FREE ENERGY PREDICTED BY IDOCK:   -5.08 KCAL/MOL
REMARK 923 INTER-LIGAND FREE ENERGY PREDICTED BY IDOCK:   -4.72 KCAL/MOL
REMARK 924 INTRA-LIGAND FREE ENERGY PREDICTED BY IDOCK:   -0.36 KCAL/MOL
REMARK 927      BINDING AFFINITY PREDICTED BY RF-SCORE:    0.00 PKD
ROOT
HETATM    1  C   UNL     1      -7.894  10.461  65.496  1.00  0.00    -0.152 C  
HETATM    2  C   UNL     1      -8.669  11.568  66.239  1.00  0.00    -0.159 C  
ENDROOT
BRANCH   2   3
HETATM    3  N   UNL     1      -8.040  11.791  67.589  1.00  0.00    -0.136 NA 
HETATM    4  C   UNL     1      -7.455  13.129  67.732  1.00  0.00    -0.150 C  
HETATM    5  C   UNL     1      -6.977  10.808  67.872  1.00  0.00    -0.073 C  
ENDBRANCH   2   3
BRANCH   2   6
HETATM    6  C   UNL     1     -10.198  11.179  66.291  1.00  0.00    -0.239 C  
BRANCH   6   7
HETATM    7  N   UNL     1     -10.747  11.079  67.685  1.00  0.00    -0.220 NA 
HETATM    8  C   UNL     1     -11.201  12.304  68.286  1.00  0.00    -0.267 A  
HETATM    9  C   UNL     1     -11.174  13.544  67.609  1.00  0.00    -0.304 A  
HETATM   10  C   UNL     1     -11.592  14.748  68.197  1.00  0.00    -0.356 A  
HETATM   11  C   UNL     1     -12.068  14.758  69.496  1.00  0.00    -0.328 A  
HETATM   12  C   UNL     1     -12.122  13.561  70.194  1.00  0.00    -0.425 A  
HETATM   13  C   UNL     1     -11.697  12.350  69.606  1.00  0.00    -0.307 A  
HETATM   14  S   UNL     1     -11.847  10.940  70.666  1.00  0.00    -0.323 SA 
HETATM   15  C   UNL     1     -11.208   9.635  69.656  1.00  0.00    -0.141 A  
HETATM   16  C   UNL     1     -11.219   8.368  70.282  1.00  0.00    -0.175 A  
HETATM   17  C   UNL     1     -10.767   7.235  69.625  1.00  0.00    -0.249 A  
HETATM   18  C   UNL     1     -10.286   7.365  68.336  1.00  0.00    -0.207 A  
HETATM   19  C   UNL     1     -10.257   8.628  67.714  1.00  0.00    -0.282 A  
HETATM   20  C   UNL     1     -10.729   9.807  68.337  1.00  0.00    -0.221 A  
ENDBRANCH   6   7
ENDBRANCH   2   6
TORSDOF 3
ENDMDL
MODEL      104
REMARK 921   NORMALIZED FREE ENERGY PREDICTED BY IDOCK:   -3.99 KCAL/MOL
REMARK 922        TOTAL FREE ENERGY PREDICTED BY IDOCK:   -5.05 KCAL/MOL
REMARK 923 INTER-LIGAND FREE ENERGY PREDICTED BY IDOCK:   -4.64 KCAL/MOL
REMARK 924 INTRA-LIGAND FREE ENERGY PREDICTED BY IDOCK:   -0.42 KCAL/MOL
REMARK 927      BINDING AFFINITY PREDICTED BY RF-SCORE:    0.00 PKD
ROOT
HETATM    1  C   UNL     1     -11.094   4.933  72.953  1.00  0.00    -0.329 C  
HETATM    2  C   UNL     1     -10.325   5.471  71.730  1.00  0.00    -0.216 C  
ENDROOT
BRANCH   2   3
HETATM    3  N   UNL     1      -9.458   4.376  71.171  1.00  0.00    -0.148 NA 
HETATM    4  C   UNL     1      -9.542   4.270  69.709  1.00  0.00    -0.209 C  
HETATM    5  C   UNL     1      -9.804   3.056  71.732  1.00  0.00    -0.160 C  
ENDBRANCH   2   3
BRANCH   2   6
HETATM    6  C   UNL     1      -9.538   6.774  72.150  1.00  0.00    -0.145 C  
BRANCH   6   7
HETATM    7  N   UNL     1      -9.725   7.922  71.201  1.00  0.00    -0.158 NA 
HETATM    8  C   UNL     1      -8.671   8.148  70.250  1.00  0.00    -0.133 A  
HETATM    9  C   UNL     1      -7.524   7.326  70.169  1.00  0.00    -0.088 A  
HETATM   10  C   UNL     1      -6.479   7.555  69.261  1.00  0.00    -0.039 A  
HETATM   11  C   UNL     1      -6.545   8.620  68.381  1.00  0.00    -0.060 A  
HETATM   12  C   UNL     1      -7.657   9.446  68.417  1.00  0.00    -0.082 A  
HETATM   13  C   UNL     1      -8.707   9.221  69.333  1.00  0.00    -0.148 A  
HETATM   14  S   UNL     1     -10.031  10.390  69.217  1.00  0.00    -0.219 SA 
HETATM   15  C   UNL     1     -11.128   9.852  70.499  1.00  0.00    -0.332 A  
HETATM   16  C   UNL     1     -12.298  10.636  70.617  1.00  0.00    -0.462 A  
HETATM   17  C   UNL     1     -13.269  10.342  71.561  1.00  0.00    -0.485 A  
HETATM   18  C   UNL     1     -13.069   9.265  72.405  1.00  0.00    -0.481 A  
HETATM   19  C   UNL     1     -11.897   8.492  72.301  1.00  0.00    -0.453 A  
HETATM   20  C   UNL     1     -10.890   8.741  71.338  1.00  0.00    -0.289 A  
ENDBRANCH   6   7
ENDBRANCH   2   6
TORSDOF 3
ENDMDL
MODEL      105
REMARK 921   NORMALIZED FREE ENERGY PREDICTED BY IDOCK:   -3.98 KCAL/MOL
REMARK 922        TOTAL FREE ENERGY PREDICTED BY IDOCK:   -5.04 KCAL/MOL
REMARK 923 INTER-LIGAND FREE ENERGY PREDICTED BY IDOCK:   -4.70 KCAL/MOL
REMARK 924 INTRA-LIGAND FREE ENERGY PREDICTED BY IDOCK:   -0.34 KCAL/MOL
REMARK 927      BINDING AFFINITY PREDICTED BY RF-SCORE:    0.00 PKD
ROOT
HETATM    1  C   UNL     1     -11.395   5.033  73.075  1.00  0.00    -0.374 C  
HETATM    2  C   UNL     1     -10.538   5.559  71.907  1.00  0.00    -0.234 C  
ENDROOT
BRANCH   2   3
HETATM    3  N   UNL     1      -9.623   4.462  71.432  1.00  0.00    -0.155 NA 
HETATM    4  C   UNL     1      -9.784   4.163  70.004  1.00  0.00    -0.212 C  
HETATM    5  C   UNL     1      -9.835   3.206  72.176  1.00  0.00    -0.168 C  
ENDBRANCH   2   3
BRANCH   2   6
HETATM    6  C   UNL     1      -9.793   6.873  72.367  1.00  0.00    -0.157 C  
BRANCH   6   7
HETATM    7  N   UNL     1      -9.787   7.956  71.327  1.00  0.00    -0.167 NA 
HETATM    8  C   UNL     1     -10.898   8.868  71.343  1.00  0.00    -0.307 A  
HETATM    9  C   UNL     1     -11.937   8.792  72.297  1.00  0.00    -0.415 A  
HETATM   10  C   UNL     1     -13.037   9.663  72.305  1.00  0.00    -0.468 A  
HETATM   11  C   UNL     1     -13.139  10.662  71.353  1.00  0.00    -0.499 A  
HETATM   12  C   UNL     1     -12.135  10.781  70.404  1.00  0.00    -0.443 A  
HETATM   13  C   UNL     1     -11.030   9.903  70.392  1.00  0.00    -0.318 A  
HETATM   14  S   UNL     1      -9.866  10.224  69.098  1.00  0.00    -0.225 SA 
HETATM   15  C   UNL     1      -8.661   8.950  69.345  1.00  0.00    -0.142 A  
HETATM   16  C   UNL     1      -7.593   8.986  68.420  1.00  0.00    -0.090 A  
HETATM   17  C   UNL     1      -6.556   8.069  68.482  1.00  0.00    -0.058 A  
HETATM   18  C   UNL     1      -6.588   7.097  69.465  1.00  0.00    -0.044 A  
HETATM   19  C   UNL     1      -7.660   7.048  70.377  1.00  0.00    -0.090 A  
HETATM   20  C   UNL     1      -8.727   7.977  70.367  1.00  0.00    -0.136 A  
ENDBRANCH   6   7
ENDBRANCH   2   6
TORSDOF 3
ENDMDL
MODEL      106
REMARK 921   NORMALIZED FREE ENERGY PREDICTED BY IDOCK:   -3.96 KCAL/MOL
REMARK 922        TOTAL FREE ENERGY PREDICTED BY IDOCK:   -5.02 KCAL/MOL
REMARK 923 INTER-LIGAND FREE ENERGY PREDICTED BY IDOCK:   -4.74 KCAL/MOL
REMARK 924 INTRA-LIGAND FREE ENERGY PREDICTED BY IDOCK:   -0.28 KCAL/MOL
REMARK 927      BINDING AFFINITY PREDICTED BY RF-SCORE:    0.00 PKD
ROOT
HETATM    1  C   UNL     1     -12.058   6.966  71.844  1.00  0.00    -0.370 C  
HETATM    2  C   UNL     1     -10.877   6.242  71.168  1.00  0.00    -0.266 C  
ENDROOT
BRANCH   2   3
HETATM    3  N   UNL     1     -10.438   5.094  72.037  1.00  0.00    -0.216 NA 
HETATM    4  C   UNL     1     -11.249   4.956  73.253  1.00  0.00    -0.345 C  
HETATM    5  C   UNL     1      -9.030   5.224  72.454  1.00  0.00    -0.131 C  
ENDBRANCH   2   3
BRANCH   2   6
HETATM    6  C   UNL     1      -9.742   7.292  70.854  1.00  0.00    -0.170 C  
BRANCH   6   7
HETATM    7  N   UNL     1      -9.791   7.833  69.454  1.00  0.00    -0.173 NA 
HETATM    8  C   UNL     1     -10.419   9.115  69.283  1.00  0.00    -0.221 A  
HETATM    9  C   UNL     1     -10.939   9.863  70.362  1.00  0.00    -0.379 A  
HETATM   10  C   UNL     1     -11.575  11.103  70.200  1.00  0.00    -0.410 A  
HETATM   11  C   UNL     1     -11.709  11.655  68.939  1.00  0.00    -0.397 A  
HETATM   12  C   UNL     1     -11.202  10.961  67.851  1.00  0.00    -0.387 A  
HETATM   13  C   UNL     1     -10.567   9.711  68.012  1.00  0.00    -0.243 A  
HETATM   14  S   UNL     1      -9.994   8.991  66.499  1.00  0.00    -0.281 SA 
HETATM   15  C   UNL     1      -9.303   7.456  67.045  1.00  0.00    -0.149 A  
HETATM   16  C   UNL     1      -8.760   6.670  66.004  1.00  0.00    -0.155 A  
HETATM   17  C   UNL     1      -8.165   5.445  66.261  1.00  0.00    -0.110 A  
HETATM   18  C   UNL     1      -8.123   4.989  67.565  1.00  0.00    -0.099 A  
HETATM   19  C   UNL     1      -8.679   5.761  68.603  1.00  0.00    -0.108 A  
HETATM   20  C   UNL     1      -9.274   7.027  68.391  1.00  0.00    -0.129 A  
ENDBRANCH   6   7
ENDBRANCH   2   6
TORSDOF 3
ENDMDL
MODEL      107
REMARK 921   NORMALIZED FREE ENERGY PREDICTED BY IDOCK:   -3.93 KCAL/MOL
REMARK 922        TOTAL FREE ENERGY PREDICTED BY IDOCK:   -4.99 KCAL/MOL
REMARK 923 INTER-LIGAND FREE ENERGY PREDICTED BY IDOCK:   -4.68 KCAL/MOL
REMARK 924 INTRA-LIGAND FREE ENERGY PREDICTED BY IDOCK:   -0.31 KCAL/MOL
REMARK 927      BINDING AFFINITY PREDICTED BY RF-SCORE:    0.00 PKD
ROOT
HETATM    1  C   UNL     1      -9.314  14.319  66.534  1.00  0.00    -0.292 C  
HETATM    2  C   UNL     1      -8.954  15.755  66.964  1.00  0.00    -0.224 C  
ENDROOT
BRANCH   2   3
HETATM    3  N   UNL     1      -9.848  16.726  66.239  1.00  0.00    -0.294 NA 
HETATM    4  C   UNL     1     -10.654  17.548  67.149  1.00  0.00    -0.264 C  
HETATM    5  C   UNL     1     -10.775  16.042  65.319  1.00  0.00    -0.399 C  
ENDBRANCH   2   3
BRANCH   2   6
HETATM    6  C   UNL     1      -7.411  15.992  66.728  1.00  0.00    -0.183 C  
BRANCH   6   7
HETATM    7  N   UNL     1      -6.767  16.851  67.777  1.00  0.00    -0.140 NA 
HETATM    8  C   UNL     1      -6.244  16.171  68.931  1.00  0.00    -0.132 A  
HETATM    9  C   UNL     1      -6.291  14.767  69.079  1.00  0.00    -0.093 A  
HETATM   10  C   UNL     1      -5.804  14.098  70.213  1.00  0.00    -0.147 A  
HETATM   11  C   UNL     1      -5.237  14.815  71.251  1.00  0.00    -0.139 A  
HETATM   12  C   UNL     1      -5.160  16.195  71.144  1.00  0.00    -0.138 A  
HETATM   13  C   UNL     1      -5.653  16.869  70.006  1.00  0.00    -0.222 A  
HETATM   14  S   UNL     1      -5.460  18.628  70.068  1.00  0.00    -0.237 SA 
HETATM   15  C   UNL     1      -6.199  19.146  68.546  1.00  0.00    -0.236 A  
HETATM   16  C   UNL     1      -6.171  20.545  68.343  1.00  0.00    -0.359 A  
HETATM   17  C   UNL     1      -6.695  21.116  67.195  1.00  0.00    -0.411 A  
HETATM   18  C   UNL     1      -7.264  20.291  66.243  1.00  0.00    -0.302 A  
HETATM   19  C   UNL     1      -7.309  18.899  66.449  1.00  0.00    -0.267 A  
HETATM   20  C   UNL     1      -6.766  18.269  67.594  1.00  0.00    -0.197 A  
ENDBRANCH   6   7
ENDBRANCH   2   6
TORSDOF 3
ENDMDL
MODEL      108
REMARK 921   NORMALIZED FREE ENERGY PREDICTED BY IDOCK:   -3.93 KCAL/MOL
REMARK 922        TOTAL FREE ENERGY PREDICTED BY IDOCK:   -4.98 KCAL/MOL
REMARK 923 INTER-LIGAND FREE ENERGY PREDICTED BY IDOCK:   -4.77 KCAL/MOL
REMARK 924 INTRA-LIGAND FREE ENERGY PREDICTED BY IDOCK:   -0.22 KCAL/MOL
REMARK 927      BINDING AFFINITY PREDICTED BY RF-SCORE:    0.00 PKD
ROOT
HETATM    1  C   UNL     1     -12.865  12.797  65.114  1.00  0.00    -0.237 C  
HETATM    2  C   UNL     1     -12.422  14.106  65.799  1.00  0.00    -0.466 C  
ENDROOT
BRANCH   2   3
HETATM    3  N   UNL     1     -11.215  14.653  65.086  1.00  0.00    -0.355 NA 
HETATM    4  C   UNL     1     -11.491  15.907  64.376  1.00  0.00    -0.264 C  
HETATM    5  C   UNL     1     -10.674  13.696  64.103  1.00  0.00    -0.119 C  
ENDBRANCH   2   3
BRANCH   2   6
HETATM    6  C   UNL     1     -12.199  13.830  67.337  1.00  0.00    -0.254 C  
BRANCH   6   7
HETATM    7  N   UNL     1     -10.755  13.848  67.749  1.00  0.00    -0.244 NA 
HETATM    8  C   UNL     1     -10.199  15.131  68.085  1.00  0.00    -0.227 A  
HETATM    9  C   UNL     1     -10.958  16.322  68.070  1.00  0.00    -0.328 A  
HETATM   10  C   UNL     1     -10.417  17.581  68.373  1.00  0.00    -0.372 A  
HETATM   11  C   UNL     1      -9.082  17.698  68.716  1.00  0.00    -0.206 A  
HETATM   12  C   UNL     1      -8.301  16.553  68.754  1.00  0.00    -0.248 A  
HETATM   13  C   UNL     1      -8.843  15.287  68.445  1.00  0.00    -0.179 A  
HETATM   14  S   UNL     1      -7.679  13.957  68.551  1.00  0.00    -0.134 SA 
HETATM   15  C   UNL     1      -8.654  12.559  68.075  1.00  0.00    -0.185 A  
HETATM   16  C   UNL     1      -7.944  11.337  68.081  1.00  0.00    -0.131 A  
HETATM   17  C   UNL     1      -8.562  10.143  67.748  1.00  0.00    -0.118 A  
HETATM   18  C   UNL     1      -9.898  10.164  67.392  1.00  0.00    -0.225 A  
HETATM   19  C   UNL     1     -10.604  11.382  67.369  1.00  0.00    -0.257 A  
HETATM   20  C   UNL     1     -10.021  12.621  67.723  1.00  0.00    -0.218 A  
ENDBRANCH   6   7
ENDBRANCH   2   6
TORSDOF 3
ENDMDL
MODEL      109
REMARK 921   NORMALIZED FREE ENERGY PREDICTED BY IDOCK:   -3.92 KCAL/MOL
REMARK 922        TOTAL FREE ENERGY PREDICTED BY IDOCK:   -4.97 KCAL/MOL
REMARK 923 INTER-LIGAND FREE ENERGY PREDICTED BY IDOCK:   -5.22 KCAL/MOL
REMARK 924 INTRA-LIGAND FREE ENERGY PREDICTED BY IDOCK:    0.24 KCAL/MOL
REMARK 927      BINDING AFFINITY PREDICTED BY RF-SCORE:    0.00 PKD
ROOT
HETATM    1  C   UNL     1      -8.515  11.115  68.108  1.00  0.00    -0.138 C  
HETATM    2  C   UNL     1      -8.319  12.531  67.530  1.00  0.00    -0.175 C  
ENDROOT
BRANCH   2   3
HETATM    3  N   UNL     1      -6.979  13.060  67.965  1.00  0.00    -0.096 NA 
HETATM    4  C   UNL     1      -6.766  14.461  67.581  1.00  0.00    -0.169 C  
HETATM    5  C   UNL     1      -5.866  12.272  67.404  1.00  0.00    -0.143 C  
ENDBRANCH   2   3
BRANCH   2   6
HETATM    6  C   UNL     1      -9.543  13.433  67.955  1.00  0.00    -0.219 C  
BRANCH   6   7
HETATM    7  N   UNL     1     -10.136  14.216  66.820  1.00  0.00    -0.257 NA 
HETATM    8  C   UNL     1     -10.083  15.649  66.931  1.00  0.00    -0.263 A  
HETATM    9  C   UNL     1      -9.480  16.310  68.024  1.00  0.00    -0.223 A  
HETATM   10  C   UNL     1      -9.446  17.707  68.152  1.00  0.00    -0.286 A  
HETATM   11  C   UNL     1     -10.012  18.507  67.176  1.00  0.00    -0.357 A  
HETATM   12  C   UNL     1     -10.605  17.901  66.079  1.00  0.00    -0.235 A  
HETATM   13  C   UNL     1     -10.644  16.496  65.951  1.00  0.00    -0.270 A  
HETATM   14  S   UNL     1     -11.448  15.926  64.481  1.00  0.00    -0.149 SA 
HETATM   15  C   UNL     1     -11.358  14.167  64.654  1.00  0.00    -0.371 A  
HETATM   16  C   UNL     1     -11.940  13.456  63.581  1.00  0.00    -0.504 A  
HETATM   17  C   UNL     1     -11.941  12.070  63.552  1.00  0.00    -0.605 A  
HETATM   18  C   UNL     1     -11.370  11.384  64.607  1.00  0.00    -0.156 A  
HETATM   19  C   UNL     1     -10.804  12.090  65.686  1.00  0.00    -0.325 A  
HETATM   20  C   UNL     1     -10.758  13.502  65.747  1.00  0.00    -0.275 A  
ENDBRANCH   6   7
ENDBRANCH   2   6
TORSDOF 3
ENDMDL
MODEL      110
REMARK 921   NORMALIZED FREE ENERGY PREDICTED BY IDOCK:   -3.92 KCAL/MOL
REMARK 922        TOTAL FREE ENERGY PREDICTED BY IDOCK:   -4.97 KCAL/MOL
REMARK 923 INTER-LIGAND FREE ENERGY PREDICTED BY IDOCK:   -5.21 KCAL/MOL
REMARK 924 INTRA-LIGAND FREE ENERGY PREDICTED BY IDOCK:    0.23 KCAL/MOL
REMARK 927      BINDING AFFINITY PREDICTED BY RF-SCORE:    0.00 PKD
ROOT
HETATM    1  C   UNL     1      -6.913  16.428  69.522  1.00  0.00    -0.156 C  
HETATM    2  C   UNL     1      -7.887  15.234  69.457  1.00  0.00    -0.204 C  
ENDROOT
BRANCH   2   3
HETATM    3  N   UNL     1      -7.602  14.432  68.215  1.00  0.00    -0.114 NA 
HETATM    4  C   UNL     1      -7.156  13.065  68.508  1.00  0.00    -0.105 C  
HETATM    5  C   UNL     1      -6.570  15.065  67.373  1.00  0.00    -0.030 C  
ENDBRANCH   2   3
BRANCH   2   6
HETATM    6  C   UNL     1      -9.367  15.771  69.559  1.00  0.00    -0.238 C  
BRANCH   6   7
HETATM    7  N   UNL     1      -9.985  16.089  68.228  1.00  0.00    -0.218 NA 
HETATM    8  C   UNL     1     -10.621  15.000  67.538  1.00  0.00    -0.265 A  
HETATM    9  C   UNL     1     -10.703  13.696  68.077  1.00  0.00    -0.258 A  
HETATM   10  C   UNL     1     -11.300  12.622  67.400  1.00  0.00    -0.367 A  
HETATM   11  C   UNL     1     -11.853  12.813  66.146  1.00  0.00    -0.484 A  
HETATM   12  C   UNL     1     -11.804  14.079  65.582  1.00  0.00    -0.384 A  
HETATM   13  C   UNL     1     -11.200  15.159  66.260  1.00  0.00    -0.273 A  
HETATM   14  S   UNL     1     -11.242  16.687  65.368  1.00  0.00     0.316 SA 
HETATM   15  C   UNL     1     -10.387  17.789  66.458  1.00  0.00    -0.345 A  
HETATM   16  C   UNL     1     -10.283  19.111  65.969  1.00  0.00    -0.494 A  
HETATM   17  C   UNL     1      -9.657  20.104  66.706  1.00  0.00    -0.559 A  
HETATM   18  C   UNL     1      -9.116  19.777  67.935  1.00  0.00    -0.404 A  
HETATM   19  C   UNL     1      -9.203  18.456  68.417  1.00  0.00    -0.341 A  
HETATM   20  C   UNL     1      -9.853  17.417  67.712  1.00  0.00    -0.283 A  
ENDBRANCH   6   7
ENDBRANCH   2   6
TORSDOF 3
ENDMDL
MODEL      111
REMARK 921   NORMALIZED FREE ENERGY PREDICTED BY IDOCK:   -3.91 KCAL/MOL
REMARK 922        TOTAL FREE ENERGY PREDICTED BY IDOCK:   -4.96 KCAL/MOL
REMARK 923 INTER-LIGAND FREE ENERGY PREDICTED BY IDOCK:   -4.87 KCAL/MOL
REMARK 924 INTRA-LIGAND FREE ENERGY PREDICTED BY IDOCK:   -0.09 KCAL/MOL
REMARK 927      BINDING AFFINITY PREDICTED BY RF-SCORE:    0.00 PKD
ROOT
HETATM    1  C   UNL     1      -7.628   5.629  68.317  1.00  0.00    -0.081 C  
HETATM    2  C   UNL     1      -8.903   6.494  68.299  1.00  0.00    -0.119 C  
ENDROOT
BRANCH   2   3
HETATM    3  N   UNL     1      -9.552   6.391  66.945  1.00  0.00    -0.144 NA 
HETATM    4  C   UNL     1      -8.993   7.335  65.970  1.00  0.00    -0.116 C  
HETATM    5  C   UNL     1     -11.006   6.628  67.009  1.00  0.00    -0.393 C  
ENDBRANCH   2   3
BRANCH   2   6
HETATM    6  C   UNL     1      -8.532   7.966  68.732  1.00  0.00    -0.128 C  
BRANCH   6   7
HETATM    7  N   UNL     1      -9.627   8.667  69.482  1.00  0.00    -0.168 NA 
HETATM    8  C   UNL     1      -9.992   8.110  70.757  1.00  0.00    -0.188 A  
HETATM    9  C   UNL     1      -9.345   6.983  71.312  1.00  0.00    -0.160 A  
HETATM   10  C   UNL     1      -9.711   6.419  72.544  1.00  0.00    -0.168 A  
HETATM   11  C   UNL     1     -10.743   6.971  73.281  1.00  0.00    -0.373 A  
HETATM   12  C   UNL     1     -11.398   8.085  72.780  1.00  0.00    -0.439 A  
HETATM   13  C   UNL     1     -11.034   8.651  71.539  1.00  0.00    -0.290 A  
HETATM   14  S   UNL     1     -11.995  10.066  71.080  1.00  0.00    -0.408 SA 
HETATM   15  C   UNL     1     -11.321  10.488  69.499  1.00  0.00    -0.278 A  
HETATM   16  C   UNL     1     -11.927  11.616  68.902  1.00  0.00    -0.355 A  
HETATM   17  C   UNL     1     -11.507  12.091  67.669  1.00  0.00    -0.392 A  
HETATM   18  C   UNL     1     -10.484  11.429  67.017  1.00  0.00    -0.271 A  
HETATM   19  C   UNL     1      -9.889  10.294  67.602  1.00  0.00    -0.199 A  
HETATM   20  C   UNL     1     -10.268   9.789  68.868  1.00  0.00    -0.200 A  
ENDBRANCH   6   7
ENDBRANCH   2   6
TORSDOF 3
ENDMDL
MODEL      112
REMARK 921   NORMALIZED FREE ENERGY PREDICTED BY IDOCK:   -3.89 KCAL/MOL
REMARK 922        TOTAL FREE ENERGY PREDICTED BY IDOCK:   -4.93 KCAL/MOL
REMARK 923 INTER-LIGAND FREE ENERGY PREDICTED BY IDOCK:   -4.68 KCAL/MOL
REMARK 924 INTRA-LIGAND FREE ENERGY PREDICTED BY IDOCK:   -0.25 KCAL/MOL
REMARK 927      BINDING AFFINITY PREDICTED BY RF-SCORE:    0.00 PKD
ROOT
HETATM    1  C   UNL     1      -5.543  13.581  68.297  1.00  0.00    -0.101 C  
HETATM    2  C   UNL     1      -6.151  14.968  68.008  1.00  0.00    -0.150 C  
ENDROOT
BRANCH   2   3
HETATM    3  N   UNL     1      -6.428  15.667  69.313  1.00  0.00    -0.135 NA 
HETATM    4  C   UNL     1      -5.565  16.834  69.530  1.00  0.00    -0.170 C  
HETATM    5  C   UNL     1      -6.258  14.767  70.469  1.00  0.00    -0.123 C  
ENDBRANCH   2   3
BRANCH   2   6
HETATM    6  C   UNL     1      -7.418  14.792  67.084  1.00  0.00    -0.034 C  
BRANCH   6   7
HETATM    7  N   UNL     1      -8.475  15.835  67.305  1.00  0.00    -0.177 NA 
HETATM    8  C   UNL     1      -8.191  17.153  66.805  1.00  0.00    -0.240 A  
HETATM    9  C   UNL     1      -7.003  17.468  66.108  1.00  0.00    -0.323 A  
HETATM   10  C   UNL     1      -6.708  18.756  65.638  1.00  0.00    -0.311 A  
HETATM   11  C   UNL     1      -7.603  19.791  65.840  1.00  0.00    -0.332 A  
HETATM   12  C   UNL     1      -8.788  19.526  66.509  1.00  0.00    -0.395 A  
HETATM   13  C   UNL     1      -9.084  18.231  66.987  1.00  0.00    -0.271 A  
HETATM   14  S   UNL     1     -10.644  18.105  67.815  1.00  0.00    -0.333 SA 
HETATM   15  C   UNL     1     -10.678  16.405  68.307  1.00  0.00    -0.337 A  
HETATM   16  C   UNL     1     -11.852  16.035  69.002  1.00  0.00    -0.258 A  
HETATM   17  C   UNL     1     -12.046  14.736  69.445  1.00  0.00    -0.305 A  
HETATM   18  C   UNL     1     -11.059  13.799  69.206  1.00  0.00    -0.253 A  
HETATM   19  C   UNL     1      -9.881  14.169  68.529  1.00  0.00    -0.230 A  
HETATM   20  C   UNL     1      -9.649  15.475  68.038  1.00  0.00    -0.203 A  
ENDBRANCH   6   7
ENDBRANCH   2   6
TORSDOF 3
ENDMDL
MODEL      113
REMARK 921   NORMALIZED FREE ENERGY PREDICTED BY IDOCK:   -3.87 KCAL/MOL
REMARK 922        TOTAL FREE ENERGY PREDICTED BY IDOCK:   -4.91 KCAL/MOL
REMARK 923 INTER-LIGAND FREE ENERGY PREDICTED BY IDOCK:   -4.67 KCAL/MOL
REMARK 924 INTRA-LIGAND FREE ENERGY PREDICTED BY IDOCK:   -0.24 KCAL/MOL
REMARK 927      BINDING AFFINITY PREDICTED BY RF-SCORE:    0.00 PKD
ROOT
HETATM    1  C   UNL     1     -10.632  10.743  65.332  1.00  0.00    -0.224 C  
HETATM    2  C   UNL     1     -11.397  11.702  66.267  1.00  0.00    -0.227 C  
ENDROOT
BRANCH   2   3
HETATM    3  N   UNL     1     -11.352  13.092  65.691  1.00  0.00    -0.298 NA 
HETATM    4  C   UNL     1     -12.684  13.687  65.531  1.00  0.00    -0.466 C  
HETATM    5  C   UNL     1     -10.689  13.124  64.375  1.00  0.00    -0.407 C  
ENDBRANCH   2   3
BRANCH   2   6
HETATM    6  C   UNL     1     -10.804  11.582  67.724  1.00  0.00    -0.221 C  
BRANCH   6   7
HETATM    7  N   UNL     1      -9.974  12.764  68.136  1.00  0.00    -0.225 NA 
HETATM    8  C   UNL     1      -8.566  12.690  67.854  1.00  0.00    -0.181 A  
HETATM    9  C   UNL     1      -7.975  11.589  67.194  1.00  0.00    -0.160 A  
HETATM   10  C   UNL     1      -6.598  11.498  66.937  1.00  0.00    -0.138 A  
HETATM   11  C   UNL     1      -5.751  12.520  67.325  1.00  0.00    -0.084 A  
HETATM   12  C   UNL     1      -6.289  13.625  67.965  1.00  0.00    -0.139 A  
HETATM   13  C   UNL     1      -7.673  13.716  68.229  1.00  0.00    -0.140 A  
HETATM   14  S   UNL     1      -8.155  15.205  69.056  1.00  0.00    -0.204 SA 
HETATM   15  C   UNL     1      -9.899  14.979  69.262  1.00  0.00    -0.197 A  
HETATM   16  C   UNL     1     -10.543  16.057  69.911  1.00  0.00    -0.314 A  
HETATM   17  C   UNL     1     -11.909  16.048  70.137  1.00  0.00    -0.253 A  
HETATM   18  C   UNL     1     -12.643  14.950  69.728  1.00  0.00    -0.147 A  
HETATM   19  C   UNL     1     -12.002  13.867  69.097  1.00  0.00    -0.404 A  
HETATM   20  C   UNL     1     -10.614  13.843  68.823  1.00  0.00    -0.246 A  
ENDBRANCH   6   7
ENDBRANCH   2   6
TORSDOF 3
ENDMDL
MODEL      114
REMARK 921   NORMALIZED FREE ENERGY PREDICTED BY IDOCK:   -3.86 KCAL/MOL
REMARK 922        TOTAL FREE ENERGY PREDICTED BY IDOCK:   -4.90 KCAL/MOL
REMARK 923 INTER-LIGAND FREE ENERGY PREDICTED BY IDOCK:   -4.66 KCAL/MOL
REMARK 924 INTRA-LIGAND FREE ENERGY PREDICTED BY IDOCK:   -0.23 KCAL/MOL
REMARK 927      BINDING AFFINITY PREDICTED BY RF-SCORE:    0.00 PKD
ROOT
HETATM    1  C   UNL     1      -8.495   9.987  69.369  1.00  0.00    -0.176 C  
HETATM    2  C   UNL     1      -9.384  11.118  68.814  1.00  0.00    -0.149 C  
ENDROOT
BRANCH   2   3
HETATM    3  N   UNL     1     -10.637  10.521  68.232  1.00  0.00    -0.192 NA 
HETATM    4  C   UNL     1     -11.855  10.969  68.917  1.00  0.00    -0.308 C  
HETATM    5  C   UNL     1     -10.618   9.047  68.277  1.00  0.00    -0.163 C  
ENDBRANCH   2   3
BRANCH   2   6
HETATM    6  C   UNL     1      -8.541  11.981  67.796  1.00  0.00    -0.157 C  
BRANCH   6   7
HETATM    7  N   UNL     1      -8.922  11.760  66.360  1.00  0.00    -0.209 NA 
HETATM    8  C   UNL     1      -9.954  12.611  65.831  1.00  0.00    -0.264 A  
HETATM    9  C   UNL     1     -10.568  13.632  66.591  1.00  0.00    -0.277 A  
HETATM   10  C   UNL     1     -11.592  14.450  66.089  1.00  0.00    -0.372 A  
HETATM   11  C   UNL     1     -12.040  14.284  64.791  1.00  0.00    -0.457 A  
HETATM   12  C   UNL     1     -11.457  13.302  64.006  1.00  0.00    -0.432 A  
HETATM   13  C   UNL     1     -10.431  12.475  64.510  1.00  0.00    -0.341 A  
HETATM   14  S   UNL     1      -9.825  11.285  63.348  1.00  0.00    -0.418 SA 
HETATM   15  C   UNL     1      -8.609  10.413  64.294  1.00  0.00    -0.185 A  
HETATM   16  C   UNL     1      -7.956   9.384  63.578  1.00  0.00    -0.141 A  
HETATM   17  C   UNL     1      -6.966   8.615  64.166  1.00  0.00    -0.089 A  
HETATM   18  C   UNL     1      -6.630   8.860  65.484  1.00  0.00    -0.068 A  
HETATM   19  C   UNL     1      -7.290   9.872  66.206  1.00  0.00    -0.102 A  
HETATM   20  C   UNL     1      -8.290  10.698  65.640  1.00  0.00    -0.162 A  
ENDBRANCH   6   7
ENDBRANCH   2   6
TORSDOF 3
ENDMDL
MODEL      115
REMARK 921   NORMALIZED FREE ENERGY PREDICTED BY IDOCK:   -3.85 KCAL/MOL
REMARK 922        TOTAL FREE ENERGY PREDICTED BY IDOCK:   -4.89 KCAL/MOL
REMARK 923 INTER-LIGAND FREE ENERGY PREDICTED BY IDOCK:   -4.88 KCAL/MOL
REMARK 924 INTRA-LIGAND FREE ENERGY PREDICTED BY IDOCK:   -0.01 KCAL/MOL
REMARK 927      BINDING AFFINITY PREDICTED BY RF-SCORE:    0.00 PKD
ROOT
HETATM    1  C   UNL     1      -7.937   6.609  68.213  1.00  0.00    -0.111 C  
HETATM    2  C   UNL     1      -9.014   5.529  67.985  1.00  0.00    -0.108 C  
ENDROOT
BRANCH   2   3
HETATM    3  N   UNL     1      -8.566   4.610  66.880  1.00  0.00    -0.105 NA 
HETATM    4  C   UNL     1      -8.769   5.182  65.544  1.00  0.00    -0.147 C  
HETATM    5  C   UNL     1      -9.268   3.314  66.921  1.00  0.00    -0.174 C  
ENDBRANCH   2   3
BRANCH   2   6
HETATM    6  C   UNL     1     -10.401   6.234  67.722  1.00  0.00    -0.195 C  
BRANCH   6   7
HETATM    7  N   UNL     1     -10.569   7.528  68.466  1.00  0.00    -0.174 NA 
HETATM    8  C   UNL     1     -10.387   8.735  67.705  1.00  0.00    -0.254 A  
HETATM    9  C   UNL     1     -10.098   8.731  66.322  1.00  0.00    -0.254 A  
HETATM   10  C   UNL     1      -9.895   9.903  65.577  1.00  0.00    -0.381 A  
HETATM   11  C   UNL     1      -9.982  11.139  66.191  1.00  0.00    -0.273 A  
HETATM   12  C   UNL     1     -10.275  11.191  67.545  1.00  0.00    -0.216 A  
HETATM   13  C   UNL     1     -10.475  10.013  68.297  1.00  0.00    -0.213 A  
HETATM   14  S   UNL     1     -10.835  10.298  70.006  1.00  0.00    -0.304 SA 
HETATM   15  C   UNL     1     -10.985   8.654  70.644  1.00  0.00    -0.240 A  
HETATM   16  C   UNL     1     -11.282   8.600  72.025  1.00  0.00    -0.434 A  
HETATM   17  C   UNL     1     -11.448   7.390  72.679  1.00  0.00    -0.337 A  
HETATM   18  C   UNL     1     -11.303   6.220  71.957  1.00  0.00    -0.348 A  
HETATM   19  C   UNL     1     -10.990   6.269  70.585  1.00  0.00    -0.370 A  
HETATM   20  C   UNL     1     -10.835   7.481  69.870  1.00  0.00    -0.240 A  
ENDBRANCH   6   7
ENDBRANCH   2   6
TORSDOF 3
ENDMDL
MODEL      116
REMARK 921   NORMALIZED FREE ENERGY PREDICTED BY IDOCK:   -3.84 KCAL/MOL
REMARK 922        TOTAL FREE ENERGY PREDICTED BY IDOCK:   -4.88 KCAL/MOL
REMARK 923 INTER-LIGAND FREE ENERGY PREDICTED BY IDOCK:   -4.74 KCAL/MOL
REMARK 924 INTRA-LIGAND FREE ENERGY PREDICTED BY IDOCK:   -0.14 KCAL/MOL
REMARK 927      BINDING AFFINITY PREDICTED BY RF-SCORE:    0.00 PKD
ROOT
HETATM    1  C   UNL     1      -8.831   8.887  69.885  1.00  0.00    -0.154 C  
HETATM    2  C   UNL     1     -10.291   9.356  69.724  1.00  0.00    -0.223 C  
ENDROOT
BRANCH   2   3
HETATM    3  N   UNL     1     -11.065   8.995  70.964  1.00  0.00    -0.266 NA 
HETATM    4  C   UNL     1     -11.968  10.065  71.405  1.00  0.00    -0.383 C  
HETATM    5  C   UNL     1     -10.177   8.668  72.094  1.00  0.00    -0.323 C  
ENDBRANCH   2   3
BRANCH   2   6
HETATM    6  C   UNL     1     -10.881   8.752  68.390  1.00  0.00     0.034 C  
BRANCH   6   7
HETATM    7  N   UNL     1     -10.396   9.445  67.150  1.00  0.00    -0.251 NA 
HETATM    8  C   UNL     1      -9.567   8.672  66.264  1.00  0.00    -0.252 A  
HETATM    9  C   UNL     1      -9.241   7.319  66.508  1.00  0.00    -0.195 A  
HETATM   10  C   UNL     1      -8.413   6.565  65.662  1.00  0.00    -0.146 A  
HETATM   11  C   UNL     1      -7.882   7.138  64.520  1.00  0.00    -0.121 A  
HETATM   12  C   UNL     1      -8.186   8.460  64.235  1.00  0.00    -0.130 A  
HETATM   13  C   UNL     1      -9.014   9.221  65.088  1.00  0.00    -0.209 A  
HETATM   14  S   UNL     1      -9.275  10.886  64.546  1.00  0.00    -0.176 SA 
HETATM   15  C   UNL     1     -10.295  11.550  65.830  1.00  0.00    -0.247 A  
HETATM   16  C   UNL     1     -10.659  12.901  65.631  1.00  0.00    -0.295 A  
HETATM   17  C   UNL     1     -11.469  13.569  66.535  1.00  0.00    -0.365 A  
HETATM   18  C   UNL     1     -11.911  12.892  67.657  1.00  0.00    -0.400 A  
HETATM   19  C   UNL     1     -11.536  11.551  67.867  1.00  0.00    -0.372 A  
HETATM   20  C   UNL     1     -10.732  10.822  66.960  1.00  0.00    -0.265 A  
ENDBRANCH   6   7
ENDBRANCH   2   6
TORSDOF 3
ENDMDL
MODEL      117
REMARK 921   NORMALIZED FREE ENERGY PREDICTED BY IDOCK:   -3.83 KCAL/MOL
REMARK 922        TOTAL FREE ENERGY PREDICTED BY IDOCK:   -4.87 KCAL/MOL
REMARK 923 INTER-LIGAND FREE ENERGY PREDICTED BY IDOCK:   -4.48 KCAL/MOL
REMARK 924 INTRA-LIGAND FREE ENERGY PREDICTED BY IDOCK:   -0.39 KCAL/MOL
REMARK 927      BINDING AFFINITY PREDICTED BY RF-SCORE:    0.00 PKD
ROOT
HETATM    1  C   UNL     1      -8.080   5.514  67.881  1.00  0.00    -0.100 C  
HETATM    2  C   UNL     1      -8.896   6.812  68.046  1.00  0.00    -0.119 C  
ENDROOT
BRANCH   2   3
HETATM    3  N   UNL     1      -8.698   7.678  66.830  1.00  0.00    -0.125 NA 
HETATM    4  C   UNL     1      -8.517   6.900  65.599  1.00  0.00    -0.136 C  
HETATM    5  C   UNL     1      -7.530   8.567  66.970  1.00  0.00    -0.084 C  
ENDBRANCH   2   3
BRANCH   2   6
HETATM    6  C   UNL     1      -8.495   7.502  69.408  1.00  0.00    -0.133 C  
BRANCH   6   7
HETATM    7  N   UNL     1      -9.653   7.708  70.341  1.00  0.00    -0.168 NA 
HETATM    8  C   UNL     1      -9.950   6.630  71.244  1.00  0.00    -0.180 A  
HETATM    9  C   UNL     1      -9.187   5.441  71.294  1.00  0.00    -0.173 A  
HETATM   10  C   UNL     1      -9.486   4.374  72.156  1.00  0.00    -0.186 A  
HETATM   11  C   UNL     1     -10.565   4.458  73.017  1.00  0.00    -0.267 A  
HETATM   12  C   UNL     1     -11.334   5.611  73.010  1.00  0.00    -0.288 A  
HETATM   13  C   UNL     1     -11.039   6.683  72.141  1.00  0.00    -0.254 A  
HETATM   14  S   UNL     1     -12.144   8.059  72.288  1.00  0.00    -0.324 SA 
HETATM   15  C   UNL     1     -11.526   9.176  71.062  1.00  0.00    -0.306 A  
HETATM   16  C   UNL     1     -12.249  10.387  70.976  1.00  0.00    -0.498 A  
HETATM   17  C   UNL     1     -11.888  11.379  70.078  1.00  0.00    -0.440 A  
HETATM   18  C   UNL     1     -10.805  11.159  69.247  1.00  0.00    -0.277 A  
HETATM   19  C   UNL     1     -10.093   9.947  69.319  1.00  0.00    -0.214 A  
HETATM   20  C   UNL     1     -10.410   8.917  70.235  1.00  0.00    -0.206 A  
ENDBRANCH   6   7
ENDBRANCH   2   6
TORSDOF 3
ENDMDL
MODEL      118
REMARK 921   NORMALIZED FREE ENERGY PREDICTED BY IDOCK:   -3.82 KCAL/MOL
REMARK 922        TOTAL FREE ENERGY PREDICTED BY IDOCK:   -4.86 KCAL/MOL
REMARK 923 INTER-LIGAND FREE ENERGY PREDICTED BY IDOCK:   -4.83 KCAL/MOL
REMARK 924 INTRA-LIGAND FREE ENERGY PREDICTED BY IDOCK:   -0.03 KCAL/MOL
REMARK 927      BINDING AFFINITY PREDICTED BY RF-SCORE:    0.00 PKD
ROOT
HETATM    1  C   UNL     1      -7.946   9.377  69.036  1.00  0.00    -0.091 C  
HETATM    2  C   UNL     1      -8.293   8.168  68.144  1.00  0.00    -0.129 C  
ENDROOT
BRANCH   2   3
HETATM    3  N   UNL     1      -7.385   8.163  66.944  1.00  0.00    -0.086 NA 
HETATM    4  C   UNL     1      -6.853   9.493  66.625  1.00  0.00    -0.084 C  
HETATM    5  C   UNL     1      -8.065   7.655  65.738  1.00  0.00    -0.126 C  
ENDBRANCH   2   3
BRANCH   2   6
HETATM    6  C   UNL     1      -9.832   8.211  67.795  1.00  0.00    -0.166 C  
BRANCH   6   7
HETATM    7  N   UNL     1     -10.551   9.387  68.391  1.00  0.00    -0.219 NA 
HETATM    8  C   UNL     1     -11.104   9.203  69.705  1.00  0.00    -0.125 A  
HETATM    9  C   UNL     1     -10.963   8.000  70.433  1.00  0.00    -0.248 A  
HETATM   10  C   UNL     1     -11.520   7.804  71.706  1.00  0.00    -0.307 A  
HETATM   11  C   UNL     1     -12.241   8.818  72.312  1.00  0.00    -0.429 A  
HETATM   12  C   UNL     1     -12.396  10.019  71.638  1.00  0.00    -0.486 A  
HETATM   13  C   UNL     1     -11.840  10.217  70.356  1.00  0.00    -0.288 A  
HETATM   14  S   UNL     1     -12.154  11.818  69.670  1.00  0.00    -0.219 SA 
HETATM   15  C   UNL     1     -11.372  11.714  68.085  1.00  0.00    -0.292 A  
HETATM   16  C   UNL     1     -11.477  12.896  67.317  1.00  0.00    -0.388 A  
HETATM   17  C   UNL     1     -10.906  12.989  66.058  1.00  0.00    -0.290 A  
HETATM   18  C   UNL     1     -10.236  11.891  65.551  1.00  0.00    -0.290 A  
HETATM   19  C   UNL     1     -10.145  10.706  66.306  1.00  0.00    -0.291 A  
HETATM   20  C   UNL     1     -10.691  10.574  67.605  1.00  0.00    -0.275 A  
ENDBRANCH   6   7
ENDBRANCH   2   6
TORSDOF 3
ENDMDL
MODEL      119
REMARK 921   NORMALIZED FREE ENERGY PREDICTED BY IDOCK:   -3.80 KCAL/MOL
REMARK 922        TOTAL FREE ENERGY PREDICTED BY IDOCK:   -4.83 KCAL/MOL
REMARK 923 INTER-LIGAND FREE ENERGY PREDICTED BY IDOCK:   -4.58 KCAL/MOL
REMARK 924 INTRA-LIGAND FREE ENERGY PREDICTED BY IDOCK:   -0.25 KCAL/MOL
REMARK 927      BINDING AFFINITY PREDICTED BY RF-SCORE:    0.00 PKD
ROOT
HETATM    1  C   UNL     1     -11.888  11.863  68.195  1.00  0.00    -0.338 C  
HETATM    2  C   UNL     1     -11.547  10.895  69.346  1.00  0.00    -0.316 C  
ENDROOT
BRANCH   2   3
HETATM    3  N   UNL     1     -11.962  11.517  70.653  1.00  0.00    -0.347 NA 
HETATM    4  C   UNL     1     -13.055  10.791  71.309  1.00  0.00    -0.330 C  
HETATM    5  C   UNL     1     -12.394  12.916  70.487  1.00  0.00    -0.283 C  
ENDBRANCH   2   3
BRANCH   2   6
HETATM    6  C   UNL     1     -10.018  10.515  69.262  1.00  0.00    -0.213 C  
BRANCH   6   7
HETATM    7  N   UNL     1      -9.754   9.242  68.512  1.00  0.00    -0.148 NA 
HETATM    8  C   UNL     1      -9.304   9.378  67.153  1.00  0.00    -0.139 A  
HETATM    9  C   UNL     1      -9.082  10.633  66.543  1.00  0.00    -0.179 A  
HETATM   10  C   UNL     1      -8.666  10.775  65.210  1.00  0.00    -0.183 A  
HETATM   11  C   UNL     1      -8.446   9.655  64.429  1.00  0.00    -0.189 A  
HETATM   12  C   UNL     1      -8.641   8.402  64.990  1.00  0.00    -0.133 A  
HETATM   13  C   UNL     1      -9.063   8.258  66.329  1.00  0.00    -0.188 A  
HETATM   14  S   UNL     1      -9.255   6.577  66.850  1.00  0.00    -0.145 SA 
HETATM   15  C   UNL     1      -9.816   6.756  68.518  1.00  0.00    -0.141 A  
HETATM   16  C   UNL     1     -10.047   5.528  69.180  1.00  0.00    -0.286 A  
HETATM   17  C   UNL     1     -10.475   5.489  70.497  1.00  0.00    -0.347 A  
HETATM   18  C   UNL     1     -10.690   6.683  71.160  1.00  0.00    -0.274 A  
HETATM   19  C   UNL     1     -10.478   7.908  70.499  1.00  0.00    -0.214 A  
HETATM   20  C   UNL     1     -10.018   7.996  69.164  1.00  0.00    -0.188 A  
ENDBRANCH   6   7
ENDBRANCH   2   6
TORSDOF 3
ENDMDL
MODEL      120
REMARK 921   NORMALIZED FREE ENERGY PREDICTED BY IDOCK:   -3.80 KCAL/MOL
REMARK 922        TOTAL FREE ENERGY PREDICTED BY IDOCK:   -4.83 KCAL/MOL
REMARK 923 INTER-LIGAND FREE ENERGY PREDICTED BY IDOCK:   -4.41 KCAL/MOL
REMARK 924 INTRA-LIGAND FREE ENERGY PREDICTED BY IDOCK:   -0.42 KCAL/MOL
REMARK 927      BINDING AFFINITY PREDICTED BY RF-SCORE:    0.00 PKD
ROOT
HETATM    1  C   UNL     1      -7.946  10.160  69.453  1.00  0.00    -0.155 C  
HETATM    2  C   UNL     1      -8.933  10.364  68.286  1.00  0.00    -0.135 C  
ENDROOT
BRANCH   2   3
HETATM    3  N   UNL     1      -9.262   9.027  67.679  1.00  0.00    -0.135 NA 
HETATM    4  C   UNL     1     -10.690   8.698  67.761  1.00  0.00    -0.110 C  
HETATM    5  C   UNL     1      -8.516   7.929  68.321  1.00  0.00    -0.124 C  
ENDBRANCH   2   3
BRANCH   2   6
HETATM    6  C   UNL     1      -8.320  11.406  67.271  1.00  0.00    -0.149 C  
BRANCH   6   7
HETATM    7  N   UNL     1      -8.679  11.134  65.839  1.00  0.00    -0.182 NA 
HETATM    8  C   UNL     1      -7.691  10.451  65.048  1.00  0.00    -0.095 A  
HETATM    9  C   UNL     1      -6.454  10.018  65.576  1.00  0.00    -0.095 A  
HETATM   10  C   UNL     1      -5.475   9.372  64.805  1.00  0.00    -0.054 A  
HETATM   11  C   UNL     1      -5.701   9.123  63.463  1.00  0.00    -0.075 A  
HETATM   12  C   UNL     1      -6.906   9.521  62.905  1.00  0.00    -0.100 A  
HETATM   13  C   UNL     1      -7.890  10.175  63.678  1.00  0.00    -0.154 A  
HETATM   14  S   UNL     1      -9.353  10.600  62.776  1.00  0.00    -0.337 SA 
HETATM   15  C   UNL     1     -10.332  11.418  64.003  1.00  0.00    -0.362 A  
HETATM   16  C   UNL     1     -11.587  11.865  63.529  1.00  0.00    -0.537 A  
HETATM   17  C   UNL     1     -12.483  12.511  64.365  1.00  0.00    -0.530 A  
HETATM   18  C   UNL     1     -12.125  12.728  65.682  1.00  0.00    -0.514 A  
HETATM   19  C   UNL     1     -10.869  12.299  66.153  1.00  0.00    -0.314 A  
HETATM   20  C   UNL     1      -9.932  11.615  65.344  1.00  0.00    -0.250 A  
ENDBRANCH   6   7
ENDBRANCH   2   6
TORSDOF 3
ENDMDL
MODEL      121
REMARK 921   NORMALIZED FREE ENERGY PREDICTED BY IDOCK:   -3.80 KCAL/MOL
REMARK 922        TOTAL FREE ENERGY PREDICTED BY IDOCK:   -4.83 KCAL/MOL
REMARK 923 INTER-LIGAND FREE ENERGY PREDICTED BY IDOCK:   -4.58 KCAL/MOL
REMARK 924 INTRA-LIGAND FREE ENERGY PREDICTED BY IDOCK:   -0.24 KCAL/MOL
REMARK 927      BINDING AFFINITY PREDICTED BY RF-SCORE:    0.00 PKD
ROOT
HETATM    1  C   UNL     1      -5.376  14.122  67.876  1.00  0.00    -0.071 C  
HETATM    2  C   UNL     1      -6.910  14.103  67.717  1.00  0.00    -0.176 C  
ENDROOT
BRANCH   2   3
HETATM    3  N   UNL     1      -7.544  14.583  68.995  1.00  0.00    -0.131 NA 
HETATM    4  C   UNL     1      -8.301  15.829  68.823  1.00  0.00    -0.195 C  
HETATM    5  C   UNL     1      -6.546  14.812  70.055  1.00  0.00    -0.168 C  
ENDBRANCH   2   3
BRANCH   2   6
HETATM    6  C   UNL     1      -7.362  12.659  67.269  1.00  0.00    -0.104 C  
BRANCH   6   7
HETATM    7  N   UNL     1      -8.763  12.311  67.685  1.00  0.00    -0.166 NA 
HETATM    8  C   UNL     1      -8.900  11.296  68.694  1.00  0.00    -0.141 A  
HETATM    9  C   UNL     1      -7.790  10.668  69.303  1.00  0.00    -0.140 A  
HETATM   10  C   UNL     1      -7.916   9.660  70.271  1.00  0.00    -0.198 A  
HETATM   11  C   UNL     1      -9.170   9.242  70.679  1.00  0.00    -0.321 A  
HETATM   12  C   UNL     1     -10.287   9.839  70.116  1.00  0.00    -0.335 A  
HETATM   13  C   UNL     1     -10.162  10.850  69.139  1.00  0.00    -0.195 A  
HETATM   14  S   UNL     1     -11.708  11.478  68.548  1.00  0.00    -0.296 SA 
HETATM   15  C   UNL     1     -11.199  12.667  67.339  1.00  0.00    -0.290 A  
HETATM   16  C   UNL     1     -12.272  13.332  66.704  1.00  0.00    -0.359 A  
HETATM   17  C   UNL     1     -12.048  14.305  65.743  1.00  0.00    -0.414 A  
HETATM   18  C   UNL     1     -10.745  14.611  65.400  1.00  0.00    -0.382 A  
HETATM   19  C   UNL     1      -9.674  13.938  66.019  1.00  0.00    -0.270 A  
HETATM   20  C   UNL     1      -9.854  12.956  67.021  1.00  0.00    -0.233 A  
ENDBRANCH   6   7
ENDBRANCH   2   6
TORSDOF 3
ENDMDL
MODEL      122
REMARK 921   NORMALIZED FREE ENERGY PREDICTED BY IDOCK:   -3.78 KCAL/MOL
REMARK 922        TOTAL FREE ENERGY PREDICTED BY IDOCK:   -4.81 KCAL/MOL
REMARK 923 INTER-LIGAND FREE ENERGY PREDICTED BY IDOCK:   -4.71 KCAL/MOL
REMARK 924 INTRA-LIGAND FREE ENERGY PREDICTED BY IDOCK:   -0.10 KCAL/MOL
REMARK 927      BINDING AFFINITY PREDICTED BY RF-SCORE:    0.00 PKD
ROOT
HETATM    1  C   UNL     1      -9.126  12.916  68.172  1.00  0.00    -0.207 C  
HETATM    2  C   UNL     1     -10.336  13.052  67.226  1.00  0.00    -0.238 C  
ENDROOT
BRANCH   2   3
HETATM    3  N   UNL     1     -11.118  14.283  67.598  1.00  0.00    -0.283 NA 
HETATM    4  C   UNL     1     -12.060  14.051  68.699  1.00  0.00    -0.297 C  
HETATM    5  C   UNL     1     -11.888  14.815  66.458  1.00  0.00    -0.228 C  
ENDBRANCH   2   3
BRANCH   2   6
HETATM    6  C   UNL     1     -11.173  11.714  67.266  1.00  0.00    -0.304 C  
BRANCH   6   7
HETATM    7  N   UNL     1     -10.407  10.510  66.799  1.00  0.00    -0.237 NA 
HETATM    8  C   UNL     1     -10.134   9.500  67.785  1.00  0.00    -0.198 A  
HETATM    9  C   UNL     1     -10.581   9.595  69.122  1.00  0.00    -0.237 A  
HETATM   10  C   UNL     1     -10.299   8.626  70.096  1.00  0.00    -0.219 A  
HETATM   11  C   UNL     1      -9.556   7.506  69.767  1.00  0.00    -0.163 A  
HETATM   12  C   UNL     1      -9.106   7.366  68.463  1.00  0.00    -0.136 A  
HETATM   13  C   UNL     1      -9.385   8.343  67.483  1.00  0.00    -0.147 A  
HETATM   14  S   UNL     1      -8.718   7.975  65.885  1.00  0.00    -0.143 SA 
HETATM   15  C   UNL     1      -9.207   9.385  64.934  1.00  0.00    -0.183 A  
HETATM   16  C   UNL     1      -8.791   9.338  63.584  1.00  0.00    -0.146 A  
HETATM   17  C   UNL     1      -9.105  10.355  62.698  1.00  0.00    -0.305 A  
HETATM   18  C   UNL     1      -9.828  11.439  63.161  1.00  0.00    -0.413 A  
HETATM   19  C   UNL     1     -10.229  11.498  64.509  1.00  0.00    -0.338 A  
HETATM   20  C   UNL     1      -9.953  10.472  65.443  1.00  0.00    -0.289 A  
ENDBRANCH   6   7
ENDBRANCH   2   6
TORSDOF 3
ENDMDL
MODEL      123
REMARK 921   NORMALIZED FREE ENERGY PREDICTED BY IDOCK:   -3.78 KCAL/MOL
REMARK 922        TOTAL FREE ENERGY PREDICTED BY IDOCK:   -4.80 KCAL/MOL
REMARK 923 INTER-LIGAND FREE ENERGY PREDICTED BY IDOCK:   -4.60 KCAL/MOL
REMARK 924 INTRA-LIGAND FREE ENERGY PREDICTED BY IDOCK:   -0.20 KCAL/MOL
REMARK 927      BINDING AFFINITY PREDICTED BY RF-SCORE:    0.00 PKD
ROOT
HETATM    1  C   UNL     1      -9.220  16.341  68.930  1.00  0.00    -0.249 C  
HETATM    2  C   UNL     1      -8.154  15.227  68.911  1.00  0.00    -0.180 C  
ENDROOT
BRANCH   2   3
HETATM    3  N   UNL     1      -6.900  15.732  69.573  1.00  0.00    -0.185 NA 
HETATM    4  C   UNL     1      -5.901  16.212  68.612  1.00  0.00    -0.105 C  
HETATM    5  C   UNL     1      -6.257  14.696  70.402  1.00  0.00    -0.168 C  
ENDBRANCH   2   3
BRANCH   2   6
HETATM    6  C   UNL     1      -7.952  14.734  67.426  1.00  0.00    -0.197 C  
BRANCH   6   7
HETATM    7  N   UNL     1      -8.993  13.752  66.971  1.00  0.00    -0.237 NA 
HETATM    8  C   UNL     1      -9.996  14.250  66.069  1.00  0.00    -0.319 A  
HETATM    9  C   UNL     1     -10.004  15.581  65.593  1.00  0.00    -0.394 A  
HETATM   10  C   UNL     1     -10.992  16.082  64.732  1.00  0.00    -0.373 A  
HETATM   11  C   UNL     1     -12.018  15.260  64.300  1.00  0.00    -0.236 A  
HETATM   12  C   UNL     1     -12.043  13.943  64.733  1.00  0.00    -0.443 A  
HETATM   13  C   UNL     1     -11.052  13.439  65.603  1.00  0.00    -0.285 A  
HETATM   14  S   UNL     1     -11.269  11.736  66.035  1.00  0.00    -0.253 SA 
HETATM   15  C   UNL     1      -9.914  11.448  67.137  1.00  0.00    -0.192 A  
HETATM   16  C   UNL     1      -9.854  10.127  67.637  1.00  0.00    -0.201 A  
HETATM   17  C   UNL     1      -8.846   9.729  68.500  1.00  0.00    -0.121 A  
HETATM   18  C   UNL     1      -7.895  10.657  68.882  1.00  0.00    -0.129 A  
HETATM   19  C   UNL     1      -7.962  11.979  68.400  1.00  0.00    -0.152 A  
HETATM   20  C   UNL     1      -8.958  12.423  67.499  1.00  0.00    -0.183 A  
ENDBRANCH   6   7
ENDBRANCH   2   6
TORSDOF 3
ENDMDL
MODEL      124
REMARK 921   NORMALIZED FREE ENERGY PREDICTED BY IDOCK:   -3.77 KCAL/MOL
REMARK 922        TOTAL FREE ENERGY PREDICTED BY IDOCK:   -4.80 KCAL/MOL
REMARK 923 INTER-LIGAND FREE ENERGY PREDICTED BY IDOCK:   -4.78 KCAL/MOL
REMARK 924 INTRA-LIGAND FREE ENERGY PREDICTED BY IDOCK:   -0.02 KCAL/MOL
REMARK 927      BINDING AFFINITY PREDICTED BY RF-SCORE:    0.00 PKD
ROOT
HETATM    1  C   UNL     1     -10.652  15.330  69.711  1.00  0.00    -0.293 C  
HETATM    2  C   UNL     1     -11.501  15.550  68.443  1.00  0.00    -0.363 C  
ENDROOT
BRANCH   2   3
HETATM    3  N   UNL     1     -12.391  14.354  68.232  1.00  0.00    -0.110 NA 
HETATM    4  C   UNL     1     -11.996  13.197  69.045  1.00  0.00    -0.285 C  
HETATM    5  C   UNL     1     -12.410  13.921  66.823  1.00  0.00    -0.330 C  
ENDBRANCH   2   3
BRANCH   2   6
HETATM    6  C   UNL     1     -10.542  15.869  67.231  1.00  0.00    -0.314 C  
BRANCH   6   7
HETATM    7  N   UNL     1      -9.086  15.855  67.596  1.00  0.00    -0.197 NA 
HETATM    8  C   UNL     1      -8.519  17.104  68.026  1.00  0.00    -0.219 A  
HETATM    9  C   UNL     1      -9.280  18.290  68.141  1.00  0.00    -0.313 A  
HETATM   10  C   UNL     1      -8.729  19.518  68.537  1.00  0.00    -0.388 A  
HETATM   11  C   UNL     1      -7.384  19.609  68.846  1.00  0.00    -0.373 A  
HETATM   12  C   UNL     1      -6.602  18.468  68.757  1.00  0.00    -0.267 A  
HETATM   13  C   UNL     1      -7.153  17.232  68.355  1.00  0.00    -0.209 A  
HETATM   14  S   UNL     1      -5.986  15.902  68.305  1.00  0.00    -0.116 SA 
HETATM   15  C   UNL     1      -6.975  14.548  67.739  1.00  0.00    -0.179 A  
HETATM   16  C   UNL     1      -6.264  13.333  67.613  1.00  0.00    -0.153 A  
HETATM   17  C   UNL     1      -6.893  12.171  67.196  1.00  0.00    -0.119 A  
HETATM   18  C   UNL     1      -8.239  12.219  66.887  1.00  0.00    -0.112 A  
HETATM   19  C   UNL     1      -8.947  13.432  66.994  1.00  0.00    -0.228 A  
HETATM   20  C   UNL     1      -8.353  14.637  67.438  1.00  0.00    -0.206 A  
ENDBRANCH   6   7
ENDBRANCH   2   6
TORSDOF 3
ENDMDL
MODEL      125
REMARK 921   NORMALIZED FREE ENERGY PREDICTED BY IDOCK:   -3.76 KCAL/MOL
REMARK 922        TOTAL FREE ENERGY PREDICTED BY IDOCK:   -4.78 KCAL/MOL
REMARK 923 INTER-LIGAND FREE ENERGY PREDICTED BY IDOCK:   -4.50 KCAL/MOL
REMARK 924 INTRA-LIGAND FREE ENERGY PREDICTED BY IDOCK:   -0.28 KCAL/MOL
REMARK 927      BINDING AFFINITY PREDICTED BY RF-SCORE:    0.00 PKD
ROOT
HETATM    1  C   UNL     1      -5.475   8.121  69.718  1.00  0.00    -0.023 C  
HETATM    2  C   UNL     1      -6.999   8.255  69.521  1.00  0.00    -0.046 C  
ENDROOT
BRANCH   2   3
HETATM    3  N   UNL     1      -7.310   8.229  68.049  1.00  0.00    -0.094 NA 
HETATM    4  C   UNL     1      -7.233   6.882  67.472  1.00  0.00    -0.090 C  
HETATM    5  C   UNL     1      -6.401   9.096  67.276  1.00  0.00    -0.059 C  
ENDBRANCH   2   3
BRANCH   2   6
HETATM    6  C   UNL     1      -7.502   9.550  70.270  1.00  0.00    -0.143 C  
BRANCH   6   7
HETATM    7  N   UNL     1      -8.984   9.568  70.511  1.00  0.00    -0.243 NA 
HETATM    8  C   UNL     1      -9.469   8.751  71.590  1.00  0.00    -0.288 A  
HETATM    9  C   UNL     1      -8.614   7.989  72.417  1.00  0.00    -0.220 A  
HETATM   10  C   UNL     1      -9.082   7.170  73.456  1.00  0.00    -0.206 A  
HETATM   11  C   UNL     1     -10.437   7.088  73.719  1.00  0.00    -0.392 A  
HETATM   12  C   UNL     1     -11.313   7.828  72.940  1.00  0.00    -0.406 A  
HETATM   13  C   UNL     1     -10.845   8.648  71.891  1.00  0.00    -0.348 A  
HETATM   14  S   UNL     1     -12.124   9.506  71.018  1.00  0.00    -0.312 SA 
HETATM   15  C   UNL     1     -11.216  10.385  69.779  1.00  0.00    -0.293 A  
HETATM   16  C   UNL     1     -12.024  11.172  68.928  1.00  0.00    -0.367 A  
HETATM   17  C   UNL     1     -11.471  11.937  67.913  1.00  0.00    -0.385 A  
HETATM   18  C   UNL     1     -10.100  11.909  67.734  1.00  0.00    -0.200 A  
HETATM   19  C   UNL     1      -9.293  11.112  68.569  1.00  0.00    -0.190 A  
HETATM   20  C   UNL     1      -9.812  10.335  69.631  1.00  0.00    -0.198 A  
ENDBRANCH   6   7
ENDBRANCH   2   6
TORSDOF 3
ENDMDL
MODEL      126
REMARK 921   NORMALIZED FREE ENERGY PREDICTED BY IDOCK:   -3.76 KCAL/MOL
REMARK 922        TOTAL FREE ENERGY PREDICTED BY IDOCK:   -4.78 KCAL/MOL
REMARK 923 INTER-LIGAND FREE ENERGY PREDICTED BY IDOCK:   -4.77 KCAL/MOL
REMARK 924 INTRA-LIGAND FREE ENERGY PREDICTED BY IDOCK:   -0.01 KCAL/MOL
REMARK 927      BINDING AFFINITY PREDICTED BY RF-SCORE:    0.00 PKD
ROOT
HETATM    1  C   UNL     1      -9.868  11.399  65.126  1.00  0.00    -0.302 C  
HETATM    2  C   UNL     1     -11.285  11.821  65.566  1.00  0.00    -0.258 C  
ENDROOT
BRANCH   2   3
HETATM    3  N   UNL     1     -11.864  12.753  64.536  1.00  0.00    -0.356 NA 
HETATM    4  C   UNL     1     -12.706  13.802  65.124  1.00  0.00    -0.397 C  
HETATM    5  C   UNL     1     -12.680  12.036  63.538  1.00  0.00    -0.443 C  
ENDBRANCH   2   3
BRANCH   2   6
HETATM    6  C   UNL     1     -11.212  12.425  67.022  1.00  0.00    -0.303 C  
BRANCH   6   7
HETATM    7  N   UNL     1      -9.815  12.518  67.566  1.00  0.00    -0.196 NA 
HETATM    8  C   UNL     1      -9.366  11.416  68.373  1.00  0.00    -0.194 A  
HETATM    9  C   UNL     1     -10.164  10.278  68.628  1.00  0.00    -0.196 A  
HETATM   10  C   UNL     1      -9.742   9.210  69.434  1.00  0.00    -0.170 A  
HETATM   11  C   UNL     1      -8.488   9.233  70.017  1.00  0.00    -0.185 A  
HETATM   12  C   UNL     1      -7.666  10.325  69.784  1.00  0.00    -0.159 A  
HETATM   13  C   UNL     1      -8.091  11.403  68.978  1.00  0.00    -0.001 A  
HETATM   14  S   UNL     1      -6.893  12.696  68.810  1.00  0.00    -0.096 SA 
HETATM   15  C   UNL     1      -7.743  13.873  67.797  1.00  0.00    -0.172 A  
HETATM   16  C   UNL     1      -6.985  15.029  67.505  1.00  0.00    -0.214 A  
HETATM   17  C   UNL     1      -7.495  16.043  66.710  1.00  0.00    -0.218 A  
HETATM   18  C   UNL     1      -8.778  15.913  66.213  1.00  0.00    -0.372 A  
HETATM   19  C   UNL     1      -9.543  14.771  66.517  1.00  0.00    -0.304 A  
HETATM   20  C   UNL     1      -9.055  13.701  67.303  1.00  0.00    -0.228 A  
ENDBRANCH   6   7
ENDBRANCH   2   6
TORSDOF 3
ENDMDL
MODEL      127
REMARK 921   NORMALIZED FREE ENERGY PREDICTED BY IDOCK:   -3.73 KCAL/MOL
REMARK 922        TOTAL FREE ENERGY PREDICTED BY IDOCK:   -4.75 KCAL/MOL
REMARK 923 INTER-LIGAND FREE ENERGY PREDICTED BY IDOCK:   -4.56 KCAL/MOL
REMARK 924 INTRA-LIGAND FREE ENERGY PREDICTED BY IDOCK:   -0.19 KCAL/MOL
REMARK 927      BINDING AFFINITY PREDICTED BY RF-SCORE:    0.00 PKD
ROOT
HETATM    1  C   UNL     1     -12.891  12.575  64.819  1.00  0.00    -0.287 C  
HETATM    2  C   UNL     1     -12.327  13.613  65.810  1.00  0.00    -0.482 C  
ENDROOT
BRANCH   2   3
HETATM    3  N   UNL     1     -11.098  14.247  65.215  1.00  0.00    -0.319 NA 
HETATM    4  C   UNL     1     -11.338  15.608  64.724  1.00  0.00    -0.343 C  
HETATM    5  C   UNL     1     -10.558  13.458  64.092  1.00  0.00    -0.236 C  
ENDBRANCH   2   3
BRANCH   2   6
HETATM    6  C   UNL     1     -12.089  12.915  67.205  1.00  0.00    -0.212 C  
BRANCH   6   7
HETATM    7  N   UNL     1     -10.638  12.755  67.558  1.00  0.00    -0.227 NA 
HETATM    8  C   UNL     1     -10.056  11.463  67.310  1.00  0.00    -0.192 A  
HETATM    9  C   UNL     1     -10.780  10.396  66.733  1.00  0.00    -0.235 A  
HETATM   10  C   UNL     1     -10.227   9.126  66.510  1.00  0.00    -0.322 A  
HETATM   11  C   UNL     1      -8.910   8.873  66.850  1.00  0.00    -0.141 A  
HETATM   12  C   UNL     1      -8.158   9.895  67.408  1.00  0.00    -0.113 A  
HETATM   13  C   UNL     1      -8.715  11.172  67.638  1.00  0.00    -0.129 A  
HETATM   14  S   UNL     1      -7.589  12.333  68.359  1.00  0.00    -0.128 SA 
HETATM   15  C   UNL     1      -8.596  13.776  68.543  1.00  0.00    -0.122 A  
HETATM   16  C   UNL     1      -7.918  14.879  69.109  1.00  0.00    -0.165 A  
HETATM   17  C   UNL     1      -8.556  16.093  69.308  1.00  0.00    -0.191 A  
HETATM   18  C   UNL     1      -9.887  16.208  68.954  1.00  0.00    -0.239 A  
HETATM   19  C   UNL     1     -10.572  15.106  68.406  1.00  0.00    -0.238 A  
HETATM   20  C   UNL     1      -9.955  13.856  68.163  1.00  0.00    -0.240 A  
ENDBRANCH   6   7
ENDBRANCH   2   6
TORSDOF 3
ENDMDL
MODEL      128
REMARK 921   NORMALIZED FREE ENERGY PREDICTED BY IDOCK:   -3.71 KCAL/MOL
REMARK 922        TOTAL FREE ENERGY PREDICTED BY IDOCK:   -4.73 KCAL/MOL
REMARK 923 INTER-LIGAND FREE ENERGY PREDICTED BY IDOCK:   -4.53 KCAL/MOL
REMARK 924 INTRA-LIGAND FREE ENERGY PREDICTED BY IDOCK:   -0.20 KCAL/MOL
REMARK 927      BINDING AFFINITY PREDICTED BY RF-SCORE:    0.00 PKD
ROOT
HETATM    1  C   UNL     1      -7.349  15.372  69.797  1.00  0.00    -0.123 C  
HETATM    2  C   UNL     1      -7.632  14.443  68.600  1.00  0.00    -0.132 C  
ENDROOT
BRANCH   2   3
HETATM    3  N   UNL     1      -6.889  13.148  68.794  1.00  0.00    -0.098 NA 
HETATM    4  C   UNL     1      -6.008  13.165  69.967  1.00  0.00    -0.135 C  
HETATM    5  C   UNL     1      -6.062  12.804  67.622  1.00  0.00    -0.152 C  
ENDBRANCH   2   3
BRANCH   2   6
HETATM    6  C   UNL     1      -7.275  15.203  67.263  1.00  0.00    -0.162 C  
BRANCH   6   7
HETATM    7  N   UNL     1      -8.344  16.154  66.808  1.00  0.00    -0.235 NA 
HETATM    8  C   UNL     1      -9.473  15.576  66.133  1.00  0.00    -0.341 A  
HETATM    9  C   UNL     1      -9.611  14.185  65.925  1.00  0.00    -0.208 A  
HETATM   10  C   UNL     1     -10.698  13.615  65.246  1.00  0.00    -0.340 A  
HETATM   11  C   UNL     1     -11.707  14.421  64.749  1.00  0.00    -0.420 A  
HETATM   12  C   UNL     1     -11.619  15.791  64.939  1.00  0.00    -0.104 A  
HETATM   13  C   UNL     1     -10.523  16.367  65.619  1.00  0.00    -0.347 A  
HETATM   14  S   UNL     1     -10.601  18.130  65.752  1.00  0.00     0.033 SA 
HETATM   15  C   UNL     1      -9.095  18.515  66.599  1.00  0.00    -0.305 A  
HETATM   16  C   UNL     1      -8.911  19.896  66.840  1.00  0.00    -0.434 A  
HETATM   17  C   UNL     1      -7.792  20.367  67.507  1.00  0.00    -0.332 A  
HETATM   18  C   UNL     1      -6.838  19.459  67.926  1.00  0.00    -0.274 A  
HETATM   19  C   UNL     1      -7.010  18.084  67.673  1.00  0.00    -0.205 A  
HETATM   20  C   UNL     1      -8.147  17.555  67.018  1.00  0.00    -0.217 A  
ENDBRANCH   6   7
ENDBRANCH   2   6
TORSDOF 3
ENDMDL
MODEL      129
REMARK 921   NORMALIZED FREE ENERGY PREDICTED BY IDOCK:   -3.70 KCAL/MOL
REMARK 922        TOTAL FREE ENERGY PREDICTED BY IDOCK:   -4.71 KCAL/MOL
REMARK 923 INTER-LIGAND FREE ENERGY PREDICTED BY IDOCK:   -4.51 KCAL/MOL
REMARK 924 INTRA-LIGAND FREE ENERGY PREDICTED BY IDOCK:   -0.20 KCAL/MOL
REMARK 927      BINDING AFFINITY PREDICTED BY RF-SCORE:    0.00 PKD
ROOT
HETATM    1  C   UNL     1     -10.041   5.532  71.313  1.00  0.00    -0.266 C  
HETATM    2  C   UNL     1      -9.724   6.365  70.055  1.00  0.00    -0.165 C  
ENDROOT
BRANCH   2   3
HETATM    3  N   UNL     1      -8.933   5.521  69.091  1.00  0.00    -0.108 NA 
HETATM    4  C   UNL     1      -7.484   5.696  69.235  1.00  0.00    -0.079 C  
HETATM    5  C   UNL     1      -9.279   5.815  67.688  1.00  0.00    -0.105 C  
ENDBRANCH   2   3
BRANCH   2   6
HETATM    6  C   UNL     1      -9.006   7.701  70.490  1.00  0.00    -0.151 C  
BRANCH   6   7
HETATM    7  N   UNL     1      -9.689   8.941  69.991  1.00  0.00    -0.169 NA 
HETATM    8  C   UNL     1     -10.919   9.304  70.642  1.00  0.00    -0.276 A  
HETATM    9  C   UNL     1     -11.460   8.567  71.719  1.00  0.00    -0.378 A  
HETATM   10  C   UNL     1     -12.672   8.900  72.343  1.00  0.00    -0.436 A  
HETATM   11  C   UNL     1     -13.394  10.000  71.916  1.00  0.00    -0.516 A  
HETATM   12  C   UNL     1     -12.894  10.759  70.869  1.00  0.00    -0.443 A  
HETATM   13  C   UNL     1     -11.678  10.423  70.236  1.00  0.00    -0.321 A  
HETATM   14  S   UNL     1     -11.220  11.516  68.922  1.00  0.00    -0.272 SA 
HETATM   15  C   UNL     1      -9.709  10.801  68.340  1.00  0.00    -0.174 A  
HETATM   16  C   UNL     1      -9.120  11.504  67.265  1.00  0.00    -0.164 A  
HETATM   17  C   UNL     1      -7.925  11.087  66.700  1.00  0.00    -0.156 A  
HETATM   18  C   UNL     1      -7.317   9.950  67.199  1.00  0.00    -0.091 A  
HETATM   19  C   UNL     1      -7.911   9.237  68.258  1.00  0.00    -0.098 A  
HETATM   20  C   UNL     1      -9.115   9.639  68.881  1.00  0.00    -0.144 A  
ENDBRANCH   6   7
ENDBRANCH   2   6
TORSDOF 3
ENDMDL
MODEL      130
REMARK 921   NORMALIZED FREE ENERGY PREDICTED BY IDOCK:   -3.70 KCAL/MOL
REMARK 922        TOTAL FREE ENERGY PREDICTED BY IDOCK:   -4.71 KCAL/MOL
REMARK 923 INTER-LIGAND FREE ENERGY PREDICTED BY IDOCK:   -4.45 KCAL/MOL
REMARK 924 INTRA-LIGAND FREE ENERGY PREDICTED BY IDOCK:   -0.26 KCAL/MOL
REMARK 927      BINDING AFFINITY PREDICTED BY RF-SCORE:    0.00 PKD
ROOT
HETATM    1  C   UNL     1     -10.751  14.550  68.628  1.00  0.00    -0.257 C  
HETATM    2  C   UNL     1      -9.913  13.270  68.442  1.00  0.00    -0.226 C  
ENDROOT
BRANCH   2   3
HETATM    3  N   UNL     1      -8.772  13.559  67.504  1.00  0.00    -0.195 NA 
HETATM    4  C   UNL     1      -7.458  13.322  68.113  1.00  0.00    -0.128 C  
HETATM    5  C   UNL     1      -8.793  14.952  67.021  1.00  0.00    -0.232 C  
ENDBRANCH   2   3
BRANCH   2   6
HETATM    6  C   UNL     1     -10.861  12.099  67.972  1.00  0.00    -0.222 C  
BRANCH   6   7
HETATM    7  N   UNL     1     -10.125  10.852  67.573  1.00  0.00    -0.180 NA 
HETATM    8  C   UNL     1      -9.885  10.671  66.167  1.00  0.00    -0.217 A  
HETATM    9  C   UNL     1     -10.280  11.617  65.195  1.00  0.00    -0.319 A  
HETATM   10  C   UNL     1     -10.072  11.435  63.819  1.00  0.00    -0.408 A  
HETATM   11  C   UNL     1      -9.444  10.293  63.356  1.00  0.00    -0.340 A  
HETATM   12  C   UNL     1      -9.028   9.342  64.276  1.00  0.00    -0.204 A  
HETATM   13  C   UNL     1      -9.242   9.521  65.660  1.00  0.00    -0.223 A  
HETATM   14  S   UNL     1      -8.639   8.191  66.662  1.00  0.00    -0.141 SA 
HETATM   15  C   UNL     1      -9.094   8.707  68.293  1.00  0.00    -0.141 A  
HETATM   16  C   UNL     1      -8.714   7.799  69.307  1.00  0.00    -0.139 A  
HETATM   17  C   UNL     1      -8.980   8.057  70.642  1.00  0.00    -0.148 A  
HETATM   18  C   UNL     1      -9.643   9.224  70.972  1.00  0.00    -0.329 A  
HETATM   19  C   UNL     1     -10.039  10.123  69.963  1.00  0.00    -0.241 A  
HETATM   20  C   UNL     1      -9.768   9.912  68.590  1.00  0.00    -0.157 A  
ENDBRANCH   6   7
ENDBRANCH   2   6
TORSDOF 3
ENDMDL
MODEL      131
REMARK 921   NORMALIZED FREE ENERGY PREDICTED BY IDOCK:   -3.69 KCAL/MOL
REMARK 922        TOTAL FREE ENERGY PREDICTED BY IDOCK:   -4.71 KCAL/MOL
REMARK 923 INTER-LIGAND FREE ENERGY PREDICTED BY IDOCK:   -4.44 KCAL/MOL
REMARK 924 INTRA-LIGAND FREE ENERGY PREDICTED BY IDOCK:   -0.27 KCAL/MOL
REMARK 927      BINDING AFFINITY PREDICTED BY RF-SCORE:    0.00 PKD
ROOT
HETATM    1  C   UNL     1      -8.687  11.745  67.419  1.00  0.00    -0.162 C  
HETATM    2  C   UNL     1      -9.474  11.303  68.669  1.00  0.00    -0.175 C  
ENDROOT
BRANCH   2   3
HETATM    3  N   UNL     1      -9.178   9.854  68.952  1.00  0.00    -0.153 NA 
HETATM    4  C   UNL     1      -7.756   9.602  69.211  1.00  0.00    -0.095 C  
HETATM    5  C   UNL     1      -9.589   8.979  67.839  1.00  0.00    -0.147 C  
ENDBRANCH   2   3
BRANCH   2   6
HETATM    6  C   UNL     1     -11.004  11.624  68.453  1.00  0.00    -0.220 C  
BRANCH   6   7
HETATM    7  N   UNL     1     -11.724  12.000  69.716  1.00  0.00    -0.323 NA 
HETATM    8  C   UNL     1     -11.698  13.391  70.080  1.00  0.00    -0.196 A  
HETATM    9  C   UNL     1     -11.063  14.377  69.291  1.00  0.00    -0.300 A  
HETATM   10  C   UNL     1     -11.012  15.732  69.653  1.00  0.00    -0.306 A  
HETATM   11  C   UNL     1     -11.607  16.161  70.825  1.00  0.00    -0.382 A  
HETATM   12  C   UNL     1     -12.251  15.229  71.625  1.00  0.00    -0.433 A  
HETATM   13  C   UNL     1     -12.300  13.865  71.265  1.00  0.00    -0.335 A  
HETATM   14  S   UNL     1     -13.167  12.843  72.422  1.00  0.00    -0.193 SA 
HETATM   15  C   UNL     1     -13.006  11.234  71.704  1.00  0.00    -0.432 A  
HETATM   16  C   UNL     1     -13.632  10.209  72.450  1.00  0.00    -0.109 A  
HETATM   17  C   UNL     1     -13.614   8.892  72.020  1.00  0.00    -0.489 A  
HETATM   18  C   UNL     1     -12.956   8.587  70.843  1.00  0.00     0.181 A  
HETATM   19  C   UNL     1     -12.317   9.603  70.106  1.00  0.00     0.202 A  
HETATM   20  C   UNL     1     -12.330  10.963  70.493  1.00  0.00    -0.374 A  
ENDBRANCH   6   7
ENDBRANCH   2   6
TORSDOF 3
ENDMDL
MODEL      132
REMARK 921   NORMALIZED FREE ENERGY PREDICTED BY IDOCK:   -3.68 KCAL/MOL
REMARK 922        TOTAL FREE ENERGY PREDICTED BY IDOCK:   -4.69 KCAL/MOL
REMARK 923 INTER-LIGAND FREE ENERGY PREDICTED BY IDOCK:   -4.37 KCAL/MOL
REMARK 924 INTRA-LIGAND FREE ENERGY PREDICTED BY IDOCK:   -0.32 KCAL/MOL
REMARK 927      BINDING AFFINITY PREDICTED BY RF-SCORE:    0.00 PKD
ROOT
HETATM    1  C   UNL     1      -5.441  14.030  67.928  1.00  0.00    -0.086 C  
HETATM    2  C   UNL     1      -6.979  14.025  67.818  1.00  0.00    -0.177 C  
ENDROOT
BRANCH   2   3
HETATM    3  N   UNL     1      -7.571  14.358  69.162  1.00  0.00    -0.107 NA 
HETATM    4  C   UNL     1      -8.406  15.565  69.135  1.00  0.00    -0.253 C  
HETATM    5  C   UNL     1      -6.532  14.560  70.189  1.00  0.00    -0.156 C  
ENDBRANCH   2   3
BRANCH   2   6
HETATM    6  C   UNL     1      -7.447  12.639  67.227  1.00  0.00    -0.109 C  
BRANCH   6   7
HETATM    7  N   UNL     1      -8.872  12.295  67.554  1.00  0.00    -0.173 NA 
HETATM    8  C   UNL     1      -9.887  12.977  66.799  1.00  0.00    -0.243 A  
HETATM    9  C   UNL     1      -9.587  13.901  65.773  1.00  0.00    -0.114 A  
HETATM   10  C   UNL     1     -10.571  14.589  65.047  1.00  0.00    -0.458 A  
HETATM   11  C   UNL     1     -11.911  14.370  65.315  1.00  0.00    -0.373 A  
HETATM   12  C   UNL     1     -12.252  13.463  66.307  1.00  0.00    -0.456 A  
HETATM   13  C   UNL     1     -11.263  12.774  67.041  1.00  0.00    -0.292 A  
HETATM   14  S   UNL     1     -11.909  11.665  68.260  1.00  0.00    -0.185 SA 
HETATM   15  C   UNL     1     -10.438  11.016  69.001  1.00  0.00    -0.216 A  
HETATM   16  C   UNL     1     -10.682  10.078  70.030  1.00  0.00    -0.348 A  
HETATM   17  C   UNL     1      -9.640   9.462  70.704  1.00  0.00    -0.331 A  
HETATM   18  C   UNL     1      -8.342   9.791  70.362  1.00  0.00    -0.106 A  
HETATM   19  C   UNL     1      -8.095  10.737  69.349  1.00  0.00    -0.053 A  
HETATM   20  C   UNL     1      -9.126  11.373  68.618  1.00  0.00    -0.135 A  
ENDBRANCH   6   7
ENDBRANCH   2   6
TORSDOF 3
ENDMDL
MODEL      133
REMARK 921   NORMALIZED FREE ENERGY PREDICTED BY IDOCK:   -3.66 KCAL/MOL
REMARK 922        TOTAL FREE ENERGY PREDICTED BY IDOCK:   -4.67 KCAL/MOL
REMARK 923 INTER-LIGAND FREE ENERGY PREDICTED BY IDOCK:   -4.98 KCAL/MOL
REMARK 924 INTRA-LIGAND FREE ENERGY PREDICTED BY IDOCK:    0.31 KCAL/MOL
REMARK 927      BINDING AFFINITY PREDICTED BY RF-SCORE:    0.00 PKD
ROOT
HETATM    1  C   UNL     1     -10.831  14.725  70.254  1.00  0.00    -0.073 C  
HETATM    2  C   UNL     1     -12.339  14.478  70.044  1.00  0.00    -0.323 C  
ENDROOT
BRANCH   2   3
HETATM    3  N   UNL     1     -13.015  14.380  71.385  1.00  0.00    -0.317 NA 
HETATM    4  C   UNL     1     -14.352  14.983  71.397  1.00  0.00    -0.497 C  
HETATM    5  C   UNL     1     -12.226  15.027  72.450  1.00  0.00    -0.351 C  
ENDBRANCH   2   3
BRANCH   2   6
HETATM    6  C   UNL     1     -12.529  13.209  69.125  1.00  0.00     0.267 C  
BRANCH   6   7
HETATM    7  N   UNL     1     -11.497  12.142  69.352  1.00  0.00    -0.290 NA 
HETATM    8  C   UNL     1     -10.344  12.170  68.493  1.00  0.00    -0.221 A  
HETATM    9  C   UNL     1     -10.151  13.160  67.503  1.00  0.00    -0.222 A  
HETATM   10  C   UNL     1      -9.041  13.180  66.646  1.00  0.00    -0.180 A  
HETATM   11  C   UNL     1      -8.064  12.207  66.751  1.00  0.00    -0.055 A  
HETATM   12  C   UNL     1      -8.206  11.222  67.717  1.00  0.00    -0.120 A  
HETATM   13  C   UNL     1      -9.325  11.197  68.577  1.00  0.00    -0.190 A  
HETATM   14  S   UNL     1      -9.317   9.858  69.735  1.00  0.00    -0.202 SA 
HETATM   15  C   UNL     1     -10.838  10.098  70.607  1.00  0.00    -0.235 A  
HETATM   16  C   UNL     1     -11.077   9.139  71.616  1.00  0.00    -0.445 A  
HETATM   17  C   UNL     1     -12.216   9.191  72.404  1.00  0.00    -0.263 A  
HETATM   18  C   UNL     1     -13.134  10.199  72.177  1.00  0.00    -0.463 A  
HETATM   19  C   UNL     1     -12.908  11.147  71.161  1.00  0.00    -0.473 A  
HETATM   20  C   UNL     1     -11.749  11.147  70.349  1.00  0.00    -0.320 A  
ENDBRANCH   6   7
ENDBRANCH   2   6
TORSDOF 3
ENDMDL
MODEL      134
REMARK 921   NORMALIZED FREE ENERGY PREDICTED BY IDOCK:   -3.66 KCAL/MOL
REMARK 922        TOTAL FREE ENERGY PREDICTED BY IDOCK:   -4.66 KCAL/MOL
REMARK 923 INTER-LIGAND FREE ENERGY PREDICTED BY IDOCK:   -4.30 KCAL/MOL
REMARK 924 INTRA-LIGAND FREE ENERGY PREDICTED BY IDOCK:   -0.36 KCAL/MOL
REMARK 927      BINDING AFFINITY PREDICTED BY RF-SCORE:    0.00 PKD
ROOT
HETATM    1  C   UNL     1      -6.242  11.867  68.144  1.00  0.00    -0.051 C  
HETATM    2  C   UNL     1      -7.000  10.771  68.919  1.00  0.00    -0.077 C  
ENDROOT
BRANCH   2   3
HETATM    3  N   UNL     1      -6.042   9.665  69.274  1.00  0.00    -0.037 NA 
HETATM    4  C   UNL     1      -6.405   8.379  68.668  1.00  0.00    -0.053 C  
HETATM    5  C   UNL     1      -5.950   9.460  70.731  1.00  0.00    -0.063 C  
ENDBRANCH   2   3
BRANCH   2   6
HETATM    6  C   UNL     1      -8.244  10.305  68.066  1.00  0.00    -0.113 C  
BRANCH   6   7
HETATM    7  N   UNL     1      -9.552  10.850  68.562  1.00  0.00    -0.180 NA 
HETATM    8  C   UNL     1     -10.085  11.983  67.856  1.00  0.00    -0.195 A  
HETATM    9  C   UNL     1      -9.448  12.552  66.730  1.00  0.00    -0.231 A  
HETATM   10  C   UNL     1      -9.949  13.672  66.050  1.00  0.00    -0.313 A  
HETATM   11  C   UNL     1     -11.125  14.270  66.468  1.00  0.00    -0.323 A  
HETATM   12  C   UNL     1     -11.790  13.738  67.562  1.00  0.00    -0.422 A  
HETATM   13  C   UNL     1     -11.284  12.614  68.250  1.00  0.00    -0.272 A  
HETATM   14  S   UNL     1     -12.282  12.095  69.618  1.00  0.00    -0.046 SA 
HETATM   15  C   UNL     1     -11.363  10.726  70.262  1.00  0.00    -0.290 A  
HETATM   16  C   UNL     1     -11.961  10.113  71.386  1.00  0.00    -0.447 A  
HETATM   17  C   UNL     1     -11.380   9.017  72.003  1.00  0.00    -0.395 A  
HETATM   18  C   UNL     1     -10.184   8.533  71.506  1.00  0.00    -0.320 A  
HETATM   19  C   UNL     1      -9.577   9.151  70.397  1.00  0.00    -0.268 A  
HETATM   20  C   UNL     1     -10.145  10.256  69.721  1.00  0.00    -0.203 A  
ENDBRANCH   6   7
ENDBRANCH   2   6
TORSDOF 3
ENDMDL
MODEL      135
REMARK 921   NORMALIZED FREE ENERGY PREDICTED BY IDOCK:   -3.65 KCAL/MOL
REMARK 922        TOTAL FREE ENERGY PREDICTED BY IDOCK:   -4.66 KCAL/MOL
REMARK 923 INTER-LIGAND FREE ENERGY PREDICTED BY IDOCK:   -4.38 KCAL/MOL
REMARK 924 INTRA-LIGAND FREE ENERGY PREDICTED BY IDOCK:   -0.28 KCAL/MOL
REMARK 927      BINDING AFFINITY PREDICTED BY RF-SCORE:    0.00 PKD
ROOT
HETATM    1  C   UNL     1     -10.659  16.580  66.432  1.00  0.00    -0.221 C  
HETATM    2  C   UNL     1     -10.534  15.054  66.252  1.00  0.00    -0.304 C  
ENDROOT
BRANCH   2   3
HETATM    3  N   UNL     1     -11.527  14.596  65.217  1.00  0.00    -0.351 NA 
HETATM    4  C   UNL     1     -12.753  14.045  65.806  1.00  0.00    -0.450 C  
HETATM    5  C   UNL     1     -10.961  13.567  64.325  1.00  0.00    -0.336 C  
ENDBRANCH   2   3
BRANCH   2   6
HETATM    6  C   UNL     1     -10.692  14.355  67.658  1.00  0.00    -0.263 C  
BRANCH   6   7
HETATM    7  N   UNL     1      -9.507  13.520  68.051  1.00  0.00    -0.214 NA 
HETATM    8  C   UNL     1      -8.369  14.225  68.575  1.00  0.00    -0.156 A  
HETATM    9  C   UNL     1      -8.353  15.627  68.753  1.00  0.00    -0.189 A  
HETATM   10  C   UNL     1      -7.238  16.325  69.241  1.00  0.00    -0.221 A  
HETATM   11  C   UNL     1      -6.085  15.641  69.583  1.00  0.00    -0.157 A  
HETATM   12  C   UNL     1      -6.060  14.263  69.435  1.00  0.00    -0.108 A  
HETATM   13  C   UNL     1      -7.179  13.559  68.940  1.00  0.00    -0.070 A  
HETATM   14  S   UNL     1      -6.941  11.809  68.826  1.00  0.00    -0.109 SA 
HETATM   15  C   UNL     1      -8.481  11.257  68.150  1.00  0.00    -0.145 A  
HETATM   16  C   UNL     1      -8.554   9.859  67.959  1.00  0.00    -0.121 A  
HETATM   17  C   UNL     1      -9.696   9.260  67.453  1.00  0.00    -0.208 A  
HETATM   18  C   UNL     1     -10.772  10.060  67.120  1.00  0.00    -0.279 A  
HETATM   19  C   UNL     1     -10.697  11.456  67.292  1.00  0.00    -0.283 A  
HETATM   20  C   UNL     1      -9.561  12.108  67.828  1.00  0.00    -0.195 A  
ENDBRANCH   6   7
ENDBRANCH   2   6
TORSDOF 3
ENDMDL
MODEL      136
REMARK 921   NORMALIZED FREE ENERGY PREDICTED BY IDOCK:   -3.58 KCAL/MOL
REMARK 922        TOTAL FREE ENERGY PREDICTED BY IDOCK:   -4.57 KCAL/MOL
REMARK 923 INTER-LIGAND FREE ENERGY PREDICTED BY IDOCK:   -4.58 KCAL/MOL
REMARK 924 INTRA-LIGAND FREE ENERGY PREDICTED BY IDOCK:    0.00 KCAL/MOL
REMARK 927      BINDING AFFINITY PREDICTED BY RF-SCORE:    0.00 PKD
ROOT
HETATM    1  C   UNL     1      -9.464  10.569  65.997  1.00  0.00    -0.227 C  
HETATM    2  C   UNL     1      -7.996  10.881  66.352  1.00  0.00    -0.157 C  
ENDROOT
BRANCH   2   3
HETATM    3  N   UNL     1      -7.201   9.603  66.328  1.00  0.00    -0.092 NA 
HETATM    4  C   UNL     1      -6.660   9.243  67.644  1.00  0.00    -0.064 C  
HETATM    5  C   UNL     1      -6.068   9.674  65.386  1.00  0.00    -0.069 C  
ENDBRANCH   2   3
BRANCH   2   6
HETATM    6  C   UNL     1      -7.953  11.648  67.730  1.00  0.00    -0.131 C  
BRANCH   6   7
HETATM    7  N   UNL     1      -9.276  12.230  68.137  1.00  0.00    -0.194 NA 
HETATM    8  C   UNL     1      -9.564  13.559  67.670  1.00  0.00    -0.222 A  
HETATM    9  C   UNL     1      -8.680  14.288  66.843  1.00  0.00    -0.202 A  
HETATM   10  C   UNL     1      -8.942  15.594  66.403  1.00  0.00    -0.362 A  
HETATM   11  C   UNL     1     -10.116  16.228  66.770  1.00  0.00    -0.281 A  
HETATM   12  C   UNL     1     -11.018  15.546  67.572  1.00  0.00    -0.316 A  
HETATM   13  C   UNL     1     -10.753  14.234  68.019  1.00  0.00    -0.238 A  
HETATM   14  S   UNL     1     -12.030  13.544  69.034  1.00  0.00    -0.303 SA 
HETATM   15  C   UNL     1     -11.375  11.951  69.441  1.00  0.00    -0.261 A  
HETATM   16  C   UNL     1     -12.224  11.176  70.262  1.00  0.00    -0.436 A  
HETATM   17  C   UNL     1     -11.869   9.897  70.661  1.00  0.00    -0.386 A  
HETATM   18  C   UNL     1     -10.651   9.389  70.252  1.00  0.00    -0.297 A  
HETATM   19  C   UNL     1      -9.794  10.165  69.448  1.00  0.00    -0.247 A  
HETATM   20  C   UNL     1     -10.125  11.465  68.997  1.00  0.00    -0.090 A  
ENDBRANCH   6   7
ENDBRANCH   2   6
TORSDOF 3
ENDMDL
MODEL      137
REMARK 921   NORMALIZED FREE ENERGY PREDICTED BY IDOCK:   -3.58 KCAL/MOL
REMARK 922        TOTAL FREE ENERGY PREDICTED BY IDOCK:   -4.57 KCAL/MOL
REMARK 923 INTER-LIGAND FREE ENERGY PREDICTED BY IDOCK:   -4.25 KCAL/MOL
REMARK 924 INTRA-LIGAND FREE ENERGY PREDICTED BY IDOCK:   -0.32 KCAL/MOL
REMARK 927      BINDING AFFINITY PREDICTED BY RF-SCORE:    0.00 PKD
ROOT
HETATM    1  C   UNL     1      -9.923  10.497  66.263  1.00  0.00    -0.276 C  
HETATM    2  C   UNL     1      -9.553   9.449  67.332  1.00  0.00    -0.145 C  
ENDROOT
BRANCH   2   3
HETATM    3  N   UNL     1      -8.175   8.915  67.044  1.00  0.00    -0.106 NA 
HETATM    4  C   UNL     1      -7.264   9.041  68.187  1.00  0.00    -0.079 C  
HETATM    5  C   UNL     1      -7.547   9.597  65.897  1.00  0.00    -0.103 C  
ENDBRANCH   2   3
BRANCH   2   6
HETATM    6  C   UNL     1     -10.681   8.346  67.382  1.00  0.00    -0.155 C  
BRANCH   6   7
HETATM    7  N   UNL     1     -10.444   7.290  68.423  1.00  0.00    -0.199 NA 
HETATM    8  C   UNL     1     -10.024   6.000  67.946  1.00  0.00    -0.131 A  
HETATM    9  C   UNL     1      -9.806   5.725  66.578  1.00  0.00    -0.193 A  
HETATM   10  C   UNL     1      -9.420   4.462  66.102  1.00  0.00    -0.175 A  
HETATM   11  C   UNL     1      -9.226   3.416  66.986  1.00  0.00    -0.208 A  
HETATM   12  C   UNL     1      -9.418   3.645  68.340  1.00  0.00    -0.214 A  
HETATM   13  C   UNL     1      -9.811   4.913  68.820  1.00  0.00    -0.161 A  
HETATM   14  S   UNL     1     -10.003   4.993  70.578  1.00  0.00    -0.253 SA 
HETATM   15  C   UNL     1     -10.525   6.665  70.829  1.00  0.00    -0.216 A  
HETATM   16  C   UNL     1     -10.750   6.997  72.184  1.00  0.00    -0.247 A  
HETATM   17  C   UNL     1     -11.149   8.271  72.556  1.00  0.00    -0.439 A  
HETATM   18  C   UNL     1     -11.339   9.221  71.571  1.00  0.00    -0.455 A  
HETATM   19  C   UNL     1     -11.132   8.889  70.218  1.00  0.00    -0.251 A  
HETATM   20  C   UNL     1     -10.703   7.610  69.793  1.00  0.00    -0.240 A  
ENDBRANCH   6   7
ENDBRANCH   2   6
TORSDOF 3
ENDMDL
MODEL      138
REMARK 921   NORMALIZED FREE ENERGY PREDICTED BY IDOCK:   -3.55 KCAL/MOL
REMARK 922        TOTAL FREE ENERGY PREDICTED BY IDOCK:   -4.54 KCAL/MOL
REMARK 923 INTER-LIGAND FREE ENERGY PREDICTED BY IDOCK:   -4.39 KCAL/MOL
REMARK 924 INTRA-LIGAND FREE ENERGY PREDICTED BY IDOCK:   -0.14 KCAL/MOL
REMARK 927      BINDING AFFINITY PREDICTED BY RF-SCORE:    0.00 PKD
ROOT
HETATM    1  C   UNL     1      -7.220  15.430  69.923  1.00  0.00    -0.061 C  
HETATM    2  C   UNL     1      -7.150  14.593  68.630  1.00  0.00    -0.115 C  
ENDROOT
BRANCH   2   3
HETATM    3  N   UNL     1      -6.238  13.416  68.853  1.00  0.00    -0.084 NA 
HETATM    4  C   UNL     1      -5.558  13.459  70.152  1.00  0.00    -0.126 C  
HETATM    5  C   UNL     1      -5.200  13.317  67.811  1.00  0.00    -0.075 C  
ENDBRANCH   2   3
BRANCH   2   6
HETATM    6  C   UNL     1      -6.723  15.530  67.434  1.00  0.00    -0.166 C  
BRANCH   6   7
HETATM    7  N   UNL     1      -7.809  16.461  66.981  1.00  0.00    -0.188 NA 
HETATM    8  C   UNL     1      -7.593  17.863  67.214  1.00  0.00    -0.202 A  
HETATM    9  C   UNL     1      -6.413  18.367  67.807  1.00  0.00    -0.205 A  
HETATM   10  C   UNL     1      -6.205  19.731  68.061  1.00  0.00    -0.255 A  
HETATM   11  C   UNL     1      -7.175  20.657  67.720  1.00  0.00    -0.306 A  
HETATM   12  C   UNL     1      -8.344  20.209  67.126  1.00  0.00    -0.391 A  
HETATM   13  C   UNL     1      -8.557  18.836  66.874  1.00  0.00    -0.284 A  
HETATM   14  S   UNL     1     -10.114  18.475  66.112  1.00  0.00    -0.318 SA 
HETATM   15  C   UNL     1     -10.072  16.710  65.979  1.00  0.00    -0.340 A  
HETATM   16  C   UNL     1     -11.227  16.153  65.384  1.00  0.00    -0.006 A  
HETATM   17  C   UNL     1     -11.350  14.787  65.191  1.00  0.00    -0.379 A  
HETATM   18  C   UNL     1     -10.320  13.963  65.605  1.00  0.00    -0.337 A  
HETATM   19  C   UNL     1      -9.175  14.513  66.213  1.00  0.00    -0.231 A  
HETATM   20  C   UNL     1      -8.996  15.902  66.410  1.00  0.00    -0.326 A  
ENDBRANCH   6   7
ENDBRANCH   2   6
TORSDOF 3
ENDMDL
MODEL      139
REMARK 921   NORMALIZED FREE ENERGY PREDICTED BY IDOCK:   -3.53 KCAL/MOL
REMARK 922        TOTAL FREE ENERGY PREDICTED BY IDOCK:   -4.51 KCAL/MOL
REMARK 923 INTER-LIGAND FREE ENERGY PREDICTED BY IDOCK:   -4.61 KCAL/MOL
REMARK 924 INTRA-LIGAND FREE ENERGY PREDICTED BY IDOCK:    0.10 KCAL/MOL
REMARK 927      BINDING AFFINITY PREDICTED BY RF-SCORE:    0.00 PKD
ROOT
HETATM    1  C   UNL     1      -9.766   6.629  70.114  1.00  0.00    -0.174 C  
HETATM    2  C   UNL     1      -9.645   8.157  70.284  1.00  0.00    -0.171 C  
ENDROOT
BRANCH   2   3
HETATM    3  N   UNL     1      -9.176   8.462  71.681  1.00  0.00    -0.184 NA 
HETATM    4  C   UNL     1      -8.081   7.589  72.119  1.00  0.00    -0.102 C  
HETATM    5  C   UNL     1     -10.264   8.340  72.669  1.00  0.00    -0.298 C  
ENDBRANCH   2   3
BRANCH   2   6
HETATM    6  C   UNL     1     -11.021   8.827  69.899  1.00  0.00    -0.179 C  
BRANCH   6   7
HETATM    7  N   UNL     1     -10.873  10.134  69.175  1.00  0.00    -0.216 NA 
HETATM    8  C   UNL     1     -11.570  11.261  69.733  1.00  0.00    -0.333 A  
HETATM    9  C   UNL     1     -12.334  11.177  70.918  1.00  0.00    -0.500 A  
HETATM   10  C   UNL     1     -13.038  12.266  71.455  1.00  0.00    -0.356 A  
HETATM   11  C   UNL     1     -12.997  13.498  70.827  1.00  0.00    -0.168 A  
HETATM   12  C   UNL     1     -12.250  13.628  69.666  1.00  0.00    -0.326 A  
HETATM   13  C   UNL     1     -11.545  12.533  69.122  1.00  0.00    -0.320 A  
HETATM   14  S   UNL     1     -10.657  12.910  67.638  1.00  0.00    -0.226 SA 
HETATM   15  C   UNL     1      -9.941  11.347  67.214  1.00  0.00    -0.194 A  
HETATM   16  C   UNL     1      -9.158  11.376  66.038  1.00  0.00    -0.218 A  
HETATM   17  C   UNL     1      -8.513  10.241  65.574  1.00  0.00    -0.167 A  
HETATM   18  C   UNL     1      -8.659   9.061  66.279  1.00  0.00    -0.140 A  
HETATM   19  C   UNL     1      -9.453   9.024  67.441  1.00  0.00    -0.179 A  
HETATM   20  C   UNL     1     -10.110  10.162  67.965  1.00  0.00    -0.157 A  
ENDBRANCH   6   7
ENDBRANCH   2   6
TORSDOF 3
ENDMDL
MODEL      140
REMARK 921   NORMALIZED FREE ENERGY PREDICTED BY IDOCK:   -3.53 KCAL/MOL
REMARK 922        TOTAL FREE ENERGY PREDICTED BY IDOCK:   -4.51 KCAL/MOL
REMARK 923 INTER-LIGAND FREE ENERGY PREDICTED BY IDOCK:   -4.16 KCAL/MOL
REMARK 924 INTRA-LIGAND FREE ENERGY PREDICTED BY IDOCK:   -0.35 KCAL/MOL
REMARK 927      BINDING AFFINITY PREDICTED BY RF-SCORE:    0.00 PKD
ROOT
HETATM    1  C   UNL     1      -5.792   8.072  68.834  1.00  0.00    -0.035 C  
HETATM    2  C   UNL     1      -6.859   8.958  68.161  1.00  0.00    -0.069 C  
ENDROOT
BRANCH   2   3
HETATM    3  N   UNL     1      -6.357   9.400  66.813  1.00  0.00    -0.065 NA 
HETATM    4  C   UNL     1      -5.936  10.806  66.792  1.00  0.00    -0.077 C  
HETATM    5  C   UNL     1      -7.373   9.225  65.759  1.00  0.00    -0.094 C  
ENDBRANCH   2   3
BRANCH   2   6
HETATM    6  C   UNL     1      -7.233  10.142  69.135  1.00  0.00    -0.081 C  
BRANCH   6   7
HETATM    7  N   UNL     1      -8.665  10.121  69.587  1.00  0.00    -0.182 NA 
HETATM    8  C   UNL     1      -9.592  10.909  68.821  1.00  0.00    -0.189 A  
HETATM    9  C   UNL     1      -9.208  11.647  67.679  1.00  0.00    -0.178 A  
HETATM   10  C   UNL     1     -10.101  12.438  66.940  1.00  0.00    -0.230 A  
HETATM   11  C   UNL     1     -11.431  12.516  67.314  1.00  0.00    -0.416 A  
HETATM   12  C   UNL     1     -11.855  11.799  68.422  1.00  0.00    -0.347 A  
HETATM   13  C   UNL     1     -10.956  11.007  69.169  1.00  0.00    -0.237 A  
HETATM   14  S   UNL     1     -11.697  10.177  70.545  1.00  0.00    -0.341 SA 
HETATM   15  C   UNL     1     -10.320   9.329  71.265  1.00  0.00    -0.327 A  
HETATM   16  C   UNL     1     -10.651   8.567  72.409  1.00  0.00    -0.368 A  
HETATM   17  C   UNL     1      -9.693   7.830  73.085  1.00  0.00    -0.347 A  
HETATM   18  C   UNL     1      -8.388   7.860  72.628  1.00  0.00    -0.198 A  
HETATM   19  C   UNL     1      -8.052   8.631  71.499  1.00  0.00    -0.188 A  
HETATM   20  C   UNL     1      -9.000   9.380  70.764  1.00  0.00    -0.191 A  
ENDBRANCH   6   7
ENDBRANCH   2   6
TORSDOF 3
ENDMDL
MODEL      141
REMARK 921   NORMALIZED FREE ENERGY PREDICTED BY IDOCK:   -3.49 KCAL/MOL
REMARK 922        TOTAL FREE ENERGY PREDICTED BY IDOCK:   -4.46 KCAL/MOL
REMARK 923 INTER-LIGAND FREE ENERGY PREDICTED BY IDOCK:   -4.49 KCAL/MOL
REMARK 924 INTRA-LIGAND FREE ENERGY PREDICTED BY IDOCK:    0.03 KCAL/MOL
REMARK 927      BINDING AFFINITY PREDICTED BY RF-SCORE:    0.00 PKD
ROOT
HETATM    1  C   UNL     1      -9.032  12.231  66.685  1.00  0.00    -0.189 C  
HETATM    2  C   UNL     1      -9.929  12.026  65.448  1.00  0.00    -0.253 C  
ENDROOT
BRANCH   2   3
HETATM    3  N   UNL     1     -10.553  13.342  65.067  1.00  0.00    -0.328 NA 
HETATM    4  C   UNL     1     -11.236  13.995  66.190  1.00  0.00    -0.318 C  
HETATM    5  C   UNL     1     -11.534  13.193  63.976  1.00  0.00    -0.406 C  
ENDBRANCH   2   3
BRANCH   2   6
HETATM    6  C   UNL     1     -10.967  10.876  65.749  1.00  0.00     0.025 C  
BRANCH   6   7
HETATM    7  N   UNL     1     -10.498   9.900  66.790  1.00  0.00    -0.216 NA 
HETATM    8  C   UNL     1     -10.996  10.097  68.125  1.00  0.00    -0.259 A  
HETATM    9  C   UNL     1     -11.904  11.125  68.459  1.00  0.00    -0.330 A  
HETATM   10  C   UNL     1     -12.375  11.339  69.764  1.00  0.00    -0.277 A  
HETATM   11  C   UNL     1     -11.958  10.516  70.795  1.00  0.00    -0.472 A  
HETATM   12  C   UNL     1     -11.075   9.487  70.511  1.00  0.00    -0.342 A  
HETATM   13  C   UNL     1     -10.597   9.274  69.200  1.00  0.00    -0.212 A  
HETATM   14  S   UNL     1      -9.478   7.910  69.051  1.00  0.00    -0.151 SA 
HETATM   15  C   UNL     1      -9.054   7.951  67.333  1.00  0.00    -0.133 A  
HETATM   16  C   UNL     1      -8.152   6.935  66.942  1.00  0.00    -0.109 A  
HETATM   17  C   UNL     1      -7.728   6.815  65.628  1.00  0.00    -0.102 A  
HETATM   18  C   UNL     1      -8.196   7.722  64.695  1.00  0.00    -0.080 A  
HETATM   19  C   UNL     1      -9.081   8.745  65.084  1.00  0.00    -0.104 A  
HETATM   20  C   UNL     1      -9.558   8.892  66.408  1.00  0.00    -0.238 A  
ENDBRANCH   6   7
ENDBRANCH   2   6
TORSDOF 3
ENDMDL
MODEL      142
REMARK 921   NORMALIZED FREE ENERGY PREDICTED BY IDOCK:   -3.47 KCAL/MOL
REMARK 922        TOTAL FREE ENERGY PREDICTED BY IDOCK:   -4.44 KCAL/MOL
REMARK 923 INTER-LIGAND FREE ENERGY PREDICTED BY IDOCK:   -4.31 KCAL/MOL
REMARK 924 INTRA-LIGAND FREE ENERGY PREDICTED BY IDOCK:   -0.13 KCAL/MOL
REMARK 927      BINDING AFFINITY PREDICTED BY RF-SCORE:    0.00 PKD
ROOT
HETATM    1  C   UNL     1     -11.405   6.290  72.043  1.00  0.00    -0.348 C  
HETATM    2  C   UNL     1     -10.070   6.061  71.307  1.00  0.00    -0.192 C  
ENDROOT
BRANCH   2   3
HETATM    3  N   UNL     1      -9.240   5.075  72.085  1.00  0.00    -0.135 NA 
HETATM    4  C   UNL     1      -9.904   3.777  72.253  1.00  0.00    -0.163 C  
HETATM    5  C   UNL     1      -8.900   5.578  73.429  1.00  0.00    -0.116 C  
ENDBRANCH   2   3
BRANCH   2   6
HETATM    6  C   UNL     1      -9.369   7.455  71.067  1.00  0.00    -0.157 C  
BRANCH   6   7
HETATM    7  N   UNL     1      -9.603   8.018  69.695  1.00  0.00    -0.167 NA 
HETATM    8  C   UNL     1      -8.961   7.338  68.603  1.00  0.00    -0.128 A  
HETATM    9  C   UNL     1      -8.174   6.178  68.781  1.00  0.00    -0.108 A  
HETATM   10  C   UNL     1      -7.524   5.522  67.724  1.00  0.00    -0.080 A  
HETATM   11  C   UNL     1      -7.645   6.000  66.432  1.00  0.00    -0.094 A  
HETATM   12  C   UNL     1      -8.417   7.130  66.209  1.00  0.00    -0.138 A  
HETATM   13  C   UNL     1      -9.067   7.793  67.272  1.00  0.00    -0.131 A  
HETATM   14  S   UNL     1      -9.999   9.214  66.775  1.00  0.00    -0.272 SA 
HETATM   15  C   UNL     1     -10.632   9.812  68.315  1.00  0.00    -0.229 A  
HETATM   16  C   UNL     1     -11.435  10.969  68.194  1.00  0.00    -0.374 A  
HETATM   17  C   UNL     1     -12.022  11.558  69.302  1.00  0.00    -0.397 A  
HETATM   18  C   UNL     1     -11.799  11.000  70.546  1.00  0.00    -0.464 A  
HETATM   19  C   UNL     1     -10.985   9.857  70.674  1.00  0.00    -0.405 A  
HETATM   20  C   UNL     1     -10.385   9.209  69.569  1.00  0.00    -0.215 A  
ENDBRANCH   6   7
ENDBRANCH   2   6
TORSDOF 3
ENDMDL
MODEL      143
REMARK 921   NORMALIZED FREE ENERGY PREDICTED BY IDOCK:   -3.39 KCAL/MOL
REMARK 922        TOTAL FREE ENERGY PREDICTED BY IDOCK:   -4.35 KCAL/MOL
REMARK 923 INTER-LIGAND FREE ENERGY PREDICTED BY IDOCK:   -4.21 KCAL/MOL
REMARK 924 INTRA-LIGAND FREE ENERGY PREDICTED BY IDOCK:   -0.14 KCAL/MOL
REMARK 927      BINDING AFFINITY PREDICTED BY RF-SCORE:    0.00 PKD
ROOT
HETATM    1  C   UNL     1      -9.447  11.872  68.654  1.00  0.00    -0.087 C  
HETATM    2  C   UNL     1     -10.165  11.647  67.308  1.00  0.00    -0.201 C  
ENDROOT
BRANCH   2   3
HETATM    3  N   UNL     1     -11.008  12.853  66.991  1.00  0.00    -0.257 NA 
HETATM    4  C   UNL     1     -11.908  13.225  68.088  1.00  0.00    -0.353 C  
HETATM    5  C   UNL     1     -11.836  12.647  65.788  1.00  0.00    -0.444 C  
ENDBRANCH   2   3
BRANCH   2   6
HETATM    6  C   UNL     1     -10.970  10.290  67.375  1.00  0.00    -0.252 C  
BRANCH   6   7
HETATM    7  N   UNL     1     -10.093   9.074  67.447  1.00  0.00    -0.212 NA 
HETATM    8  C   UNL     1      -9.327   8.763  66.271  1.00  0.00    -0.222 A  
HETATM    9  C   UNL     1      -9.354   9.563  65.107  1.00  0.00    -0.316 A  
HETATM   10  C   UNL     1      -8.628   9.254  63.946  1.00  0.00    -0.208 A  
HETATM   11  C   UNL     1      -7.831   8.124  63.906  1.00  0.00    -0.147 A  
HETATM   12  C   UNL     1      -7.766   7.315  65.030  1.00  0.00    -0.115 A  
HETATM   13  C   UNL     1      -8.499   7.622  66.197  1.00  0.00    -0.143 A  
HETATM   14  S   UNL     1      -8.278   6.462  67.516  1.00  0.00    -0.117 SA 
HETATM   15  C   UNL     1      -9.340   7.110  68.775  1.00  0.00    -0.135 A  
HETATM   16  C   UNL     1      -9.345   6.350  69.966  1.00  0.00    -0.162 A  
HETATM   17  C   UNL     1     -10.111   6.727  71.058  1.00  0.00    -0.206 A  
HETATM   18  C   UNL     1     -10.891   7.864  70.960  1.00  0.00    -0.253 A  
HETATM   19  C   UNL     1     -10.902   8.614  69.768  1.00  0.00    -0.185 A  
HETATM   20  C   UNL     1     -10.119   8.281  68.638  1.00  0.00    -0.197 A  
ENDBRANCH   6   7
ENDBRANCH   2   6
TORSDOF 3
ENDMDL
MODEL      144
REMARK 921   NORMALIZED FREE ENERGY PREDICTED BY IDOCK:   -3.36 KCAL/MOL
REMARK 922        TOTAL FREE ENERGY PREDICTED BY IDOCK:   -4.32 KCAL/MOL
REMARK 923 INTER-LIGAND FREE ENERGY PREDICTED BY IDOCK:   -3.94 KCAL/MOL
REMARK 924 INTRA-LIGAND FREE ENERGY PREDICTED BY IDOCK:   -0.38 KCAL/MOL
REMARK 927      BINDING AFFINITY PREDICTED BY RF-SCORE:    0.00 PKD
ROOT
HETATM    1  C   UNL     1     -10.046   4.891  69.672  1.00  0.00    -0.300 C  
HETATM    2  C   UNL     1     -10.242   6.381  69.325  1.00  0.00    -0.192 C  
ENDROOT
BRANCH   2   3
HETATM    3  N   UNL     1     -11.075   7.031  70.397  1.00  0.00    -0.274 NA 
HETATM    4  C   UNL     1     -10.333   8.037  71.166  1.00  0.00    -0.197 C  
HETATM    5  C   UNL     1     -11.611   6.046  71.354  1.00  0.00    -0.143 C  
ENDBRANCH   2   3
BRANCH   2   6
HETATM    6  C   UNL     1     -10.847   6.495  67.872  1.00  0.00    -0.304 C  
BRANCH   6   7
HETATM    7  N   UNL     1      -9.910   7.116  66.877  1.00  0.00    -0.194 NA 
HETATM    8  C   UNL     1      -9.935   8.550  66.779  1.00  0.00    -0.281 A  
HETATM    9  C   UNL     1     -10.763   9.358  67.590  1.00  0.00    -0.295 A  
HETATM   10  C   UNL     1     -10.811  10.756  67.484  1.00  0.00    -0.342 A  
HETATM   11  C   UNL     1     -10.017  11.410  66.559  1.00  0.00    -0.243 A  
HETATM   12  C   UNL     1      -9.179  10.658  65.751  1.00  0.00    -0.218 A  
HETATM   13  C   UNL     1      -9.133   9.251  65.852  1.00  0.00    -0.197 A  
HETATM   14  S   UNL     1      -8.002   8.481  64.729  1.00  0.00    -0.150 SA 
HETATM   15  C   UNL     1      -8.220   6.761  65.087  1.00  0.00    -0.114 A  
HETATM   16  C   UNL     1      -7.406   5.907  64.309  1.00  0.00    -0.067 A  
HETATM   17  C   UNL     1      -7.442   4.532  64.474  1.00  0.00    -0.072 A  
HETATM   18  C   UNL     1      -8.305   3.998  65.413  1.00  0.00    -0.109 A  
HETATM   19  C   UNL     1      -9.129   4.845  66.178  1.00  0.00    -0.135 A  
HETATM   20  C   UNL     1      -9.109   6.255  66.061  1.00  0.00    -0.109 A  
ENDBRANCH   6   7
ENDBRANCH   2   6
TORSDOF 3
ENDMDL
MODEL      145
REMARK 921   NORMALIZED FREE ENERGY PREDICTED BY IDOCK:   -3.34 KCAL/MOL
REMARK 922        TOTAL FREE ENERGY PREDICTED BY IDOCK:   -4.29 KCAL/MOL
REMARK 923 INTER-LIGAND FREE ENERGY PREDICTED BY IDOCK:   -4.91 KCAL/MOL
REMARK 924 INTRA-LIGAND FREE ENERGY PREDICTED BY IDOCK:    0.62 KCAL/MOL
REMARK 927      BINDING AFFINITY PREDICTED BY RF-SCORE:    0.00 PKD
ROOT
HETATM    1  C   UNL     1     -11.110  13.585  68.983  1.00  0.00    -0.293 C  
HETATM    2  C   UNL     1     -10.788  12.210  68.363  1.00  0.00    -0.224 C  
ENDROOT
BRANCH   2   3
HETATM    3  N   UNL     1     -10.864  11.155  69.434  1.00  0.00    -0.235 NA 
HETATM    4  C   UNL     1     -10.119   9.938  69.091  1.00  0.00    -0.200 C  
HETATM    5  C   UNL     1     -12.255  10.758  69.721  1.00  0.00    -0.288 C  
ENDBRANCH   2   3
BRANCH   2   6
HETATM    6  C   UNL     1      -9.393  12.292  67.629  1.00  0.00    -0.186 C  
BRANCH   6   7
HETATM    7  N   UNL     1      -9.426  11.787  66.215  1.00  0.00    -0.220 NA 
HETATM    8  C   UNL     1     -10.452  12.326  65.364  1.00  0.00    -0.269 A  
HETATM    9  C   UNL     1     -11.372  13.306  65.801  1.00  0.00    -0.328 A  
HETATM   10  C   UNL     1     -12.391  13.820  64.984  1.00  0.00    -0.456 A  
HETATM   11  C   UNL     1     -12.526  13.375  63.681  1.00  0.00    -0.316 A  
HETATM   12  C   UNL     1     -11.639  12.422  63.207  1.00  0.00    -0.450 A  
HETATM   13  C   UNL     1     -10.616  11.901  64.029  1.00  0.00    -0.374 A  
HETATM   14  S   UNL     1      -9.594  10.694  63.233  1.00  0.00    -0.357 SA 
HETATM   15  C   UNL     1      -8.473  10.234  64.523  1.00  0.00    -0.179 A  
HETATM   16  C   UNL     1      -7.525   9.260  64.137  1.00  0.00    -0.110 A  
HETATM   17  C   UNL     1      -6.564   8.800  65.023  1.00  0.00    -0.068 A  
HETATM   18  C   UNL     1      -6.554   9.302  66.311  1.00  0.00    -0.070 A  
HETATM   19  C   UNL     1      -7.508  10.260  66.704  1.00  0.00    -0.110 A  
HETATM   20  C   UNL     1      -8.491  10.776  65.828  1.00  0.00    -0.174 A  
ENDBRANCH   6   7
ENDBRANCH   2   6
TORSDOF 3
ENDMDL
MODEL      146
REMARK 921   NORMALIZED FREE ENERGY PREDICTED BY IDOCK:   -3.31 KCAL/MOL
REMARK 922        TOTAL FREE ENERGY PREDICTED BY IDOCK:   -4.26 KCAL/MOL
REMARK 923 INTER-LIGAND FREE ENERGY PREDICTED BY IDOCK:   -3.90 KCAL/MOL
REMARK 924 INTRA-LIGAND FREE ENERGY PREDICTED BY IDOCK:   -0.36 KCAL/MOL
REMARK 927      BINDING AFFINITY PREDICTED BY RF-SCORE:    0.00 PKD
ROOT
HETATM    1  C   UNL     1      -8.705  11.261  68.090  1.00  0.00    -0.155 C  
HETATM    2  C   UNL     1      -8.587   9.753  67.790  1.00  0.00    -0.125 C  
ENDROOT
BRANCH   2   3
HETATM    3  N   UNL     1      -7.683   9.555  66.603  1.00  0.00    -0.097 NA 
HETATM    4  C   UNL     1      -6.517   8.717  66.907  1.00  0.00    -0.061 C  
HETATM    5  C   UNL     1      -7.182  10.836  66.070  1.00  0.00    -0.105 C  
ENDBRANCH   2   3
BRANCH   2   6
HETATM    6  C   UNL     1     -10.034   9.149  67.613  1.00  0.00    -0.195 C  
BRANCH   6   7
HETATM    7  N   UNL     1     -10.244   7.860  68.355  1.00  0.00    -0.198 NA 
HETATM    8  C   UNL     1     -10.730   7.967  69.704  1.00  0.00    -0.207 A  
HETATM    9  C   UNL     1     -11.036   9.206  70.311  1.00  0.00    -0.279 A  
HETATM   10  C   UNL     1     -11.488   9.320  71.635  1.00  0.00    -0.468 A  
HETATM   11  C   UNL     1     -11.663   8.187  72.409  1.00  0.00    -0.461 A  
HETATM   12  C   UNL     1     -11.386   6.949  71.850  1.00  0.00    -0.297 A  
HETATM   13  C   UNL     1     -10.927   6.833  70.520  1.00  0.00    -0.280 A  
HETATM   14  S   UNL     1     -10.631   5.166  70.002  1.00  0.00     0.001 SA 
HETATM   15  C   UNL     1     -10.043   5.382  68.346  1.00  0.00    -0.173 A  
HETATM   16  C   UNL     1      -9.730   4.171  67.688  1.00  0.00    -0.176 A  
HETATM   17  C   UNL     1      -9.271   4.159  66.381  1.00  0.00    -0.161 A  
HETATM   18  C   UNL     1      -9.109   5.365  65.724  1.00  0.00    -0.160 A  
HETATM   19  C   UNL     1      -9.403   6.575  66.383  1.00  0.00    -0.175 A  
HETATM   20  C   UNL     1      -9.896   6.633  67.707  1.00  0.00    -0.124 A  
ENDBRANCH   6   7
ENDBRANCH   2   6
TORSDOF 3
ENDMDL
MODEL      147
REMARK 921   NORMALIZED FREE ENERGY PREDICTED BY IDOCK:   -3.29 KCAL/MOL
REMARK 922        TOTAL FREE ENERGY PREDICTED BY IDOCK:   -4.23 KCAL/MOL
REMARK 923 INTER-LIGAND FREE ENERGY PREDICTED BY IDOCK:   -3.79 KCAL/MOL
REMARK 924 INTRA-LIGAND FREE ENERGY PREDICTED BY IDOCK:   -0.44 KCAL/MOL
REMARK 927      BINDING AFFINITY PREDICTED BY RF-SCORE:    0.00 PKD
ROOT
HETATM    1  C   UNL     1      -8.236   6.398  65.955  1.00  0.00    -0.130 C  
HETATM    2  C   UNL     1      -8.319   6.212  67.483  1.00  0.00    -0.109 C  
ENDROOT
BRANCH   2   3
HETATM    3  N   UNL     1      -9.721   5.807  67.855  1.00  0.00    -0.116 NA 
HETATM    4  C   UNL     1      -9.773   4.530  68.576  1.00  0.00    -0.130 C  
HETATM    5  C   UNL     1     -10.593   5.686  66.673  1.00  0.00    -0.295 C  
ENDBRANCH   2   3
BRANCH   2   6
HETATM    6  C   UNL     1      -7.815   7.531  68.189  1.00  0.00    -0.122 C  
BRANCH   6   7
HETATM    7  N   UNL     1      -8.663   7.952  69.355  1.00  0.00    -0.137 NA 
HETATM    8  C   UNL     1      -9.665   8.949  69.093  1.00  0.00    -0.168 A  
HETATM    9  C   UNL     1      -9.883   9.495  67.808  1.00  0.00    -0.196 A  
HETATM   10  C   UNL     1     -10.843  10.486  67.549  1.00  0.00    -0.357 A  
HETATM   11  C   UNL     1     -11.636  10.969  68.574  1.00  0.00    -0.380 A  
HETATM   12  C   UNL     1     -11.464  10.453  69.850  1.00  0.00    -0.368 A  
HETATM   13  C   UNL     1     -10.496   9.460  70.113  1.00  0.00    -0.240 A  
HETATM   14  S   UNL     1     -10.436   8.939  71.804  1.00  0.00    -0.351 SA 
HETATM   15  C   UNL     1      -9.124   7.751  71.790  1.00  0.00    -0.137 A  
HETATM   16  C   UNL     1      -8.869   7.166  73.051  1.00  0.00    -0.153 A  
HETATM   17  C   UNL     1      -7.885   6.204  73.212  1.00  0.00    -0.100 A  
HETATM   18  C   UNL     1      -7.137   5.829  72.112  1.00  0.00    -0.087 A  
HETATM   19  C   UNL     1      -7.377   6.422  70.858  1.00  0.00    -0.083 A  
HETATM   20  C   UNL     1      -8.386   7.389  70.641  1.00  0.00    -0.127 A  
ENDBRANCH   6   7
ENDBRANCH   2   6
TORSDOF 3
ENDMDL
MODEL      148
REMARK 921   NORMALIZED FREE ENERGY PREDICTED BY IDOCK:   -3.25 KCAL/MOL
REMARK 922        TOTAL FREE ENERGY PREDICTED BY IDOCK:   -4.19 KCAL/MOL
REMARK 923 INTER-LIGAND FREE ENERGY PREDICTED BY IDOCK:   -3.90 KCAL/MOL
REMARK 924 INTRA-LIGAND FREE ENERGY PREDICTED BY IDOCK:   -0.29 KCAL/MOL
REMARK 927      BINDING AFFINITY PREDICTED BY RF-SCORE:    0.00 PKD
ROOT
HETATM    1  C   UNL     1     -10.294   5.431  66.354  1.00  0.00    -0.298 C  
HETATM    2  C   UNL     1      -9.824   5.364  67.821  1.00  0.00    -0.143 C  
ENDROOT
BRANCH   2   3
HETATM    3  N   UNL     1      -9.214   4.013  68.083  1.00  0.00    -0.141 NA 
HETATM    4  C   UNL     1      -7.900   4.095  68.732  1.00  0.00    -0.068 C  
HETATM    5  C   UNL     1      -9.049   3.232  66.843  1.00  0.00    -0.172 C  
ENDBRANCH   2   3
BRANCH   2   6
HETATM    6  C   UNL     1     -11.036   5.724  68.766  1.00  0.00    -0.153 C  
BRANCH   6   7
HETATM    7  N   UNL     1     -10.719   6.796  69.769  1.00  0.00    -0.233 NA 
HETATM    8  C   UNL     1     -10.541   6.370  71.130  1.00  0.00    -0.236 A  
HETATM    9  C   UNL     1     -10.620   5.016  71.525  1.00  0.00    -0.175 A  
HETATM   10  C   UNL     1     -10.472   4.594  72.855  1.00  0.00    -0.254 A  
HETATM   11  C   UNL     1     -10.226   5.520  73.853  1.00  0.00    -0.259 A  
HETATM   12  C   UNL     1     -10.129   6.859  73.510  1.00  0.00    -0.323 A  
HETATM   13  C   UNL     1     -10.283   7.285  72.173  1.00  0.00    -0.190 A  
HETATM   14  S   UNL     1     -10.124   9.034  71.949  1.00  0.00    -0.124 SA 
HETATM   15  C   UNL     1     -10.405   9.223  70.212  1.00  0.00    -0.229 A  
HETATM   16  C   UNL     1     -10.328  10.561  69.762  1.00  0.00    -0.211 A  
HETATM   17  C   UNL     1     -10.507  10.882  68.426  1.00  0.00    -0.206 A  
HETATM   18  C   UNL     1     -10.779   9.865  67.530  1.00  0.00    -0.333 A  
HETATM   19  C   UNL     1     -10.874   8.534  67.977  1.00  0.00    -0.022 A  
HETATM   20  C   UNL     1     -10.674   8.156  69.326  1.00  0.00    -0.129 A  
ENDBRANCH   6   7
ENDBRANCH   2   6
TORSDOF 3
ENDMDL
MODEL      149
REMARK 921   NORMALIZED FREE ENERGY PREDICTED BY IDOCK:   -3.18 KCAL/MOL
REMARK 922        TOTAL FREE ENERGY PREDICTED BY IDOCK:   -4.11 KCAL/MOL
REMARK 923 INTER-LIGAND FREE ENERGY PREDICTED BY IDOCK:   -4.11 KCAL/MOL
REMARK 924 INTRA-LIGAND FREE ENERGY PREDICTED BY IDOCK:    0.00 KCAL/MOL
REMARK 927      BINDING AFFINITY PREDICTED BY RF-SCORE:    0.00 PKD
ROOT
HETATM    1  C   UNL     1      -8.822  11.015  68.258  1.00  0.00    -0.144 C  
HETATM    2  C   UNL     1      -9.623  10.513  67.040  1.00  0.00    -0.173 C  
ENDROOT
BRANCH   2   3
HETATM    3  N   UNL     1     -10.144  11.697  66.270  1.00  0.00    -0.215 NA 
HETATM    4  C   UNL     1      -9.979  11.552  64.819  1.00  0.00    -0.260 C  
HETATM    5  C   UNL     1      -9.479  12.951  66.669  1.00  0.00    -0.255 C  
ENDBRANCH   2   3
BRANCH   2   6
HETATM    6  C   UNL     1     -10.742   9.516  67.535  1.00  0.00    -0.245 C  
BRANCH   6   7
HETATM    7  N   UNL     1     -10.244   8.488  68.509  1.00  0.00    -0.195 NA 
HETATM    8  C   UNL     1      -9.329   7.505  67.993  1.00  0.00    -0.139 A  
HETATM    9  C   UNL     1      -8.881   7.506  66.653  1.00  0.00    -0.162 A  
HETATM   10  C   UNL     1      -8.008   6.537  66.136  1.00  0.00    -0.110 A  
HETATM   11  C   UNL     1      -7.536   5.522  66.950  1.00  0.00    -0.088 A  
HETATM   12  C   UNL     1      -7.941   5.489  68.275  1.00  0.00    -0.096 A  
HETATM   13  C   UNL     1      -8.823   6.460  68.796  1.00  0.00    -0.124 A  
HETATM   14  S   UNL     1      -9.217   6.237  70.507  1.00  0.00    -0.158 SA 
HETATM   15  C   UNL     1     -10.343   7.566  70.816  1.00  0.00    -0.203 A  
HETATM   16  C   UNL     1     -10.817   7.617  72.147  1.00  0.00    -0.293 A  
HETATM   17  C   UNL     1     -11.695   8.606  72.561  1.00  0.00    -0.330 A  
HETATM   18  C   UNL     1     -12.117   9.546  71.640  1.00  0.00    -0.474 A  
HETATM   19  C   UNL     1     -11.661   9.489  70.309  1.00  0.00    -0.219 A  
HETATM   20  C   UNL     1     -10.746   8.513  69.848  1.00  0.00    -0.224 A  
ENDBRANCH   6   7
ENDBRANCH   2   6
TORSDOF 3
ENDMDL
MODEL      150
REMARK 921   NORMALIZED FREE ENERGY PREDICTED BY IDOCK:   -3.16 KCAL/MOL
REMARK 922        TOTAL FREE ENERGY PREDICTED BY IDOCK:   -4.08 KCAL/MOL
REMARK 923 INTER-LIGAND FREE ENERGY PREDICTED BY IDOCK:   -3.81 KCAL/MOL
REMARK 924 INTRA-LIGAND FREE ENERGY PREDICTED BY IDOCK:   -0.27 KCAL/MOL
REMARK 927      BINDING AFFINITY PREDICTED BY RF-SCORE:    0.00 PKD
ROOT
HETATM    1  C   UNL     1      -8.049  10.309  67.454  1.00  0.00    -0.110 C  
HETATM    2  C   UNL     1      -8.787   9.060  67.976  1.00  0.00    -0.129 C  
ENDROOT
BRANCH   2   3
HETATM    3  N   UNL     1     -10.169   9.018  67.380  1.00  0.00    -0.226 NA 
HETATM    4  C   UNL     1     -10.523   7.695  66.852  1.00  0.00    -0.318 C  
HETATM    5  C   UNL     1     -10.327   9.990  66.282  1.00  0.00    -0.165 C  
ENDBRANCH   2   3
BRANCH   2   6
HETATM    6  C   UNL     1      -8.760   9.069  69.554  1.00  0.00    -0.144 C  
BRANCH   6   7
HETATM    7  N   UNL     1      -9.405   7.864  70.174  1.00  0.00    -0.156 NA 
HETATM    8  C   UNL     1      -8.656   6.637  70.123  1.00  0.00    -0.140 A  
HETATM    9  C   UNL     1      -7.365   6.552  69.556  1.00  0.00    -0.091 A  
HETATM   10  C   UNL     1      -6.638   5.354  69.480  1.00  0.00    -0.047 A  
HETATM   11  C   UNL     1      -7.176   4.183  69.983  1.00  0.00    -0.045 A  
HETATM   12  C   UNL     1      -8.436   4.222  70.560  1.00  0.00    -0.100 A  
HETATM   13  C   UNL     1      -9.171   5.425  70.632  1.00  0.00    -0.148 A  
HETATM   14  S   UNL     1     -10.756   5.259  71.403  1.00  0.00    -0.070 SA 
HETATM   15  C   UNL     1     -11.406   6.901  71.294  1.00  0.00    -0.279 A  
HETATM   16  C   UNL     1     -12.695   7.045  71.856  1.00  0.00    -0.314 A  
HETATM   17  C   UNL     1     -13.343   8.270  71.868  1.00  0.00    -0.364 A  
HETATM   18  C   UNL     1     -12.710   9.361  71.303  1.00  0.00    -0.391 A  
HETATM   19  C   UNL     1     -11.433   9.218  70.727  1.00  0.00    -0.351 A  
HETATM   20  C   UNL     1     -10.724   7.994  70.713  1.00  0.00    -0.223 A  
ENDBRANCH   6   7
ENDBRANCH   2   6
TORSDOF 3
ENDMDL
MODEL      151
REMARK 921   NORMALIZED FREE ENERGY PREDICTED BY IDOCK:   -3.15 KCAL/MOL
REMARK 922        TOTAL FREE ENERGY PREDICTED BY IDOCK:   -4.07 KCAL/MOL
REMARK 923 INTER-LIGAND FREE ENERGY PREDICTED BY IDOCK:   -3.76 KCAL/MOL
REMARK 924 INTRA-LIGAND FREE ENERGY PREDICTED BY IDOCK:   -0.31 KCAL/MOL
REMARK 927      BINDING AFFINITY PREDICTED BY RF-SCORE:    0.00 PKD
ROOT
HETATM    1  C   UNL     1      -6.926  18.616  67.845  1.00  0.00    -0.231 C  
HETATM    2  C   UNL     1      -8.216  17.773  67.886  1.00  0.00    -0.237 C  
ENDROOT
BRANCH   2   3
HETATM    3  N   UNL     1      -9.402  18.674  67.669  1.00  0.00    -0.286 NA 
HETATM    4  C   UNL     1      -9.167  19.688  66.635  1.00  0.00    -0.364 C  
HETATM    5  C   UNL     1      -9.793  19.379  68.903  1.00  0.00    -0.453 C  
ENDBRANCH   2   3
BRANCH   2   6
HETATM    6  C   UNL     1      -8.256  16.960  69.238  1.00  0.00     0.058 C  
BRANCH   6   7
HETATM    7  N   UNL     1      -8.702  15.536  69.071  1.00  0.00    -0.216 NA 
HETATM    8  C   UNL     1      -7.721  14.608  68.577  1.00  0.00    -0.126 A  
HETATM    9  C   UNL     1      -6.390  14.984  68.289  1.00  0.00    -0.121 A  
HETATM   10  C   UNL     1      -5.433  14.091  67.784  1.00  0.00    -0.032 A  
HETATM   11  C   UNL     1      -5.770  12.769  67.553  1.00  0.00    -0.116 A  
HETATM   12  C   UNL     1      -7.063  12.353  67.833  1.00  0.00    -0.109 A  
HETATM   13  C   UNL     1      -8.028  13.252  68.336  1.00  0.00    -0.132 A  
HETATM   14  S   UNL     1      -9.615  12.522  68.623  1.00  0.00     0.064 SA 
HETATM   15  C   UNL     1     -10.569  13.897  69.198  1.00  0.00    -0.100 A  
HETATM   16  C   UNL     1     -11.909  13.574  69.509  1.00  0.00    -0.392 A  
HETATM   17  C   UNL     1     -12.788  14.532  69.987  1.00  0.00    -0.067 A  
HETATM   18  C   UNL     1     -12.335  15.829  70.145  1.00  0.00    -0.309 A  
HETATM   19  C   UNL     1     -11.005  16.158  69.819  1.00  0.00    -0.349 A  
HETATM   20  C   UNL     1     -10.067  15.209  69.351  1.00  0.00    -0.240 A  
ENDBRANCH   6   7
ENDBRANCH   2   6
TORSDOF 3
ENDMDL
MODEL      152
REMARK 921   NORMALIZED FREE ENERGY PREDICTED BY IDOCK:   -3.03 KCAL/MOL
REMARK 922        TOTAL FREE ENERGY PREDICTED BY IDOCK:   -3.92 KCAL/MOL
REMARK 923 INTER-LIGAND FREE ENERGY PREDICTED BY IDOCK:   -4.21 KCAL/MOL
REMARK 924 INTRA-LIGAND FREE ENERGY PREDICTED BY IDOCK:    0.29 KCAL/MOL
REMARK 927      BINDING AFFINITY PREDICTED BY RF-SCORE:    0.00 PKD
ROOT
HETATM    1  C   UNL     1     -11.213  10.347  67.731  1.00  0.00    -0.309 C  
HETATM    2  C   UNL     1      -9.886  10.985  68.190  1.00  0.00    -0.176 C  
ENDROOT
BRANCH   2   3
HETATM    3  N   UNL     1      -8.913  10.981  67.042  1.00  0.00    -0.146 NA 
HETATM    4  C   UNL     1      -7.768  11.872  67.260  1.00  0.00    -0.164 C  
HETATM    5  C   UNL     1      -9.551  11.381  65.774  1.00  0.00    -0.233 C  
ENDBRANCH   2   3
BRANCH   2   6
HETATM    6  C   UNL     1      -9.374  10.234  69.480  1.00  0.00    -0.178 C  
BRANCH   6   7
HETATM    7  N   UNL     1      -9.677   8.763  69.480  1.00  0.00    -0.170 NA 
HETATM    8  C   UNL     1     -10.872   8.354  70.167  1.00  0.00    -0.236 A  
HETATM    9  C   UNL     1     -11.749   9.270  70.789  1.00  0.00    -0.328 A  
HETATM   10  C   UNL     1     -12.904   8.877  71.482  1.00  0.00    -0.383 A  
HETATM   11  C   UNL     1     -13.236   7.537  71.575  1.00  0.00    -0.404 A  
HETATM   12  C   UNL     1     -12.409   6.603  70.970  1.00  0.00    -0.289 A  
HETATM   13  C   UNL     1     -11.244   6.997  70.276  1.00  0.00    -0.298 A  
HETATM   14  S   UNL     1     -10.328   5.651  69.580  1.00  0.00    -0.299 SA 
HETATM   15  C   UNL     1      -8.948   6.474  68.837  1.00  0.00    -0.128 A  
HETATM   16  C   UNL     1      -8.041   5.602  68.193  1.00  0.00    -0.097 A  
HETATM   17  C   UNL     1      -6.914   6.085  67.547  1.00  0.00    -0.069 A  
HETATM   18  C   UNL     1      -6.678   7.447  67.553  1.00  0.00    -0.069 A  
HETATM   19  C   UNL     1      -7.571   8.317  68.209  1.00  0.00    -0.101 A  
HETATM   20  C   UNL     1      -8.745   7.872  68.860  1.00  0.00    -0.135 A  
ENDBRANCH   6   7
ENDBRANCH   2   6
TORSDOF 3
ENDMDL
MODEL      153
REMARK 921   NORMALIZED FREE ENERGY PREDICTED BY IDOCK:   -3.01 KCAL/MOL
REMARK 922        TOTAL FREE ENERGY PREDICTED BY IDOCK:   -3.91 KCAL/MOL
REMARK 923 INTER-LIGAND FREE ENERGY PREDICTED BY IDOCK:   -4.12 KCAL/MOL
REMARK 924 INTRA-LIGAND FREE ENERGY PREDICTED BY IDOCK:    0.21 KCAL/MOL
REMARK 927      BINDING AFFINITY PREDICTED BY RF-SCORE:    0.00 PKD
ROOT
HETATM    1  C   UNL     1      -7.065  11.954  69.106  1.00  0.00    -0.053 C  
HETATM    2  C   UNL     1      -8.273  11.581  68.223  1.00  0.00    -0.152 C  
ENDROOT
BRANCH   2   3
HETATM    3  N   UNL     1      -7.954  10.325  67.456  1.00  0.00    -0.106 NA 
HETATM    4  C   UNL     1      -6.659  10.389  66.770  1.00  0.00    -0.078 C  
HETATM    5  C   UNL     1      -8.981  10.022  66.442  1.00  0.00    -0.144 C  
ENDBRANCH   2   3
BRANCH   2   6
HETATM    6  C   UNL     1      -8.650  12.818  67.318  1.00  0.00    -0.197 C  
BRANCH   6   7
HETATM    7  N   UNL     1      -9.284  13.948  68.077  1.00  0.00    -0.187 NA 
HETATM    8  C   UNL     1      -8.726  15.256  67.866  1.00  0.00    -0.164 A  
HETATM    9  C   UNL     1      -7.659  15.497  66.972  1.00  0.00    -0.228 A  
HETATM   10  C   UNL     1      -7.092  16.767  66.779  1.00  0.00    -0.270 A  
HETATM   11  C   UNL     1      -7.582  17.858  67.473  1.00  0.00    -0.217 A  
HETATM   12  C   UNL     1      -8.636  17.670  68.353  1.00  0.00    -0.284 A  
HETATM   13  C   UNL     1      -9.204  16.393  68.552  1.00  0.00    -0.226 A  
HETATM   14  S   UNL     1     -10.536  16.367  69.718  1.00  0.00    -0.245 SA 
HETATM   15  C   UNL     1     -10.977  14.654  69.756  1.00  0.00    -0.201 A  
HETATM   16  C   UNL     1     -12.047  14.357  70.630  1.00  0.00    -0.404 A  
HETATM   17  C   UNL     1     -12.528  13.065  70.767  1.00  0.00    -0.384 A  
HETATM   18  C   UNL     1     -11.930  12.054  70.038  1.00  0.00    -0.400 A  
HETATM   19  C   UNL     1     -10.852  12.343  69.179  1.00  0.00    -0.148 A  
HETATM   20  C   UNL     1     -10.344  13.649  68.989  1.00  0.00    -0.031 A  
ENDBRANCH   6   7
ENDBRANCH   2   6
TORSDOF 3
ENDMDL
MODEL      154
REMARK 921   NORMALIZED FREE ENERGY PREDICTED BY IDOCK:   -2.98 KCAL/MOL
REMARK 922        TOTAL FREE ENERGY PREDICTED BY IDOCK:   -3.87 KCAL/MOL
REMARK 923 INTER-LIGAND FREE ENERGY PREDICTED BY IDOCK:   -4.07 KCAL/MOL
REMARK 924 INTRA-LIGAND FREE ENERGY PREDICTED BY IDOCK:    0.20 KCAL/MOL
REMARK 927      BINDING AFFINITY PREDICTED BY RF-SCORE:    0.00 PKD
ROOT
HETATM    1  C   UNL     1      -6.963  13.961  67.347  1.00  0.00    -0.065 C  
HETATM    2  C   UNL     1      -7.160  13.016  68.549  1.00  0.00    -0.105 C  
ENDROOT
BRANCH   2   3
HETATM    3  N   UNL     1      -5.965  12.109  68.665  1.00  0.00    -0.053 NA 
HETATM    4  C   UNL     1      -5.310  11.860  67.376  1.00  0.00    -0.104 C  
HETATM    5  C   UNL     1      -6.319  10.799  69.244  1.00  0.00    -0.061 C  
ENDBRANCH   2   3
BRANCH   2   6
HETATM    6  C   UNL     1      -8.537  12.261  68.389  1.00  0.00    -0.136 C  
BRANCH   6   7
HETATM    7  N   UNL     1      -9.492  12.942  67.452  1.00  0.00    -0.193 NA 
HETATM    8  C   UNL     1      -9.672  12.331  66.163  1.00  0.00    -0.245 A  
HETATM    9  C   UNL     1      -9.023  11.134  65.786  1.00  0.00    -0.207 A  
HETATM   10  C   UNL     1      -9.175  10.544  64.522  1.00  0.00    -0.278 A  
HETATM   11  C   UNL     1      -9.998  11.130  63.577  1.00  0.00    -0.425 A  
HETATM   12  C   UNL     1     -10.664  12.300  63.907  1.00  0.00    -0.463 A  
HETATM   13  C   UNL     1     -10.509  12.897  65.177  1.00  0.00    -0.309 A  
HETATM   14  S   UNL     1     -11.443  14.385  65.396  1.00  0.00    -0.355 SA 
HETATM   15  C   UNL     1     -10.997  14.877  67.036  1.00  0.00    -0.327 A  
HETATM   16  C   UNL     1     -11.626  16.067  67.468  1.00  0.00     0.162 A  
HETATM   17  C   UNL     1     -11.399  16.584  68.733  1.00  0.00    -0.221 A  
HETATM   18  C   UNL     1     -10.527  15.918  69.574  1.00  0.00    -0.281 A  
HETATM   19  C   UNL     1      -9.886  14.742  69.142  1.00  0.00    -0.167 A  
HETATM   20  C   UNL     1     -10.105  14.165  67.869  1.00  0.00    -0.235 A  
ENDBRANCH   6   7
ENDBRANCH   2   6
TORSDOF 3
ENDMDL
MODEL      155
REMARK 921   NORMALIZED FREE ENERGY PREDICTED BY IDOCK:   -2.90 KCAL/MOL
REMARK 922        TOTAL FREE ENERGY PREDICTED BY IDOCK:   -3.78 KCAL/MOL
REMARK 923 INTER-LIGAND FREE ENERGY PREDICTED BY IDOCK:   -3.73 KCAL/MOL
REMARK 924 INTRA-LIGAND FREE ENERGY PREDICTED BY IDOCK:   -0.04 KCAL/MOL
REMARK 927      BINDING AFFINITY PREDICTED BY RF-SCORE:    0.00 PKD
ROOT
HETATM    1  C   UNL     1      -8.184   7.875  68.410  1.00  0.00    -0.124 C  
HETATM    2  C   UNL     1      -8.358   9.243  69.100  1.00  0.00    -0.127 C  
ENDROOT
BRANCH   2   3
HETATM    3  N   UNL     1      -7.335  10.204  68.556  1.00  0.00    -0.080 NA 
HETATM    4  C   UNL     1      -6.288   9.539  67.771  1.00  0.00    -0.057 C  
HETATM    5  C   UNL     1      -6.670  10.968  69.628  1.00  0.00    -0.137 C  
ENDBRANCH   2   3
BRANCH   2   6
HETATM    6  C   UNL     1      -8.294   9.041  70.664  1.00  0.00    -0.186 C  
BRANCH   6   7
HETATM    7  N   UNL     1      -9.498   8.345  71.231  1.00  0.00    -0.171 NA 
HETATM    8  C   UNL     1     -10.757   9.028  71.097  1.00  0.00    -0.288 A  
HETATM    9  C   UNL     1     -10.887  10.272  70.442  1.00  0.00    -0.320 A  
HETATM   10  C   UNL     1     -12.107  10.956  70.328  1.00  0.00    -0.440 A  
HETATM   11  C   UNL     1     -13.260  10.411  70.864  1.00  0.00    -0.321 A  
HETATM   12  C   UNL     1     -13.181   9.186  71.507  1.00  0.00    -0.413 A  
HETATM   13  C   UNL     1     -11.954   8.499  71.626  1.00  0.00    -0.316 A  
HETATM   14  S   UNL     1     -12.070   6.954  72.483  1.00  0.00     0.112 SA 
HETATM   15  C   UNL     1     -10.391   6.394  72.488  1.00  0.00    -0.191 A  
HETATM   16  C   UNL     1     -10.205   5.146  73.125  1.00  0.00    -0.214 A  
HETATM   17  C   UNL     1      -8.954   4.556  73.203  1.00  0.00    -0.119 A  
HETATM   18  C   UNL     1      -7.873   5.219  72.653  1.00  0.00    -0.099 A  
HETATM   19  C   UNL     1      -8.051   6.471  72.032  1.00  0.00    -0.107 A  
HETATM   20  C   UNL     1      -9.312   7.099  71.908  1.00  0.00    -0.138 A  
ENDBRANCH   6   7
ENDBRANCH   2   6
TORSDOF 3
ENDMDL
MODEL      156
REMARK 921   NORMALIZED FREE ENERGY PREDICTED BY IDOCK:   -2.87 KCAL/MOL
REMARK 922        TOTAL FREE ENERGY PREDICTED BY IDOCK:   -3.74 KCAL/MOL
REMARK 923 INTER-LIGAND FREE ENERGY PREDICTED BY IDOCK:   -4.19 KCAL/MOL
REMARK 924 INTRA-LIGAND FREE ENERGY PREDICTED BY IDOCK:    0.45 KCAL/MOL
REMARK 927      BINDING AFFINITY PREDICTED BY RF-SCORE:    0.00 PKD
ROOT
HETATM    1  C   UNL     1     -10.460  20.534  68.832  1.00  0.00     0.200 C  
HETATM    2  C   UNL     1      -9.677  19.531  67.962  1.00  0.00    -0.376 C  
ENDROOT
BRANCH   2   3
HETATM    3  N   UNL     1      -9.842  19.900  66.512  1.00  0.00    -0.418 NA 
HETATM    4  C   UNL     1     -10.777  19.020  65.802  1.00  0.00    -0.276 C  
HETATM    5  C   UNL     1      -8.560  19.866  65.784  1.00  0.00     0.006 C  
ENDBRANCH   2   3
BRANCH   2   6
HETATM    6  C   UNL     1     -10.147  18.066  68.318  1.00  0.00    -0.385 C  
BRANCH   6   7
HETATM    7  N   UNL     1      -9.065  17.035  68.173  1.00  0.00    -0.231 NA 
HETATM    8  C   UNL     1      -7.759  17.402  68.650  1.00  0.00    -0.273 A  
HETATM    9  C   UNL     1      -7.489  18.649  69.258  1.00  0.00    -0.078 A  
HETATM   10  C   UNL     1      -6.213  19.024  69.704  1.00  0.00    -0.287 A  
HETATM   11  C   UNL     1      -5.145  18.154  69.566  1.00  0.00    -0.182 A  
HETATM   12  C   UNL     1      -5.367  16.916  68.985  1.00  0.00    -0.135 A  
HETATM   13  C   UNL     1      -6.649  16.539  68.531  1.00  0.00    -0.139 A  
HETATM   14  S   UNL     1      -6.717  14.919  67.818  1.00  0.00    -0.177 SA 
HETATM   15  C   UNL     1      -8.413  14.787  67.332  1.00  0.00    -0.201 A  
HETATM   16  C   UNL     1      -8.740  13.554  66.724  1.00  0.00    -0.100 A  
HETATM   17  C   UNL     1     -10.030  13.281  66.298  1.00  0.00    -0.291 A  
HETATM   18  C   UNL     1     -11.003  14.248  66.466  1.00  0.00    -0.316 A  
HETATM   19  C   UNL     1     -10.677  15.485  67.056  1.00  0.00    -0.321 A  
HETATM   20  C   UNL     1      -9.381  15.799  67.527  1.00  0.00    -0.209 A  
ENDBRANCH   6   7
ENDBRANCH   2   6
TORSDOF 3
ENDMDL
MODEL      157
REMARK 921   NORMALIZED FREE ENERGY PREDICTED BY IDOCK:   -2.87 KCAL/MOL
REMARK 922        TOTAL FREE ENERGY PREDICTED BY IDOCK:   -3.74 KCAL/MOL
REMARK 923 INTER-LIGAND FREE ENERGY PREDICTED BY IDOCK:   -4.01 KCAL/MOL
REMARK 924 INTRA-LIGAND FREE ENERGY PREDICTED BY IDOCK:    0.28 KCAL/MOL
REMARK 927      BINDING AFFINITY PREDICTED BY RF-SCORE:    0.00 PKD
ROOT
HETATM    1  C   UNL     1      -8.055   7.418  69.548  1.00  0.00    -0.129 C  
HETATM    2  C   UNL     1      -9.072   8.574  69.638  1.00  0.00    -0.149 C  
ENDROOT
BRANCH   2   3
HETATM    3  N   UNL     1      -9.735   8.544  70.989  1.00  0.00    -0.180 NA 
HETATM    4  C   UNL     1      -8.882   7.962  72.031  1.00  0.00    -0.141 C  
HETATM    5  C   UNL     1     -10.996   7.780  70.968  1.00  0.00    -0.244 C  
ENDBRANCH   2   3
BRANCH   2   6
HETATM    6  C   UNL     1     -10.071   8.475  68.420  1.00  0.00    -0.194 C  
BRANCH   6   7
HETATM    7  N   UNL     1     -10.087   9.700  67.553  1.00  0.00    -0.184 NA 
HETATM    8  C   UNL     1     -10.590  10.906  68.153  1.00  0.00    -0.198 A  
HETATM    9  C   UNL     1     -11.021  10.969  69.497  1.00  0.00    -0.297 A  
HETATM   10  C   UNL     1     -11.536  12.135  70.083  1.00  0.00    -0.202 A  
HETATM   11  C   UNL     1     -11.632  13.300  69.343  1.00  0.00    -0.364 A  
HETATM   12  C   UNL     1     -11.210  13.287  68.023  1.00  0.00    -0.307 A  
HETATM   13  C   UNL     1     -10.696  12.114  67.431  1.00  0.00    -0.234 A  
HETATM   14  S   UNL     1     -10.216  12.309  65.738  1.00  0.00    -0.260 SA 
HETATM   15  C   UNL     1      -9.670  10.682  65.306  1.00  0.00    -0.259 A  
HETATM   16  C   UNL     1      -9.218  10.565  63.972  1.00  0.00    -0.286 A  
HETATM   17  C   UNL     1      -8.742   9.362  63.476  1.00  0.00    -0.221 A  
HETATM   18  C   UNL     1      -8.726   8.260  64.311  1.00  0.00     0.211 A  
HETATM   19  C   UNL     1      -9.192   8.369  65.635  1.00  0.00    -0.118 A  
HETATM   20  C   UNL     1      -9.664   9.581  66.192  1.00  0.00    -0.258 A  
ENDBRANCH   6   7
ENDBRANCH   2   6
TORSDOF 3
ENDMDL
MODEL      158
REMARK 921   NORMALIZED FREE ENERGY PREDICTED BY IDOCK:   -2.84 KCAL/MOL
REMARK 922        TOTAL FREE ENERGY PREDICTED BY IDOCK:   -3.71 KCAL/MOL
REMARK 923 INTER-LIGAND FREE ENERGY PREDICTED BY IDOCK:   -3.30 KCAL/MOL
REMARK 924 INTRA-LIGAND FREE ENERGY PREDICTED BY IDOCK:   -0.41 KCAL/MOL
REMARK 927      BINDING AFFINITY PREDICTED BY RF-SCORE:    0.00 PKD
ROOT
HETATM    1  C   UNL     1      -7.725   9.674  67.602  1.00  0.00    -0.095 C  
HETATM    2  C   UNL     1      -8.107   9.315  69.052  1.00  0.00    -0.106 C  
ENDROOT
BRANCH   2   3
HETATM    3  N   UNL     1      -7.037   8.436  69.642  1.00  0.00    -0.051 NA 
HETATM    4  C   UNL     1      -6.338   9.066  70.768  1.00  0.00    -0.055 C  
HETATM    5  C   UNL     1      -6.020   8.058  68.643  1.00  0.00    -0.040 C  
ENDBRANCH   2   3
BRANCH   2   6
HETATM    6  C   UNL     1      -9.551   8.676  69.060  1.00  0.00    -0.163 C  
BRANCH   6   7
HETATM    7  N   UNL     1      -9.577   7.255  69.542  1.00  0.00    -0.155 NA 
HETATM    8  C   UNL     1      -9.491   6.233  68.535  1.00  0.00    -0.123 A  
HETATM    9  C   UNL     1      -9.354   6.525  67.159  1.00  0.00    -0.138 A  
HETATM   10  C   UNL     1      -9.294   5.534  66.167  1.00  0.00    -0.169 A  
HETATM   11  C   UNL     1      -9.360   4.197  66.516  1.00  0.00    -0.184 A  
HETATM   12  C   UNL     1      -9.484   3.864  67.856  1.00  0.00    -0.227 A  
HETATM   13  C   UNL     1      -9.549   4.860  68.855  1.00  0.00    -0.158 A  
HETATM   14  S   UNL     1      -9.708   4.224  70.499  1.00  0.00    -0.205 SA 
HETATM   15  C   UNL     1      -9.800   5.701  71.471  1.00  0.00    -0.168 A  
HETATM   16  C   UNL     1      -9.929   5.466  72.859  1.00  0.00    -0.193 A  
HETATM   17  C   UNL     1      -9.999   6.513  73.763  1.00  0.00    -0.274 A  
HETATM   18  C   UNL     1      -9.953   7.808  73.283  1.00  0.00    -0.370 A  
HETATM   19  C   UNL     1      -9.842   8.047  71.899  1.00  0.00    -0.251 A  
HETATM   20  C   UNL     1      -9.743   7.010  70.942  1.00  0.00    -0.174 A  
ENDBRANCH   6   7
ENDBRANCH   2   6
TORSDOF 3
ENDMDL
MODEL      159
REMARK 921   NORMALIZED FREE ENERGY PREDICTED BY IDOCK:   -2.82 KCAL/MOL
REMARK 922        TOTAL FREE ENERGY PREDICTED BY IDOCK:   -3.68 KCAL/MOL
REMARK 923 INTER-LIGAND FREE ENERGY PREDICTED BY IDOCK:   -3.47 KCAL/MOL
REMARK 924 INTRA-LIGAND FREE ENERGY PREDICTED BY IDOCK:   -0.20 KCAL/MOL
REMARK 927      BINDING AFFINITY PREDICTED BY RF-SCORE:    0.00 PKD
ROOT
HETATM    1  C   UNL     1      -8.914   3.203  66.179  1.00  0.00    -0.149 C  
HETATM    2  C   UNL     1      -8.564   4.676  66.471  1.00  0.00    -0.112 C  
ENDROOT
BRANCH   2   3
HETATM    3  N   UNL     1      -7.777   4.753  67.752  1.00  0.00    -0.082 NA 
HETATM    4  C   UNL     1      -6.356   4.435  67.569  1.00  0.00    -0.037 C  
HETATM    5  C   UNL     1      -8.307   3.840  68.781  1.00  0.00    -0.073 C  
ENDBRANCH   2   3
BRANCH   2   6
HETATM    6  C   UNL     1      -9.892   5.529  66.471  1.00  0.00    -0.172 C  
BRANCH   6   7
HETATM    7  N   UNL     1      -9.729   6.895  67.073  1.00  0.00    -0.155 NA 
HETATM    8  C   UNL     1      -8.953   7.841  66.319  1.00  0.00    -0.174 A  
HETATM    9  C   UNL     1      -8.389   7.538  65.059  1.00  0.00    -0.068 A  
HETATM   10  C   UNL     1      -7.610   8.447  64.328  1.00  0.00    -0.123 A  
HETATM   11  C   UNL     1      -7.368   9.713  64.829  1.00  0.00    -0.119 A  
HETATM   12  C   UNL     1      -7.910  10.059  66.057  1.00  0.00    -0.119 A  
HETATM   13  C   UNL     1      -8.691   9.143  66.796  1.00  0.00    -0.127 A  
HETATM   14  S   UNL     1      -9.286   9.780  68.337  1.00  0.00    -0.134 SA 
HETATM   15  C   UNL     1     -10.168   8.399  69.005  1.00  0.00    -0.207 A  
HETATM   16  C   UNL     1     -10.760   8.651  70.263  1.00  0.00    -0.243 A  
HETATM   17  C   UNL     1     -11.500   7.681  70.919  1.00  0.00    -0.299 A  
HETATM   18  C   UNL     1     -11.642   6.441  70.324  1.00  0.00    -0.451 A  
HETATM   19  C   UNL     1     -11.040   6.180  69.079  1.00  0.00    -0.437 A  
HETATM   20  C   UNL     1     -10.296   7.147  68.362  1.00  0.00    -0.194 A  
ENDBRANCH   6   7
ENDBRANCH   2   6
TORSDOF 3
ENDMDL
MODEL      160
REMARK 921   NORMALIZED FREE ENERGY PREDICTED BY IDOCK:   -2.77 KCAL/MOL
REMARK 922        TOTAL FREE ENERGY PREDICTED BY IDOCK:   -3.62 KCAL/MOL
REMARK 923 INTER-LIGAND FREE ENERGY PREDICTED BY IDOCK:   -3.26 KCAL/MOL
REMARK 924 INTRA-LIGAND FREE ENERGY PREDICTED BY IDOCK:   -0.37 KCAL/MOL
REMARK 927      BINDING AFFINITY PREDICTED BY RF-SCORE:    0.00 PKD
ROOT
HETATM    1  C   UNL     1     -10.452   5.299  66.287  1.00  0.00    -0.311 C  
HETATM    2  C   UNL     1      -9.594   5.193  67.564  1.00  0.00    -0.140 C  
ENDROOT
BRANCH   2   3
HETATM    3  N   UNL     1      -8.492   4.194  67.337  1.00  0.00    -0.099 NA 
HETATM    4  C   UNL     1      -7.171   4.705  67.720  1.00  0.00    -0.066 C  
HETATM    5  C   UNL     1      -8.413   3.768  65.928  1.00  0.00    -0.110 C  
ENDBRANCH   2   3
BRANCH   2   6
HETATM    6  C   UNL     1     -10.534   4.860  68.788  1.00  0.00     0.120 C  
BRANCH   6   7
HETATM    7  N   UNL     1      -9.969   5.283  70.113  1.00  0.00    -0.221 NA 
HETATM    8  C   UNL     1      -9.355   4.254  70.908  1.00  0.00    -0.150 A  
HETATM    9  C   UNL     1      -9.244   2.915  70.473  1.00  0.00    -0.209 A  
HETATM   10  C   UNL     1      -8.668   1.900  71.252  1.00  0.00    -0.102 A  
HETATM   11  C   UNL     1      -8.165   2.190  72.508  1.00  0.00    -0.054 A  
HETATM   12  C   UNL     1      -8.242   3.495  72.971  1.00  0.00    -0.078 A  
HETATM   13  C   UNL     1      -8.826   4.516  72.190  1.00  0.00    -0.121 A  
HETATM   14  S   UNL     1      -8.826   6.107  72.964  1.00  0.00    -0.123 SA 
HETATM   15  C   UNL     1      -9.644   7.116  71.762  1.00  0.00    -0.151 A  
HETATM   16  C   UNL     1      -9.774   8.471  72.144  1.00  0.00    -0.387 A  
HETATM   17  C   UNL     1     -10.377   9.399  71.310  1.00  0.00    -0.363 A  
HETATM   18  C   UNL     1     -10.868   8.975  70.090  1.00  0.00    -0.261 A  
HETATM   19  C   UNL     1     -10.756   7.622  69.714  1.00  0.00    -0.243 A  
HETATM   20  C   UNL     1     -10.128   6.645  70.521  1.00  0.00    -0.187 A  
ENDBRANCH   6   7
ENDBRANCH   2   6
TORSDOF 3
ENDMDL
MODEL      161
REMARK 921   NORMALIZED FREE ENERGY PREDICTED BY IDOCK:   -2.74 KCAL/MOL
REMARK 922        TOTAL FREE ENERGY PREDICTED BY IDOCK:   -3.59 KCAL/MOL
REMARK 923 INTER-LIGAND FREE ENERGY PREDICTED BY IDOCK:   -3.27 KCAL/MOL
REMARK 924 INTRA-LIGAND FREE ENERGY PREDICTED BY IDOCK:   -0.32 KCAL/MOL
REMARK 927      BINDING AFFINITY PREDICTED BY RF-SCORE:    0.00 PKD
ROOT
HETATM    1  C   UNL     1     -10.526   5.164  74.123  1.00  0.00    -0.326 C  
HETATM    2  C   UNL     1      -9.987   4.687  72.759  1.00  0.00    -0.155 C  
ENDROOT
BRANCH   2   3
HETATM    3  N   UNL     1      -9.562   3.247  72.873  1.00  0.00    -0.107 NA 
HETATM    4  C   UNL     1     -10.497   2.436  73.661  1.00  0.00    -0.134 C  
HETATM    5  C   UNL     1      -8.228   3.112  73.487  1.00  0.00    -0.074 C  
ENDBRANCH   2   3
BRANCH   2   6
HETATM    6  C   UNL     1      -8.844   5.667  72.286  1.00  0.00    -0.132 C  
BRANCH   6   7
HETATM    7  N   UNL     1      -9.093   6.275  70.936  1.00  0.00    -0.150 NA 
HETATM    8  C   UNL     1      -9.953   7.426  70.899  1.00  0.00    -0.184 A  
HETATM    9  C   UNL     1     -10.520   7.996  72.061  1.00  0.00    -0.308 A  
HETATM   10  C   UNL     1     -11.381   9.104  72.030  1.00  0.00    -0.333 A  
HETATM   11  C   UNL     1     -11.704   9.699  70.824  1.00  0.00    -0.390 A  
HETATM   12  C   UNL     1     -11.161   9.180  69.659  1.00  0.00    -0.103 A  
HETATM   13  C   UNL     1     -10.300   8.062  69.687  1.00  0.00    -0.220 A  
HETATM   14  S   UNL     1      -9.719   7.557  68.093  1.00  0.00    -0.158 SA 
HETATM   15  C   UNL     1      -8.723   6.145  68.481  1.00  0.00    -0.111 A  
HETATM   16  C   UNL     1      -8.124   5.540  67.352  1.00  0.00    -0.101 A  
HETATM   17  C   UNL     1      -7.301   4.434  67.481  1.00  0.00    -0.069 A  
HETATM   18  C   UNL     1      -7.081   3.913  68.743  1.00  0.00    -0.051 A  
HETATM   19  C   UNL     1      -7.690   4.503  69.867  1.00  0.00    -0.057 A  
HETATM   20  C   UNL     1      -8.518   5.647  69.787  1.00  0.00    -0.107 A  
ENDBRANCH   6   7
ENDBRANCH   2   6
TORSDOF 3
ENDMDL
MODEL      162
REMARK 921   NORMALIZED FREE ENERGY PREDICTED BY IDOCK:   -2.74 KCAL/MOL
REMARK 922        TOTAL FREE ENERGY PREDICTED BY IDOCK:   -3.59 KCAL/MOL
REMARK 923 INTER-LIGAND FREE ENERGY PREDICTED BY IDOCK:   -3.53 KCAL/MOL
REMARK 924 INTRA-LIGAND FREE ENERGY PREDICTED BY IDOCK:   -0.06 KCAL/MOL
REMARK 927      BINDING AFFINITY PREDICTED BY RF-SCORE:    0.00 PKD
ROOT
HETATM    1  C   UNL     1      -7.704   5.424  69.100  1.00  0.00    -0.089 C  
HETATM    2  C   UNL     1      -9.069   4.716  68.976  1.00  0.00    -0.118 C  
ENDROOT
BRANCH   2   3
HETATM    3  N   UNL     1      -8.843   3.258  68.677  1.00  0.00    -0.103 NA 
HETATM    4  C   UNL     1      -8.118   2.562  69.746  1.00  0.00    -0.041 C  
HETATM    5  C   UNL     1      -8.087   3.061  67.426  1.00  0.00    -0.077 C  
ENDBRANCH   2   3
BRANCH   2   6
HETATM    6  C   UNL     1      -9.945   5.472  67.902  1.00  0.00    -0.149 C  
BRANCH   6   7
HETATM    7  N   UNL     1      -9.917   6.966  68.047  1.00  0.00    -0.149 NA 
HETATM    8  C   UNL     1     -10.624   7.516  69.171  1.00  0.00    -0.197 A  
HETATM    9  C   UNL     1     -11.290   6.712  70.124  1.00  0.00    -0.440 A  
HETATM   10  C   UNL     1     -12.003   7.242  71.211  1.00  0.00    -0.359 A  
HETATM   11  C   UNL     1     -12.071   8.612  71.395  1.00  0.00    -0.351 A  
HETATM   12  C   UNL     1     -11.423   9.438  70.490  1.00  0.00    -0.317 A  
HETATM   13  C   UNL     1     -10.710   8.907  69.394  1.00  0.00    -0.181 A  
HETATM   14  S   UNL     1      -9.958  10.131  68.359  1.00  0.00    -0.163 SA 
HETATM   15  C   UNL     1      -9.201   9.150  67.096  1.00  0.00    -0.133 A  
HETATM   16  C   UNL     1      -8.513   9.905  66.120  1.00  0.00    -0.130 A  
HETATM   17  C   UNL     1      -7.850   9.291  65.069  1.00  0.00    -0.111 A  
HETATM   18  C   UNL     1      -7.883   7.912  64.980  1.00  0.00    -0.120 A  
HETATM   19  C   UNL     1      -8.582   7.157  65.941  1.00  0.00    -0.157 A  
HETATM   20  C   UNL     1      -9.252   7.739  67.043  1.00  0.00    -0.145 A  
ENDBRANCH   6   7
ENDBRANCH   2   6
TORSDOF 3
ENDMDL
MODEL      163
REMARK 921   NORMALIZED FREE ENERGY PREDICTED BY IDOCK:   -2.69 KCAL/MOL
REMARK 922        TOTAL FREE ENERGY PREDICTED BY IDOCK:   -3.53 KCAL/MOL
REMARK 923 INTER-LIGAND FREE ENERGY PREDICTED BY IDOCK:   -3.16 KCAL/MOL
REMARK 924 INTRA-LIGAND FREE ENERGY PREDICTED BY IDOCK:   -0.37 KCAL/MOL
REMARK 927      BINDING AFFINITY PREDICTED BY RF-SCORE:    0.00 PKD
ROOT
HETATM    1  C   UNL     1      -8.558  11.159  68.079  1.00  0.00    -0.140 C  
HETATM    2  C   UNL     1      -8.116   9.713  67.781  1.00  0.00    -0.113 C  
ENDROOT
BRANCH   2   3
HETATM    3  N   UNL     1      -6.850   9.741  66.967  1.00  0.00    -0.082 NA 
HETATM    4  C   UNL     1      -5.718   9.104  67.649  1.00  0.00    -0.042 C  
HETATM    5  C   UNL     1      -6.444  11.117  66.624  1.00  0.00    -0.134 C  
ENDBRANCH   2   3
BRANCH   2   6
HETATM    6  C   UNL     1      -9.311   8.939  67.099  1.00  0.00    -0.145 C  
BRANCH   6   7
HETATM    7  N   UNL     1      -9.483   7.535  67.600  1.00  0.00    -0.136 NA 
HETATM    8  C   UNL     1      -8.994   6.484  66.748  1.00  0.00    -0.131 A  
HETATM    9  C   UNL     1      -8.352   6.736  65.515  1.00  0.00    -0.143 A  
HETATM   10  C   UNL     1      -7.894   5.716  64.667  1.00  0.00    -0.113 A  
HETATM   11  C   UNL     1      -8.054   4.390  65.026  1.00  0.00    -0.099 A  
HETATM   12  C   UNL     1      -8.670   4.097  66.233  1.00  0.00    -0.115 A  
HETATM   13  C   UNL     1      -9.135   5.121  67.086  1.00  0.00    -0.112 A  
HETATM   14  S   UNL     1      -9.891   4.535  68.575  1.00  0.00    -0.039 SA 
HETATM   15  C   UNL     1     -10.383   6.038  69.370  1.00  0.00    -0.236 A  
HETATM   16  C   UNL     1     -11.025   5.844  70.614  1.00  0.00    -0.357 A  
HETATM   17  C   UNL     1     -11.459   6.917  71.375  1.00  0.00    -0.321 A  
HETATM   18  C   UNL     1     -11.267   8.196  70.889  1.00  0.00    -0.286 A  
HETATM   19  C   UNL     1     -10.643   8.393  69.642  1.00  0.00    -0.219 A  
HETATM   20  C   UNL     1     -10.162   7.329  68.842  1.00  0.00    -0.193 A  
ENDBRANCH   6   7
ENDBRANCH   2   6
TORSDOF 3
ENDMDL
MODEL      164
REMARK 921   NORMALIZED FREE ENERGY PREDICTED BY IDOCK:   -2.66 KCAL/MOL
REMARK 922        TOTAL FREE ENERGY PREDICTED BY IDOCK:   -3.49 KCAL/MOL
REMARK 923 INTER-LIGAND FREE ENERGY PREDICTED BY IDOCK:   -3.31 KCAL/MOL
REMARK 924 INTRA-LIGAND FREE ENERGY PREDICTED BY IDOCK:   -0.18 KCAL/MOL
REMARK 927      BINDING AFFINITY PREDICTED BY RF-SCORE:    0.00 PKD
ROOT
HETATM    1  C   UNL     1      -7.206  14.547  69.435  1.00  0.00    -0.120 C  
HETATM    2  C   UNL     1      -7.461  13.122  68.902  1.00  0.00     0.011 C  
ENDROOT
BRANCH   2   3
HETATM    3  N   UNL     1      -6.617  12.147  69.677  1.00  0.00    -0.076 NA 
HETATM    4  C   UNL     1      -5.225  12.101  69.212  1.00  0.00    -0.060 C  
HETATM    5  C   UNL     1      -7.153  10.775  69.608  1.00  0.00    -0.136 C  
ENDBRANCH   2   3
BRANCH   2   6
HETATM    6  C   UNL     1      -7.212  13.104  67.344  1.00  0.00    -0.110 C  
BRANCH   6   7
HETATM    7  N   UNL     1      -8.161  12.217  66.592  1.00  0.00    -0.081 NA 
HETATM    8  C   UNL     1      -7.609  11.013  66.032  1.00  0.00    -0.042 A  
HETATM    9  C   UNL     1      -6.254  10.645  66.195  1.00  0.00    -0.125 A  
HETATM   10  C   UNL     1      -5.702   9.485  65.631  1.00  0.00    -0.053 A  
HETATM   11  C   UNL     1      -6.493   8.632  64.882  1.00  0.00    -0.065 A  
HETATM   12  C   UNL     1      -7.831   8.948  64.705  1.00  0.00    -0.121 A  
HETATM   13  C   UNL     1      -8.387  10.118  65.268  1.00  0.00    -0.159 A  
HETATM   14  S   UNL     1     -10.110  10.337  64.923  1.00  0.00    -0.174 SA 
HETATM   15  C   UNL     1     -10.465  11.876  65.720  1.00  0.00    -0.256 A  
HETATM   16  C   UNL     1     -11.811  12.288  65.595  1.00  0.00    -0.423 A  
HETATM   17  C   UNL     1     -12.261  13.464  66.174  1.00  0.00    -0.471 A  
HETATM   18  C   UNL     1     -11.361  14.245  66.874  1.00  0.00    -0.354 A  
HETATM   19  C   UNL     1     -10.015  13.847  66.986  1.00  0.00    -0.258 A  
HETATM   20  C   UNL     1      -9.517  12.644  66.432  1.00  0.00    -0.231 A  
ENDBRANCH   6   7
ENDBRANCH   2   6
TORSDOF 3
ENDMDL
MODEL      165
REMARK 921   NORMALIZED FREE ENERGY PREDICTED BY IDOCK:   -2.63 KCAL/MOL
REMARK 922        TOTAL FREE ENERGY PREDICTED BY IDOCK:   -3.46 KCAL/MOL
REMARK 923 INTER-LIGAND FREE ENERGY PREDICTED BY IDOCK:   -3.02 KCAL/MOL
REMARK 924 INTRA-LIGAND FREE ENERGY PREDICTED BY IDOCK:   -0.43 KCAL/MOL
REMARK 927      BINDING AFFINITY PREDICTED BY RF-SCORE:    0.00 PKD
ROOT
HETATM    1  C   UNL     1      -9.282   9.002  71.033  1.00  0.00    -0.331 C  
HETATM    2  C   UNL     1      -8.914   7.854  70.072  1.00  0.00    -0.145 C  
ENDROOT
BRANCH   2   3
HETATM    3  N   UNL     1     -10.176   7.201  69.576  1.00  0.00    -0.190 NA 
HETATM    4  C   UNL     1     -10.472   7.520  68.175  1.00  0.00    -0.183 C  
HETATM    5  C   UNL     1     -11.351   7.590  70.378  1.00  0.00    -0.233 C  
ENDBRANCH   2   3
BRANCH   2   6
HETATM    6  C   UNL     1      -7.917   6.871  70.802  1.00  0.00    -0.106 C  
BRANCH   6   7
HETATM    7  N   UNL     1      -8.353   5.435  70.766  1.00  0.00    -0.114 NA 
HETATM    8  C   UNL     1      -9.111   4.965  71.893  1.00  0.00    -0.136 A  
HETATM    9  C   UNL     1      -9.470   5.799  72.976  1.00  0.00    -0.153 A  
HETATM   10  C   UNL     1     -10.188   5.341  74.091  1.00  0.00    -0.279 A  
HETATM   11  C   UNL     1     -10.589   4.019  74.165  1.00  0.00    -0.289 A  
HETATM   12  C   UNL     1     -10.268   3.167  73.119  1.00  0.00    -0.227 A  
HETATM   13  C   UNL     1      -9.541   3.625  71.999  1.00  0.00    -0.144 A  
HETATM   14  S   UNL     1      -9.235   2.379  70.779  1.00  0.00    -0.139 SA 
HETATM   15  C   UNL     1      -8.294   3.258  69.565  1.00  0.00    -0.059 A  
HETATM   16  C   UNL     1      -7.915   2.471  68.453  1.00  0.00    -0.061 A  
HETATM   17  C   UNL     1      -7.188   3.009  67.404  1.00  0.00    -0.054 A  
HETATM   18  C   UNL     1      -6.821   4.341  67.466  1.00  0.00    -0.052 A  
HETATM   19  C   UNL     1      -7.181   5.124  68.579  1.00  0.00    -0.062 A  
HETATM   20  C   UNL     1      -7.943   4.624  69.661  1.00  0.00    -0.065 A  
ENDBRANCH   6   7
ENDBRANCH   2   6
TORSDOF 3
ENDMDL
MODEL      166
REMARK 921   NORMALIZED FREE ENERGY PREDICTED BY IDOCK:   -2.60 KCAL/MOL
REMARK 922        TOTAL FREE ENERGY PREDICTED BY IDOCK:   -3.42 KCAL/MOL
REMARK 923 INTER-LIGAND FREE ENERGY PREDICTED BY IDOCK:   -3.23 KCAL/MOL
REMARK 924 INTRA-LIGAND FREE ENERGY PREDICTED BY IDOCK:   -0.19 KCAL/MOL
REMARK 927      BINDING AFFINITY PREDICTED BY RF-SCORE:    0.00 PKD
ROOT
HETATM    1  C   UNL     1      -6.254   8.605  73.048  1.00  0.00    -0.080 C  
HETATM    2  C   UNL     1      -6.683   8.388  71.583  1.00  0.00    -0.073 C  
ENDROOT
BRANCH   2   3
HETATM    3  N   UNL     1      -5.789   9.197  70.682  1.00  0.00    -0.037 NA 
HETATM    4  C   UNL     1      -6.281  10.562  70.465  1.00  0.00    -0.108 C  
HETATM    5  C   UNL     1      -5.624   8.569  69.358  1.00  0.00    -0.031 C  
ENDBRANCH   2   3
BRANCH   2   6
HETATM    6  C   UNL     1      -8.219   8.720  71.443  1.00  0.00    -0.153 C  
BRANCH   6   7
HETATM    7  N   UNL     1      -8.958   7.781  70.533  1.00  0.00    -0.149 NA 
HETATM    8  C   UNL     1      -9.141   6.437  71.010  1.00  0.00    -0.154 A  
HETATM    9  C   UNL     1      -8.690   6.006  72.278  1.00  0.00    -0.131 A  
HETATM   10  C   UNL     1      -8.843   4.690  72.740  1.00  0.00    -0.121 A  
HETATM   11  C   UNL     1      -9.469   3.745  71.948  1.00  0.00    -0.207 A  
HETATM   12  C   UNL     1      -9.938   4.126  70.701  1.00  0.00    -0.185 A  
HETATM   13  C   UNL     1      -9.780   5.448  70.232  1.00  0.00    -0.192 A  
HETATM   14  S   UNL     1     -10.446   5.726  68.615  1.00  0.00    -0.226 SA 
HETATM   15  C   UNL     1     -10.052   7.428  68.329  1.00  0.00    -0.177 A  
HETATM   16  C   UNL     1     -10.490   7.913  67.075  1.00  0.00    -0.419 A  
HETATM   17  C   UNL     1     -10.276   9.229  66.698  1.00  0.00    -0.323 A  
HETATM   18  C   UNL     1      -9.608  10.069  67.570  1.00  0.00    -0.178 A  
HETATM   19  C   UNL     1      -9.156   9.584  68.813  1.00  0.00    -0.133 A  
HETATM   20  C   UNL     1      -9.372   8.256  69.249  1.00  0.00    -0.155 A  
ENDBRANCH   6   7
ENDBRANCH   2   6
TORSDOF 3
ENDMDL
MODEL      167
REMARK 921   NORMALIZED FREE ENERGY PREDICTED BY IDOCK:   -2.59 KCAL/MOL
REMARK 922        TOTAL FREE ENERGY PREDICTED BY IDOCK:   -3.41 KCAL/MOL
REMARK 923 INTER-LIGAND FREE ENERGY PREDICTED BY IDOCK:   -4.24 KCAL/MOL
REMARK 924 INTRA-LIGAND FREE ENERGY PREDICTED BY IDOCK:    0.82 KCAL/MOL
REMARK 927      BINDING AFFINITY PREDICTED BY RF-SCORE:    0.00 PKD
ROOT
HETATM    1  C   UNL     1      -7.931  19.375  68.240  1.00  0.00    -0.366 C  
HETATM    2  C   UNL     1      -7.562  17.879  68.179  1.00  0.00    -0.260 C  
ENDROOT
BRANCH   2   3
HETATM    3  N   UNL     1      -6.669  17.639  66.991  1.00  0.00    -0.162 NA 
HETATM    4  C   UNL     1      -5.671  16.590  67.230  1.00  0.00    -0.146 C  
HETATM    5  C   UNL     1      -5.945  18.859  66.589  1.00  0.00    -0.161 C  
ENDBRANCH   2   3
BRANCH   2   6
HETATM    6  C   UNL     1      -8.888  17.022  68.180  1.00  0.00    -0.227 C  
BRANCH   6   7
HETATM    7  N   UNL     1      -8.663  15.565  67.897  1.00  0.00    -0.162 NA 
HETATM    8  C   UNL     1      -9.396  15.003  66.795  1.00  0.00    -0.251 A  
HETATM    9  C   UNL     1     -10.262  15.769  65.983  1.00  0.00    -0.352 A  
HETATM   10  C   UNL     1     -11.000  15.223  64.921  1.00  0.00    -0.445 A  
HETATM   11  C   UNL     1     -10.891  13.877  64.620  1.00  0.00    -0.420 A  
HETATM   12  C   UNL     1     -10.043  13.090  65.383  1.00  0.00    -0.265 A  
HETATM   13  C   UNL     1      -9.305  13.636  66.455  1.00  0.00    -0.228 A  
HETATM   14  S   UNL     1      -8.285  12.463  67.303  1.00  0.00    -0.179 SA 
HETATM   15  C   UNL     1      -7.550  13.447  68.577  1.00  0.00    -0.127 A  
HETATM   16  C   UNL     1      -6.666  12.731  69.415  1.00  0.00    -0.018 A  
HETATM   17  C   UNL     1      -5.994  13.355  70.454  1.00  0.00    -0.132 A  
HETATM   18  C   UNL     1      -6.213  14.702  70.671  1.00  0.00    -0.115 A  
HETATM   19  C   UNL     1      -7.107  15.415  69.849  1.00  0.00    -0.073 A  
HETATM   20  C   UNL     1      -7.796  14.826  68.763  1.00  0.00    -0.146 A  
ENDBRANCH   6   7
ENDBRANCH   2   6
TORSDOF 3
ENDMDL
MODEL      168
REMARK 921   NORMALIZED FREE ENERGY PREDICTED BY IDOCK:   -2.57 KCAL/MOL
REMARK 922        TOTAL FREE ENERGY PREDICTED BY IDOCK:   -3.39 KCAL/MOL
REMARK 923 INTER-LIGAND FREE ENERGY PREDICTED BY IDOCK:   -3.17 KCAL/MOL
REMARK 924 INTRA-LIGAND FREE ENERGY PREDICTED BY IDOCK:   -0.22 KCAL/MOL
REMARK 927      BINDING AFFINITY PREDICTED BY RF-SCORE:    0.00 PKD
ROOT
HETATM    1  C   UNL     1      -7.966  10.086  69.888  1.00  0.00    -0.184 C  
HETATM    2  C   UNL     1      -8.464   8.648  69.636  1.00  0.00    -0.129 C  
ENDROOT
BRANCH   2   3
HETATM    3  N   UNL     1      -9.969   8.647  69.601  1.00  0.00    -0.187 NA 
HETATM    4  C   UNL     1     -10.510   9.031  68.292  1.00  0.00    -0.200 C  
HETATM    5  C   UNL     1     -10.546   9.559  70.606  1.00  0.00    -0.308 C  
ENDBRANCH   2   3
BRANCH   2   6
HETATM    6  C   UNL     1      -7.838   7.689  70.723  1.00  0.00    -0.096 C  
BRANCH   6   7
HETATM    7  N   UNL     1      -8.323   6.272  70.625  1.00  0.00    -0.131 NA 
HETATM    8  C   UNL     1      -7.872   5.515  69.488  1.00  0.00    -0.087 A  
HETATM    9  C   UNL     1      -6.991   6.044  68.518  1.00  0.00    -0.076 A  
HETATM   10  C   UNL     1      -6.566   5.321  67.393  1.00  0.00    -0.053 A  
HETATM   11  C   UNL     1      -7.002   4.023  67.197  1.00  0.00    -0.062 A  
HETATM   12  C   UNL     1      -7.858   3.459  68.130  1.00  0.00    -0.063 A  
HETATM   13  C   UNL     1      -8.291   4.187  69.260  1.00  0.00    -0.069 A  
HETATM   14  S   UNL     1      -9.381   3.287  70.325  1.00  0.00    -0.168 SA 
HETATM   15  C   UNL     1      -9.752   4.476  71.583  1.00  0.00    -0.175 A  
HETATM   16  C   UNL     1     -10.624   3.995  72.586  1.00  0.00    -0.186 A  
HETATM   17  C   UNL     1     -11.003   4.793  73.653  1.00  0.00    -0.391 A  
HETATM   18  C   UNL     1     -10.522   6.087  73.718  1.00  0.00    -0.288 A  
HETATM   19  C   UNL     1      -9.666   6.575  72.712  1.00  0.00    -0.166 A  
HETATM   20  C   UNL     1      -9.234   5.790  71.617  1.00  0.00    -0.146 A  
ENDBRANCH   6   7
ENDBRANCH   2   6
TORSDOF 3
ENDMDL
MODEL      169
REMARK 921   NORMALIZED FREE ENERGY PREDICTED BY IDOCK:   -2.44 KCAL/MOL
REMARK 922        TOTAL FREE ENERGY PREDICTED BY IDOCK:   -3.23 KCAL/MOL
REMARK 923 INTER-LIGAND FREE ENERGY PREDICTED BY IDOCK:   -3.09 KCAL/MOL
REMARK 924 INTRA-LIGAND FREE ENERGY PREDICTED BY IDOCK:   -0.14 KCAL/MOL
REMARK 927      BINDING AFFINITY PREDICTED BY RF-SCORE:    0.00 PKD
ROOT
HETATM    1  C   UNL     1      -7.177   6.168  69.486  1.00  0.00    -0.078 C  
HETATM    2  C   UNL     1      -8.712   6.289  69.578  1.00  0.00    -0.132 C  
ENDROOT
BRANCH   2   3
HETATM    3  N   UNL     1      -9.202   5.482  70.750  1.00  0.00    -0.148 NA 
HETATM    4  C   UNL     1      -9.569   4.109  70.384  1.00  0.00    -0.196 C  
HETATM    5  C   UNL     1     -10.376   6.100  71.394  1.00  0.00    -0.214 C  
ENDBRANCH   2   3
BRANCH   2   6
HETATM    6  C   UNL     1      -9.344   5.874  68.192  1.00  0.00    -0.115 C  
BRANCH   6   7
HETATM    7  N   UNL     1      -9.090   6.865  67.093  1.00  0.00    -0.128 NA 
HETATM    8  C   UNL     1      -8.245   6.427  66.016  1.00  0.00    -0.126 A  
HETATM    9  C   UNL     1      -7.698   5.126  65.953  1.00  0.00    -0.091 A  
HETATM   10  C   UNL     1      -6.853   4.698  64.917  1.00  0.00    -0.053 A  
HETATM   11  C   UNL     1      -6.526   5.562  63.887  1.00  0.00    -0.033 A  
HETATM   12  C   UNL     1      -7.050   6.845  63.902  1.00  0.00    -0.060 A  
HETATM   13  C   UNL     1      -7.896   7.278  64.946  1.00  0.00    -0.126 A  
HETATM   14  S   UNL     1      -8.453   8.950  64.777  1.00  0.00    -0.157 SA 
HETATM   15  C   UNL     1      -9.433   9.173  66.234  1.00  0.00    -0.237 A  
HETATM   16  C   UNL     1     -10.012  10.458  66.343  1.00  0.00    -0.277 A  
HETATM   17  C   UNL     1     -10.821  10.794  67.416  1.00  0.00    -0.345 A  
HETATM   18  C   UNL     1     -11.047   9.849  68.399  1.00  0.00    -0.193 A  
HETATM   19  C   UNL     1     -10.457   8.573  68.303  1.00  0.00    -0.222 A  
HETATM   20  C   UNL     1      -9.644   8.178  67.215  1.00  0.00    -0.163 A  
ENDBRANCH   6   7
ENDBRANCH   2   6
TORSDOF 3
ENDMDL
MODEL      170
REMARK 921   NORMALIZED FREE ENERGY PREDICTED BY IDOCK:   -2.43 KCAL/MOL
REMARK 922        TOTAL FREE ENERGY PREDICTED BY IDOCK:   -3.22 KCAL/MOL
REMARK 923 INTER-LIGAND FREE ENERGY PREDICTED BY IDOCK:   -3.69 KCAL/MOL
REMARK 924 INTRA-LIGAND FREE ENERGY PREDICTED BY IDOCK:    0.47 KCAL/MOL
REMARK 927      BINDING AFFINITY PREDICTED BY RF-SCORE:    0.00 PKD
ROOT
HETATM    1  C   UNL     1     -10.781  18.401  65.938  1.00  0.00    -0.209 C  
HETATM    2  C   UNL     1     -10.192  16.976  65.957  1.00  0.00    -0.325 C  
ENDROOT
BRANCH   2   3
HETATM    3  N   UNL     1     -10.585  16.262  64.692  1.00  0.00    -0.533 NA 
HETATM    4  C   UNL     1     -12.030  16.308  64.436  1.00  0.00     0.348 C  
HETATM    5  C   UNL     1     -10.181  14.844  64.709  1.00  0.00    -0.118 C  
ENDBRANCH   2   3
BRANCH   2   6
HETATM    6  C   UNL     1     -10.648  16.250  67.282  1.00  0.00    -0.298 C  
BRANCH   6   7
HETATM    7  N   UNL     1      -9.580  15.391  67.896  1.00  0.00    -0.205 NA 
HETATM    8  C   UNL     1      -9.831  13.975  67.922  1.00  0.00    -0.233 A  
HETATM    9  C   UNL     1     -10.997  13.395  67.375  1.00  0.00    -0.287 A  
HETATM   10  C   UNL     1     -11.260  12.017  67.419  1.00  0.00    -0.368 A  
HETATM   11  C   UNL     1     -10.353  11.155  68.009  1.00  0.00    -0.208 A  
HETATM   12  C   UNL     1      -9.189  11.680  68.548  1.00  0.00    -0.163 A  
HETATM   13  C   UNL     1      -8.925  13.066  68.510  1.00  0.00    -0.048 A  
HETATM   14  S   UNL     1      -7.388  13.530  69.255  1.00  0.00     0.257 SA 
HETATM   15  C   UNL     1      -7.392  15.291  69.074  1.00  0.00    -0.157 A  
HETATM   16  C   UNL     1      -6.242  15.923  69.598  1.00  0.00    -0.177 A  
HETATM   17  C   UNL     1      -6.079  17.297  69.524  1.00  0.00    -0.247 A  
HETATM   18  C   UNL     1      -7.076  18.053  68.935  1.00  0.00    -0.268 A  
HETATM   19  C   UNL     1      -8.231  17.428  68.427  1.00  0.00    -0.262 A  
HETATM   20  C   UNL     1      -8.430  16.028  68.459  1.00  0.00    -0.189 A  
ENDBRANCH   6   7
ENDBRANCH   2   6
TORSDOF 3
ENDMDL
MODEL      171
REMARK 921   NORMALIZED FREE ENERGY PREDICTED BY IDOCK:   -2.38 KCAL/MOL
REMARK 922        TOTAL FREE ENERGY PREDICTED BY IDOCK:   -3.17 KCAL/MOL
REMARK 923 INTER-LIGAND FREE ENERGY PREDICTED BY IDOCK:   -3.03 KCAL/MOL
REMARK 924 INTRA-LIGAND FREE ENERGY PREDICTED BY IDOCK:   -0.14 KCAL/MOL
REMARK 927      BINDING AFFINITY PREDICTED BY RF-SCORE:    0.00 PKD
ROOT
HETATM    1  C   UNL     1     -10.685   5.544  66.673  1.00  0.00    -0.332 C  
HETATM    2  C   UNL     1      -9.808   5.635  67.939  1.00  0.00    -0.133 C  
ENDROOT
BRANCH   2   3
HETATM    3  N   UNL     1      -8.477   4.989  67.664  1.00  0.00    -0.105 NA 
HETATM    4  C   UNL     1      -7.341   5.861  67.987  1.00  0.00    -0.080 C  
HETATM    5  C   UNL     1      -8.339   4.584  66.253  1.00  0.00    -0.110 C  
ENDBRANCH   2   3
BRANCH   2   6
HETATM    6  C   UNL     1     -10.596   5.010  69.155  1.00  0.00     0.127 C  
BRANCH   6   7
HETATM    7  N   UNL     1     -10.163   5.543  70.490  1.00  0.00    -0.224 NA 
HETATM    8  C   UNL     1     -10.433   6.933  70.745  1.00  0.00    -0.216 A  
HETATM    9  C   UNL     1     -11.100   7.765  69.818  1.00  0.00    -0.095 A  
HETATM   10  C   UNL     1     -11.346   9.127  70.049  1.00  0.00    -0.108 A  
HETATM   11  C   UNL     1     -10.938   9.715  71.233  1.00  0.00    -0.399 A  
HETATM   12  C   UNL     1     -10.290   8.933  72.176  1.00  0.00    -0.313 A  
HETATM   13  C   UNL     1     -10.038   7.564  71.944  1.00  0.00    -0.172 A  
HETATM   14  S   UNL     1      -9.198   6.748  73.271  1.00  0.00    -0.139 SA 
HETATM   15  C   UNL     1      -9.011   5.102  72.649  1.00  0.00    -0.125 A  
HETATM   16  C   UNL     1      -8.356   4.223  73.542  1.00  0.00    -0.093 A  
HETATM   17  C   UNL     1      -8.142   2.893  73.217  1.00  0.00    -0.068 A  
HETATM   18  C   UNL     1      -8.571   2.434  71.986  1.00  0.00    -0.089 A  
HETATM   19  C   UNL     1      -9.208   3.311  71.086  1.00  0.00    -0.195 A  
HETATM   20  C   UNL     1      -9.469   4.669  71.385  1.00  0.00    -0.157 A  
ENDBRANCH   6   7
ENDBRANCH   2   6
TORSDOF 3
ENDMDL
MODEL      172
REMARK 921   NORMALIZED FREE ENERGY PREDICTED BY IDOCK:   -2.33 KCAL/MOL
REMARK 922        TOTAL FREE ENERGY PREDICTED BY IDOCK:   -3.11 KCAL/MOL
REMARK 923 INTER-LIGAND FREE ENERGY PREDICTED BY IDOCK:   -2.97 KCAL/MOL
REMARK 924 INTRA-LIGAND FREE ENERGY PREDICTED BY IDOCK:   -0.14 KCAL/MOL
REMARK 927      BINDING AFFINITY PREDICTED BY RF-SCORE:    0.00 PKD
ROOT
HETATM    1  C   UNL     1      -7.002   6.014  69.505  1.00  0.00    -0.067 C  
HETATM    2  C   UNL     1      -8.439   6.086  70.060  1.00  0.00    -0.131 C  
ENDROOT
BRANCH   2   3
HETATM    3  N   UNL     1      -8.577   5.112  71.200  1.00  0.00    -0.121 NA 
HETATM    4  C   UNL     1      -9.063   3.796  70.771  1.00  0.00    -0.109 C  
HETATM    5  C   UNL     1      -9.495   5.608  72.242  1.00  0.00    -0.144 C  
ENDBRANCH   2   3
BRANCH   2   6
HETATM    6  C   UNL     1      -9.459   5.853  68.879  1.00  0.00    -0.126 C  
BRANCH   6   7
HETATM    7  N   UNL     1      -9.473   6.962  67.868  1.00  0.00    -0.121 NA 
HETATM    8  C   UNL     1     -10.168   8.164  68.242  1.00  0.00    -0.206 A  
HETATM    9  C   UNL     1     -10.784   8.330  69.503  1.00  0.00    -0.179 A  
HETATM   10  C   UNL     1     -11.485   9.490  69.867  1.00  0.00    -0.100 A  
HETATM   11  C   UNL     1     -11.590  10.545  68.979  1.00  0.00    -0.278 A  
HETATM   12  C   UNL     1     -10.991  10.431  67.734  1.00  0.00    -0.369 A  
HETATM   13  C   UNL     1     -10.289   9.262  67.364  1.00  0.00    -0.263 A  
HETATM   14  S   UNL     1      -9.602   9.318  65.734  1.00  0.00    -0.245 SA 
HETATM   15  C   UNL     1      -8.847   7.724  65.584  1.00  0.00    -0.065 A  
HETATM   16  C   UNL     1      -8.208   7.508  64.343  1.00  0.00    -0.018 A  
HETATM   17  C   UNL     1      -7.554   6.318  64.067  1.00  0.00    -0.098 A  
HETATM   18  C   UNL     1      -7.547   5.326  65.030  1.00  0.00    -0.082 A  
HETATM   19  C   UNL     1      -8.198   5.531  66.262  1.00  0.00    -0.111 A  
HETATM   20  C   UNL     1      -8.857   6.738  66.596  1.00  0.00    -0.137 A  
ENDBRANCH   6   7
ENDBRANCH   2   6
TORSDOF 3
ENDMDL
MODEL      173
REMARK 921   NORMALIZED FREE ENERGY PREDICTED BY IDOCK:   -2.29 KCAL/MOL
REMARK 922        TOTAL FREE ENERGY PREDICTED BY IDOCK:   -3.06 KCAL/MOL
REMARK 923 INTER-LIGAND FREE ENERGY PREDICTED BY IDOCK:   -2.76 KCAL/MOL
REMARK 924 INTRA-LIGAND FREE ENERGY PREDICTED BY IDOCK:   -0.29 KCAL/MOL
REMARK 927      BINDING AFFINITY PREDICTED BY RF-SCORE:    0.00 PKD
ROOT
HETATM    1  C   UNL     1     -10.678   5.129  67.770  1.00  0.00     0.074 C  
HETATM    2  C   UNL     1      -9.888   6.438  67.971  1.00  0.00    -0.123 C  
ENDROOT
BRANCH   2   3
HETATM    3  N   UNL     1     -10.316   7.078  69.265  1.00  0.00    -0.194 NA 
HETATM    4  C   UNL     1      -9.387   6.812  70.369  1.00  0.00    -0.163 C  
HETATM    5  C   UNL     1     -11.653   6.625  69.690  1.00  0.00    -0.243 C  
ENDBRANCH   2   3
BRANCH   2   6
HETATM    6  C   UNL     1     -10.077   7.353  66.699  1.00  0.00    -0.183 C  
BRANCH   6   7
HETATM    7  N   UNL     1      -9.016   8.406  66.553  1.00  0.00    -0.147 NA 
HETATM    8  C   UNL     1      -9.361   9.731  66.992  1.00  0.00    -0.147 A  
HETATM    9  C   UNL     1     -10.613  10.045  67.567  1.00  0.00    -0.336 A  
HETATM   10  C   UNL     1     -10.966  11.340  67.977  1.00  0.00    -0.302 A  
HETATM   11  C   UNL     1     -10.068  12.382  67.834  1.00  0.00    -0.208 A  
HETATM   12  C   UNL     1      -8.823  12.118  67.285  1.00  0.00    -0.186 A  
HETATM   13  C   UNL     1      -8.468  10.816  66.868  1.00  0.00    -0.131 A  
HETATM   14  S   UNL     1      -6.836  10.694  66.193  1.00  0.00    -0.127 SA 
HETATM   15  C   UNL     1      -6.735   8.984  65.748  1.00  0.00    -0.072 A  
HETATM   16  C   UNL     1      -5.498   8.613  65.174  1.00  0.00    -0.039 A  
HETATM   17  C   UNL     1      -5.248   7.308  64.783  1.00  0.00    -0.029 A  
HETATM   18  C   UNL     1      -6.242   6.363  64.951  1.00  0.00    -0.030 A  
HETATM   19  C   UNL     1      -7.483   6.732  65.506  1.00  0.00    -0.083 A  
HETATM   20  C   UNL     1      -7.774   8.046  65.941  1.00  0.00    -0.092 A  
ENDBRANCH   6   7
ENDBRANCH   2   6
TORSDOF 3
ENDMDL
MODEL      174
REMARK 921   NORMALIZED FREE ENERGY PREDICTED BY IDOCK:   -2.13 KCAL/MOL
REMARK 922        TOTAL FREE ENERGY PREDICTED BY IDOCK:   -2.87 KCAL/MOL
REMARK 923 INTER-LIGAND FREE ENERGY PREDICTED BY IDOCK:   -3.36 KCAL/MOL
REMARK 924 INTRA-LIGAND FREE ENERGY PREDICTED BY IDOCK:    0.49 KCAL/MOL
REMARK 927      BINDING AFFINITY PREDICTED BY RF-SCORE:    0.00 PKD
ROOT
HETATM    1  C   UNL     1     -11.004  12.200  68.952  1.00  0.00    -0.269 C  
HETATM    2  C   UNL     1     -11.240  11.376  67.670  1.00  0.00    -0.283 C  
ENDROOT
BRANCH   2   3
HETATM    3  N   UNL     1     -11.002   9.920  67.969  1.00  0.00    -0.245 NA 
HETATM    4  C   UNL     1      -9.919   9.705  68.935  1.00  0.00    -0.178 C  
HETATM    5  C   UNL     1     -10.671   9.154  66.753  1.00  0.00    -0.038 C  
ENDBRANCH   2   3
BRANCH   2   6
HETATM    6  C   UNL     1     -10.341  11.958  66.512  1.00  0.00    -0.216 C  
BRANCH   6   7
HETATM    7  N   UNL     1      -9.254  12.874  66.997  1.00  0.00    -0.220 NA 
HETATM    8  C   UNL     1      -9.581  14.272  67.078  1.00  0.00    -0.257 A  
HETATM    9  C   UNL     1     -10.861  14.779  66.757  1.00  0.00    -0.316 A  
HETATM   10  C   UNL     1     -11.181  16.144  66.811  1.00  0.00     0.154 A  
HETATM   11  C   UNL     1     -10.226  17.066  67.200  1.00  0.00    -0.306 A  
HETATM   12  C   UNL     1      -8.960  16.612  67.535  1.00  0.00    -0.204 A  
HETATM   13  C   UNL     1      -8.634  15.240  67.477  1.00  0.00    -0.177 A  
HETATM   14  S   UNL     1      -6.966  14.872  67.942  1.00  0.00    -0.173 SA 
HETATM   15  C   UNL     1      -6.888  13.117  67.724  1.00  0.00    -0.149 A  
HETATM   16  C   UNL     1      -5.630  12.557  68.039  1.00  0.00    -0.082 A  
HETATM   17  C   UNL     1      -5.403  11.194  67.938  1.00  0.00    -0.043 A  
HETATM   18  C   UNL     1      -6.434  10.380  67.506  1.00  0.00    -0.058 A  
HETATM   19  C   UNL     1      -7.684  10.937  67.174  1.00  0.00    -0.123 A  
HETATM   20  C   UNL     1      -7.968  12.318  67.284  1.00  0.00    -0.177 A  
ENDBRANCH   6   7
ENDBRANCH   2   6
TORSDOF 3
ENDMDL
MODEL      175
REMARK 921   NORMALIZED FREE ENERGY PREDICTED BY IDOCK:   -2.06 KCAL/MOL
REMARK 922        TOTAL FREE ENERGY PREDICTED BY IDOCK:   -2.78 KCAL/MOL
REMARK 923 INTER-LIGAND FREE ENERGY PREDICTED BY IDOCK:   -2.36 KCAL/MOL
REMARK 924 INTRA-LIGAND FREE ENERGY PREDICTED BY IDOCK:   -0.42 KCAL/MOL
REMARK 927      BINDING AFFINITY PREDICTED BY RF-SCORE:    0.00 PKD
ROOT
HETATM    1  C   UNL     1      -9.160   4.736  65.176  1.00  0.00    -0.155 C  
HETATM    2  C   UNL     1      -8.582   5.659  66.267  1.00  0.00    -0.127 C  
ENDROOT
BRANCH   2   3
HETATM    3  N   UNL     1      -8.731   4.992  67.608  1.00  0.00    -0.104 NA 
HETATM    4  C   UNL     1      -7.444   4.734  68.264  1.00  0.00    -0.073 C  
HETATM    5  C   UNL     1      -9.444   3.705  67.509  1.00  0.00    -0.191 C  
ENDBRANCH   2   3
BRANCH   2   6
HETATM    6  C   UNL     1      -9.275   7.074  66.164  1.00  0.00    -0.077 C  
BRANCH   6   7
HETATM    7  N   UNL     1      -8.306   8.221  66.177  1.00  0.00    -0.117 NA 
HETATM    8  C   UNL     1      -8.066   8.845  67.450  1.00  0.00    -0.108 A  
HETATM    9  C   UNL     1      -8.671   8.400  68.646  1.00  0.00    -0.133 A  
HETATM   10  C   UNL     1      -8.461   9.018  69.888  1.00  0.00    -0.139 A  
HETATM   11  C   UNL     1      -7.621  10.113  69.985  1.00  0.00    -0.164 A  
HETATM   12  C   UNL     1      -6.997  10.577  68.838  1.00  0.00    -0.070 A  
HETATM   13  C   UNL     1      -7.211   9.959  67.587  1.00  0.00    -0.089 A  
HETATM   14  S   UNL     1      -6.323  10.706  66.250  1.00  0.00    -0.129 SA 
HETATM   15  C   UNL     1      -6.837   9.736  64.862  1.00  0.00    -0.117 A  
HETATM   16  C   UNL     1      -6.253  10.134  63.638  1.00  0.00    -0.138 A  
HETATM   17  C   UNL     1      -6.536   9.470  62.455  1.00  0.00    -0.096 A  
HETATM   18  C   UNL     1      -7.419   8.407  62.487  1.00  0.00    -0.101 A  
HETATM   19  C   UNL     1      -8.016   8.018  63.701  1.00  0.00    -0.130 A  
HETATM   20  C   UNL     1      -7.738   8.651  64.936  1.00  0.00    -0.106 A  
ENDBRANCH   6   7
ENDBRANCH   2   6
TORSDOF 3
ENDMDL
MODEL      176
REMARK 921   NORMALIZED FREE ENERGY PREDICTED BY IDOCK:   -1.97 KCAL/MOL
REMARK 922        TOTAL FREE ENERGY PREDICTED BY IDOCK:   -2.68 KCAL/MOL
REMARK 923 INTER-LIGAND FREE ENERGY PREDICTED BY IDOCK:   -2.33 KCAL/MOL
REMARK 924 INTRA-LIGAND FREE ENERGY PREDICTED BY IDOCK:   -0.35 KCAL/MOL
REMARK 927      BINDING AFFINITY PREDICTED BY RF-SCORE:    0.00 PKD
ROOT
HETATM    1  C   UNL     1      -9.197   5.213  65.366  1.00  0.00    -0.122 C  
HETATM    2  C   UNL     1      -8.646   6.109  66.493  1.00  0.00    -0.126 C  
ENDROOT
BRANCH   2   3
HETATM    3  N   UNL     1      -8.952   5.475  67.823  1.00  0.00    -0.109 NA 
HETATM    4  C   UNL     1      -7.790   5.440  68.720  1.00  0.00    -0.087 C  
HETATM    5  C   UNL     1      -9.442   4.092  67.676  1.00  0.00    -0.183 C  
ENDBRANCH   2   3
BRANCH   2   6
HETATM    6  C   UNL     1      -9.224   7.567  66.319  1.00  0.00    -0.146 C  
BRANCH   6   7
HETATM    7  N   UNL     1      -8.167   8.631  66.258  1.00  0.00    -0.112 NA 
HETATM    8  C   UNL     1      -7.546   8.847  64.979  1.00  0.00    -0.100 A  
HETATM    9  C   UNL     1      -7.916   8.133  63.818  1.00  0.00    -0.137 A  
HETATM   10  C   UNL     1      -7.299   8.320  62.572  1.00  0.00    -0.098 A  
HETATM   11  C   UNL     1      -6.280   9.246  62.434  1.00  0.00    -0.093 A  
HETATM   12  C   UNL     1      -5.891   9.978  63.545  1.00  0.00    -0.126 A  
HETATM   13  C   UNL     1      -6.508   9.788  64.801  1.00  0.00    -0.108 A  
HETATM   14  S   UNL     1      -5.864  10.819  66.087  1.00  0.00    -0.145 SA 
HETATM   15  C   UNL     1      -6.808  10.307  67.494  1.00  0.00    -0.072 A  
HETATM   16  C   UNL     1      -6.482  10.998  68.684  1.00  0.00    -0.052 A  
HETATM   17  C   UNL     1      -7.138  10.730  69.875  1.00  0.00    -0.099 A  
HETATM   18  C   UNL     1      -8.118   9.756  69.887  1.00  0.00    -0.192 A  
HETATM   19  C   UNL     1      -8.434   9.054  68.708  1.00  0.00    -0.131 A  
HETATM   20  C   UNL     1      -7.808   9.310  67.465  1.00  0.00    -0.096 A  
ENDBRANCH   6   7
ENDBRANCH   2   6
TORSDOF 3
ENDMDL
MODEL      177
REMARK 921   NORMALIZED FREE ENERGY PREDICTED BY IDOCK:   -1.96 KCAL/MOL
REMARK 922        TOTAL FREE ENERGY PREDICTED BY IDOCK:   -2.67 KCAL/MOL
REMARK 923 INTER-LIGAND FREE ENERGY PREDICTED BY IDOCK:   -2.90 KCAL/MOL
REMARK 924 INTRA-LIGAND FREE ENERGY PREDICTED BY IDOCK:    0.22 KCAL/MOL
REMARK 927      BINDING AFFINITY PREDICTED BY RF-SCORE:    0.00 PKD
ROOT
HETATM    1  C   UNL     1     -10.518  11.086  69.297  1.00  0.00    -0.210 C  
HETATM    2  C   UNL     1     -10.389  10.039  68.172  1.00  0.00    -0.194 C  
ENDROOT
BRANCH   2   3
HETATM    3  N   UNL     1     -10.685   8.674  68.733  1.00  0.00    -0.127 NA 
HETATM    4  C   UNL     1     -10.571   8.620  70.195  1.00  0.00    -0.225 C  
HETATM    5  C   UNL     1      -9.788   7.643  68.179  1.00  0.00    -0.164 C  
ENDBRANCH   2   3
BRANCH   2   6
HETATM    6  C   UNL     1      -8.966  10.174  67.505  1.00  0.00    -0.131 C  
BRANCH   6   7
HETATM    7  N   UNL     1      -8.044  11.107  68.236  1.00  0.00    -0.124 NA 
HETATM    8  C   UNL     1      -8.137  12.501  67.895  1.00  0.00    -0.163 A  
HETATM    9  C   UNL     1      -9.063  12.997  66.949  1.00  0.00    -0.227 A  
HETATM   10  C   UNL     1      -9.144  14.351  66.593  1.00  0.00    -0.265 A  
HETATM   11  C   UNL     1      -8.299  15.276  67.181  1.00  0.00    -0.244 A  
HETATM   12  C   UNL     1      -7.383  14.835  68.123  1.00  0.00    -0.122 A  
HETATM   13  C   UNL     1      -7.297  13.472  68.479  1.00  0.00    -0.114 A  
HETATM   14  S   UNL     1      -6.061  13.120  69.697  1.00  0.00    -0.115 SA 
HETATM   15  C   UNL     1      -6.192  11.364  69.876  1.00  0.00    -0.143 A  
HETATM   16  C   UNL     1      -5.293  10.815  70.818  1.00  0.00    -0.105 A  
HETATM   17  C   UNL     1      -5.275   9.457  71.091  1.00  0.00    -0.043 A  
HETATM   18  C   UNL     1      -6.151   8.632  70.411  1.00  0.00    -0.031 A  
HETATM   19  C   UNL     1      -7.037   9.173  69.459  1.00  0.00    -0.059 A  
HETATM   20  C   UNL     1      -7.107  10.555  69.165  1.00  0.00    -0.089 A  
ENDBRANCH   6   7
ENDBRANCH   2   6
TORSDOF 3
ENDMDL
MODEL      178
REMARK 921   NORMALIZED FREE ENERGY PREDICTED BY IDOCK:   -1.95 KCAL/MOL
REMARK 922        TOTAL FREE ENERGY PREDICTED BY IDOCK:   -2.66 KCAL/MOL
REMARK 923 INTER-LIGAND FREE ENERGY PREDICTED BY IDOCK:   -2.59 KCAL/MOL
REMARK 924 INTRA-LIGAND FREE ENERGY PREDICTED BY IDOCK:   -0.07 KCAL/MOL
REMARK 927      BINDING AFFINITY PREDICTED BY RF-SCORE:    0.00 PKD
ROOT
HETATM    1  C   UNL     1      -6.758   8.221  73.531  1.00  0.00    -0.142 C  
HETATM    2  C   UNL     1      -6.631   7.815  72.050  1.00  0.00    -0.056 C  
ENDROOT
BRANCH   2   3
HETATM    3  N   UNL     1      -5.609   8.695  71.382  1.00  0.00    -0.036 NA 
HETATM    4  C   UNL     1      -5.158   9.798  72.239  1.00  0.00    -0.065 C  
HETATM    5  C   UNL     1      -6.122   9.285  70.131  1.00  0.00    -0.036 C  
ENDBRANCH   2   3
BRANCH   2   6
HETATM    6  C   UNL     1      -8.060   7.854  71.381  1.00  0.00    -0.102 C  
BRANCH   6   7
HETATM    7  N   UNL     1      -8.579   6.501  70.988  1.00  0.00    -0.134 NA 
HETATM    8  C   UNL     1      -9.366   5.805  71.969  1.00  0.00    -0.150 A  
HETATM    9  C   UNL     1      -9.679   6.357  73.231  1.00  0.00    -0.174 A  
HETATM   10  C   UNL     1     -10.427   5.675  74.203  1.00  0.00    -0.281 A  
HETATM   11  C   UNL     1     -10.904   4.402  73.945  1.00  0.00    -0.339 A  
HETATM   12  C   UNL     1     -10.631   3.825  72.715  1.00  0.00    -0.198 A  
HETATM   13  C   UNL     1      -9.875   4.509  71.738  1.00  0.00    -0.186 A  
HETATM   14  S   UNL     1      -9.637   3.597  70.239  1.00  0.00    -0.131 SA 
HETATM   15  C   UNL     1      -8.643   4.699  69.275  1.00  0.00    -0.082 A  
HETATM   16  C   UNL     1      -8.307   4.198  67.997  1.00  0.00    -0.098 A  
HETATM   17  C   UNL     1      -7.547   4.942  67.109  1.00  0.00    -0.087 A  
HETATM   18  C   UNL     1      -7.103   6.191  67.501  1.00  0.00    -0.074 A  
HETATM   19  C   UNL     1      -7.421   6.686  68.780  1.00  0.00    -0.096 A  
HETATM   20  C   UNL     1      -8.214   5.974  69.709  1.00  0.00    -0.118 A  
ENDBRANCH   6   7
ENDBRANCH   2   6
TORSDOF 3
ENDMDL
MODEL      179
REMARK 921   NORMALIZED FREE ENERGY PREDICTED BY IDOCK:   -1.89 KCAL/MOL
REMARK 922        TOTAL FREE ENERGY PREDICTED BY IDOCK:   -2.58 KCAL/MOL
REMARK 923 INTER-LIGAND FREE ENERGY PREDICTED BY IDOCK:   -3.97 KCAL/MOL
REMARK 924 INTRA-LIGAND FREE ENERGY PREDICTED BY IDOCK:    1.39 KCAL/MOL
REMARK 927      BINDING AFFINITY PREDICTED BY RF-SCORE:    0.00 PKD
ROOT
HETATM    1  C   UNL     1     -10.407  10.737  65.602  1.00  0.00    -0.297 C  
HETATM    2  C   UNL     1     -11.152  12.087  65.593  1.00  0.00    -0.313 C  
ENDROOT
BRANCH   2   3
HETATM    3  N   UNL     1     -10.715  12.883  64.393  1.00  0.00    -0.363 NA 
HETATM    4  C   UNL     1     -11.784  13.056  63.402  1.00  0.00    -0.415 C  
HETATM    5  C   UNL     1      -9.568  12.262  63.705  1.00  0.00     0.131 C  
ENDBRANCH   2   3
BRANCH   2   6
HETATM    6  C   UNL     1     -10.918  12.812  66.975  1.00  0.00    -0.263 C  
BRANCH   6   7
HETATM    7  N   UNL     1      -9.485  12.806  67.423  1.00  0.00    -0.185 NA 
HETATM    8  C   UNL     1      -8.746  14.024  67.225  1.00  0.00    -0.218 A  
HETATM    9  C   UNL     1      -9.323  15.189  66.672  1.00  0.00    -0.291 A  
HETATM   10  C   UNL     1      -8.602  16.372  66.454  1.00  0.00    -0.358 A  
HETATM   11  C   UNL     1      -7.262  16.442  66.792  1.00  0.00    -0.245 A  
HETATM   12  C   UNL     1      -6.657  15.326  67.348  1.00  0.00    -0.120 A  
HETATM   13  C   UNL     1      -7.380  14.133  67.564  1.00  0.00    -0.175 A  
HETATM   14  S   UNL     1      -6.422  12.827  68.281  1.00  0.00    -0.096 SA 
HETATM   15  C   UNL     1      -7.593  11.504  68.376  1.00  0.00    -0.125 A  
HETATM   16  C   UNL     1      -7.069  10.314  68.931  1.00  0.00    -0.075 A  
HETATM   17  C   UNL     1      -7.857   9.186  69.091  1.00  0.00    -0.092 A  
HETATM   18  C   UNL     1      -9.177   9.235  68.683  1.00  0.00    -0.135 A  
HETATM   19  C   UNL     1      -9.698  10.413  68.114  1.00  0.00    -0.165 A  
HETATM   20  C   UNL     1      -8.938  11.596  67.953  1.00  0.00    -0.170 A  
ENDBRANCH   6   7
ENDBRANCH   2   6
TORSDOF 3
ENDMDL
MODEL      180
REMARK 921   NORMALIZED FREE ENERGY PREDICTED BY IDOCK:   -1.89 KCAL/MOL
REMARK 922        TOTAL FREE ENERGY PREDICTED BY IDOCK:   -2.58 KCAL/MOL
REMARK 923 INTER-LIGAND FREE ENERGY PREDICTED BY IDOCK:   -2.63 KCAL/MOL
REMARK 924 INTRA-LIGAND FREE ENERGY PREDICTED BY IDOCK:    0.05 KCAL/MOL
REMARK 927      BINDING AFFINITY PREDICTED BY RF-SCORE:    0.00 PKD
ROOT
HETATM    1  C   UNL     1      -7.539  13.916  67.554  1.00  0.00    -0.190 C  
HETATM    2  C   UNL     1      -7.687  12.655  68.428  1.00  0.00    -0.133 C  
ENDROOT
BRANCH   2   3
HETATM    3  N   UNL     1      -6.455  11.803  68.279  1.00  0.00    -0.050 NA 
HETATM    4  C   UNL     1      -5.856  11.894  66.942  1.00  0.00    -0.118 C  
HETATM    5  C   UNL     1      -6.732  10.379  68.545  1.00  0.00    -0.056 C  
ENDBRANCH   2   3
BRANCH   2   6
HETATM    6  C   UNL     1      -9.033  11.923  68.050  1.00  0.00    -0.185 C  
BRANCH   6   7
HETATM    7  N   UNL     1     -10.010  12.798  67.319  1.00  0.00    -0.217 NA 
HETATM    8  C   UNL     1     -10.760  13.730  68.117  1.00  0.00    -0.248 A  
HETATM    9  C   UNL     1     -10.582  13.859  69.513  1.00  0.00     0.111 A  
HETATM   10  C   UNL     1     -11.327  14.748  70.302  1.00  0.00    -0.277 A  
HETATM   11  C   UNL     1     -12.283  15.560  69.719  1.00  0.00    -0.328 A  
HETATM   12  C   UNL     1     -12.484  15.475  68.350  1.00  0.00     0.622 A  
HETATM   13  C   UNL     1     -11.739  14.577  67.555  1.00  0.00    -0.386 A  
HETATM   14  S   UNL     1     -12.149  14.624  65.834  1.00  0.00    -0.130 SA 
HETATM   15  C   UNL     1     -11.087  13.382  65.155  1.00  0.00    -0.301 A  
HETATM   16  C   UNL     1     -11.218  13.218  63.757  1.00  0.00    -0.230 A  
HETATM   17  C   UNL     1     -10.448  12.297  63.065  1.00  0.00     0.141 A  
HETATM   18  C   UNL     1      -9.547  11.522  63.770  1.00  0.00    -0.232 A  
HETATM   19  C   UNL     1      -9.426  11.671  65.165  1.00  0.00    -0.152 A  
HETATM   20  C   UNL     1     -10.173  12.613  65.910  1.00  0.00    -0.274 A  
ENDBRANCH   6   7
ENDBRANCH   2   6
TORSDOF 3
ENDMDL
MODEL      181
REMARK 921   NORMALIZED FREE ENERGY PREDICTED BY IDOCK:   -1.60 KCAL/MOL
REMARK 922        TOTAL FREE ENERGY PREDICTED BY IDOCK:   -2.24 KCAL/MOL
REMARK 923 INTER-LIGAND FREE ENERGY PREDICTED BY IDOCK:   -2.16 KCAL/MOL
REMARK 924 INTRA-LIGAND FREE ENERGY PREDICTED BY IDOCK:   -0.08 KCAL/MOL
REMARK 927      BINDING AFFINITY PREDICTED BY RF-SCORE:    0.00 PKD
ROOT
HETATM    1  C   UNL     1      -7.187   5.427  70.317  1.00  0.00    -0.066 C  
HETATM    2  C   UNL     1      -7.973   6.753  70.330  1.00  0.00    -0.115 C  
ENDROOT
BRANCH   2   3
HETATM    3  N   UNL     1      -8.717   6.872  71.633  1.00  0.00    -0.125 NA 
HETATM    4  C   UNL     1      -8.380   8.094  72.373  1.00  0.00    -0.170 C  
HETATM    5  C   UNL     1      -8.459   5.726  72.524  1.00  0.00    -0.117 C  
ENDBRANCH   2   3
BRANCH   2   6
HETATM    6  C   UNL     1      -8.891   6.819  69.048  1.00  0.00    -0.129 C  
BRANCH   6   7
HETATM    7  N   UNL     1      -8.269   7.561  67.900  1.00  0.00    -0.122 NA 
HETATM    8  C   UNL     1      -8.588   8.959  67.791  1.00  0.00    -0.125 A  
HETATM    9  C   UNL     1      -9.413   9.631  68.720  1.00  0.00    -0.148 A  
HETATM   10  C   UNL     1      -9.748  10.989  68.607  1.00  0.00    -0.198 A  
HETATM   11  C   UNL     1      -9.259  11.739  67.553  1.00  0.00    -0.175 A  
HETATM   12  C   UNL     1      -8.436  11.124  66.623  1.00  0.00    -0.164 A  
HETATM   13  C   UNL     1      -8.102   9.757  66.732  1.00  0.00    -0.120 A  
HETATM   14  S   UNL     1      -7.043   9.166  65.442  1.00  0.00    -0.082 SA 
HETATM   15  C   UNL     1      -6.861   7.454  65.853  1.00  0.00    -0.057 A  
HETATM   16  C   UNL     1      -6.036   6.735  64.958  1.00  0.00    -0.035 A  
HETATM   17  C   UNL     1      -5.776   5.387  65.143  1.00  0.00    -0.017 A  
HETATM   18  C   UNL     1      -6.352   4.742  66.222  1.00  0.00    -0.036 A  
HETATM   19  C   UNL     1      -7.188   5.451  67.107  1.00  0.00    -0.075 A  
HETATM   20  C   UNL     1      -7.462   6.832  66.971  1.00  0.00    -0.087 A  
ENDBRANCH   6   7
ENDBRANCH   2   6
TORSDOF 3
ENDMDL
MODEL      182
REMARK 921   NORMALIZED FREE ENERGY PREDICTED BY IDOCK:   -1.40 KCAL/MOL
REMARK 922        TOTAL FREE ENERGY PREDICTED BY IDOCK:   -2.01 KCAL/MOL
REMARK 923 INTER-LIGAND FREE ENERGY PREDICTED BY IDOCK:   -2.37 KCAL/MOL
REMARK 924 INTRA-LIGAND FREE ENERGY PREDICTED BY IDOCK:    0.36 KCAL/MOL
REMARK 927      BINDING AFFINITY PREDICTED BY RF-SCORE:    0.00 PKD
ROOT
HETATM    1  C   UNL     1      -5.977  10.183  67.244  1.00  0.00    -0.054 C  
HETATM    2  C   UNL     1      -6.438  11.384  68.094  1.00  0.00    -0.056 C  
ENDROOT
BRANCH   2   3
HETATM    3  N   UNL     1      -5.287  12.340  68.264  1.00  0.00    -0.053 NA 
HETATM    4  C   UNL     1      -5.169  12.854  69.633  1.00  0.00    -0.076 C  
HETATM    5  C   UNL     1      -5.395  13.500  67.360  1.00  0.00     0.234 C  
ENDBRANCH   2   3
BRANCH   2   6
HETATM    6  C   UNL     1      -7.045  10.851  69.450  1.00  0.00    -0.131 C  
BRANCH   6   7
HETATM    7  N   UNL     1      -8.488  10.448  69.345  1.00  0.00    -0.157 NA 
HETATM    8  C   UNL     1      -9.365  11.368  68.673  1.00  0.00    -0.150 A  
HETATM    9  C   UNL     1      -8.911  12.578  68.101  1.00  0.00    -0.199 A  
HETATM   10  C   UNL     1      -9.764  13.493  67.465  1.00  0.00    -0.228 A  
HETATM   11  C   UNL     1     -11.118  13.226  67.365  1.00  0.00    -0.300 A  
HETATM   12  C   UNL     1     -11.605  12.045  67.902  1.00  0.00    -0.405 A  
HETATM   13  C   UNL     1     -10.750  11.126  68.547  1.00  0.00    -0.201 A  
HETATM   14  S   UNL     1     -11.570   9.684  69.164  1.00  0.00     0.428 SA 
HETATM   15  C   UNL     1     -10.247   8.789  69.927  1.00  0.00    -0.200 A  
HETATM   16  C   UNL     1     -10.645   7.564  70.508  1.00  0.00    -0.232 A  
HETATM   17  C   UNL     1      -9.730   6.733  71.133  1.00  0.00    -0.181 A  
HETATM   18  C   UNL     1      -8.407   7.129  71.193  1.00  0.00    -0.113 A  
HETATM   19  C   UNL     1      -8.010   8.358  70.630  1.00  0.00    -0.101 A  
HETATM   20  C   UNL     1      -8.904   9.226  69.962  1.00  0.00    -0.197 A  
ENDBRANCH   6   7
ENDBRANCH   2   6
TORSDOF 3
ENDMDL
MODEL      183
REMARK 921   NORMALIZED FREE ENERGY PREDICTED BY IDOCK:   -1.30 KCAL/MOL
REMARK 922        TOTAL FREE ENERGY PREDICTED BY IDOCK:   -1.90 KCAL/MOL
REMARK 923 INTER-LIGAND FREE ENERGY PREDICTED BY IDOCK:   -1.85 KCAL/MOL
REMARK 924 INTRA-LIGAND FREE ENERGY PREDICTED BY IDOCK:   -0.05 KCAL/MOL
REMARK 927      BINDING AFFINITY PREDICTED BY RF-SCORE:    0.00 PKD
ROOT
HETATM    1  C   UNL     1      -8.232  10.334  67.962  1.00  0.00    -0.113 C  
HETATM    2  C   UNL     1      -8.984   9.280  68.799  1.00  0.00    -0.132 C  
ENDROOT
BRANCH   2   3
HETATM    3  N   UNL     1     -10.364   9.793  69.115  1.00  0.00    -0.200 NA 
HETATM    4  C   UNL     1     -11.337   8.717  69.335  1.00  0.00     0.346 C  
HETATM    5  C   UNL     1     -10.891  10.656  68.042  1.00  0.00    -0.261 C  
ENDBRANCH   2   3
BRANCH   2   6
HETATM    6  C   UNL     1      -8.119   8.917  70.068  1.00  0.00    -0.116 C  
BRANCH   6   7
HETATM    7  N   UNL     1      -8.192   7.467  70.452  1.00  0.00    -0.121 NA 
HETATM    8  C   UNL     1      -8.673   7.176  71.775  1.00  0.00    -0.117 A  
HETATM    9  C   UNL     1      -9.094   8.181  72.674  1.00  0.00    -0.317 A  
HETATM   10  C   UNL     1      -9.542   7.907  73.976  1.00  0.00     0.274 A  
HETATM   11  C   UNL     1      -9.596   6.602  74.431  1.00  0.00    -0.304 A  
HETATM   12  C   UNL     1      -9.203   5.583  73.578  1.00  0.00    -0.130 A  
HETATM   13  C   UNL     1      -8.747   5.857  72.271  1.00  0.00    -0.128 A  
HETATM   14  S   UNL     1      -8.292   4.417  71.347  1.00  0.00    -0.093 SA 
HETATM   15  C   UNL     1      -7.745   5.106  69.812  1.00  0.00    -0.071 A  
HETATM   16  C   UNL     1      -7.319   4.141  68.870  1.00  0.00    -0.055 A  
HETATM   17  C   UNL     1      -6.875   4.511  67.611  1.00  0.00    -0.055 A  
HETATM   18  C   UNL     1      -6.840   5.855  67.288  1.00  0.00    -0.063 A  
HETATM   19  C   UNL     1      -7.246   6.820  68.230  1.00  0.00    -0.088 A  
HETATM   20  C   UNL     1      -7.730   6.488  69.517  1.00  0.00    -0.100 A  
ENDBRANCH   6   7
ENDBRANCH   2   6
TORSDOF 3
ENDMDL
MODEL      184
REMARK 921   NORMALIZED FREE ENERGY PREDICTED BY IDOCK:   -1.08 KCAL/MOL
REMARK 922        TOTAL FREE ENERGY PREDICTED BY IDOCK:   -1.63 KCAL/MOL
REMARK 923 INTER-LIGAND FREE ENERGY PREDICTED BY IDOCK:   -1.45 KCAL/MOL
REMARK 924 INTRA-LIGAND FREE ENERGY PREDICTED BY IDOCK:   -0.18 KCAL/MOL
REMARK 927      BINDING AFFINITY PREDICTED BY RF-SCORE:    0.00 PKD
ROOT
HETATM    1  C   UNL     1     -10.945   6.084  66.430  1.00  0.00     0.027 C  
HETATM    2  C   UNL     1      -9.515   6.657  66.481  1.00  0.00    -0.152 C  
ENDROOT
BRANCH   2   3
HETATM    3  N   UNL     1      -9.099   6.821  67.918  1.00  0.00    -0.116 NA 
HETATM    4  C   UNL     1      -8.265   5.714  68.401  1.00  0.00    -0.103 C  
HETATM    5  C   UNL     1     -10.261   6.928  68.820  1.00  0.00    -0.174 C  
ENDBRANCH   2   3
BRANCH   2   6
HETATM    6  C   UNL     1      -9.464   7.988  65.633  1.00  0.00     0.261 C  
BRANCH   6   7
HETATM    7  N   UNL     1      -8.070   8.440  65.306  1.00  0.00    -0.131 NA 
HETATM    8  C   UNL     1      -7.633   9.667  65.914  1.00  0.00    -0.103 A  
HETATM    9  C   UNL     1      -8.441  10.410  66.804  1.00  0.00    -0.125 A  
HETATM   10  C   UNL     1      -8.031  11.621  67.383  1.00  0.00    -0.147 A  
HETATM   11  C   UNL     1      -6.780  12.138  67.099  1.00  0.00    -0.123 A  
HETATM   12  C   UNL     1      -5.949  11.436  66.239  1.00  0.00    -0.044 A  
HETATM   13  C   UNL     1      -6.361  10.221  65.653  1.00  0.00    -0.118 A  
HETATM   14  S   UNL     1      -5.154   9.487  64.586  1.00  0.00    -0.051 SA 
HETATM   15  C   UNL     1      -5.989   8.039  64.004  1.00  0.00    -0.058 A  
HETATM   16  C   UNL     1      -5.221   7.253  63.116  1.00  0.00    -0.034 A  
HETATM   17  C   UNL     1      -5.720   6.077  62.579  1.00  0.00    -0.022 A  
HETATM   18  C   UNL     1      -7.001   5.684  62.919  1.00  0.00    -0.043 A  
HETATM   19  C   UNL     1      -7.776   6.473  63.790  1.00  0.00    -0.108 A  
HETATM   20  C   UNL     1      -7.300   7.668  64.380  1.00  0.00    -0.088 A  
ENDBRANCH   6   7
ENDBRANCH   2   6
TORSDOF 3
ENDMDL
MODEL      185
REMARK 921   NORMALIZED FREE ENERGY PREDICTED BY IDOCK:   -0.01 KCAL/MOL
REMARK 922        TOTAL FREE ENERGY PREDICTED BY IDOCK:   -0.38 KCAL/MOL
REMARK 923 INTER-LIGAND FREE ENERGY PREDICTED BY IDOCK:   -1.57 KCAL/MOL
REMARK 924 INTRA-LIGAND FREE ENERGY PREDICTED BY IDOCK:    1.20 KCAL/MOL
REMARK 927      BINDING AFFINITY PREDICTED BY RF-SCORE:    0.00 PKD
ROOT
HETATM    1  C   UNL     1     -11.088  14.565  70.472  1.00  0.00     0.006 C  
HETATM    2  C   UNL     1     -10.425  14.667  69.084  1.00  0.00    -0.233 C  
ENDROOT
BRANCH   2   3
HETATM    3  N   UNL     1     -10.617  13.367  68.349  1.00  0.00    -0.243 NA 
HETATM    4  C   UNL     1     -11.727  12.569  68.882  1.00  0.00    -0.322 C  
HETATM    5  C   UNL     1      -9.407  12.526  68.387  1.00  0.00    -0.149 C  
ENDBRANCH   2   3
BRANCH   2   6
HETATM    6  C   UNL     1      -8.916  15.094  69.264  1.00  0.00    -0.202 C  
BRANCH   6   7
HETATM    7  N   UNL     1      -8.603  16.450  68.699  1.00  0.00    -0.225 NA 
HETATM    8  C   UNL     1      -7.440  17.112  69.224  1.00  0.00    -0.061 A  
HETATM    9  C   UNL     1      -6.599  16.525  70.197  1.00  0.00     0.342 A  
HETATM   10  C   UNL     1      -5.477  17.174  70.733  1.00  0.00    -0.108 A  
HETATM   11  C   UNL     1      -5.140  18.446  70.305  1.00  0.00    -0.227 A  
HETATM   12  C   UNL     1      -5.931  19.056  69.343  1.00  0.00    -0.275 A  
HETATM   13  C   UNL     1      -7.064  18.406  68.807  1.00  0.00    -0.283 A  
HETATM   14  S   UNL     1      -7.936  19.357  67.595  1.00  0.00    -0.290 SA 
HETATM   15  C   UNL     1      -9.285  18.291  67.173  1.00  0.00    -0.264 A  
HETATM   16  C   UNL     1     -10.154  18.827  66.196  1.00  0.00    -0.421 A  
HETATM   17  C   UNL     1     -11.252  18.115  65.740  1.00  0.00     0.834 A  
HETATM   18  C   UNL     1     -11.497  16.863  66.272  1.00  0.00     1.092 A  
HETATM   19  C   UNL     1     -10.643  16.333  67.258  1.00  0.00    -0.298 A  
HETATM   20  C   UNL     1      -9.498  17.013  67.735  1.00  0.00    -0.245 A  
ENDBRANCH   6   7
ENDBRANCH   2   6
TORSDOF 3
ENDMDL
MODEL      186
REMARK 921   NORMALIZED FREE ENERGY PREDICTED BY IDOCK:    2.44 KCAL/MOL
REMARK 922        TOTAL FREE ENERGY PREDICTED BY IDOCK:    2.51 KCAL/MOL
REMARK 923 INTER-LIGAND FREE ENERGY PREDICTED BY IDOCK:    2.70 KCAL/MOL
REMARK 924 INTRA-LIGAND FREE ENERGY PREDICTED BY IDOCK:   -0.19 KCAL/MOL
REMARK 927      BINDING AFFINITY PREDICTED BY RF-SCORE:    0.00 PKD
ROOT
HETATM    1  C   UNL     1      -8.043  10.881  66.401  1.00  0.00    -0.164 C  
HETATM    2  C   UNL     1      -9.172  10.007  66.984  1.00  0.00    -0.146 C  
ENDROOT
BRANCH   2   3
HETATM    3  N   UNL     1     -10.435  10.246  66.201  1.00  0.00    -0.176 NA 
HETATM    4  C   UNL     1     -10.187  10.851  64.888  1.00  0.00    -0.316 C  
HETATM    5  C   UNL     1     -11.376  11.122  66.924  1.00  0.00    -0.090 C  
ENDBRANCH   2   3
BRANCH   2   6
HETATM    6  C   UNL     1      -9.300  10.296  68.530  1.00  0.00    -0.155 C  
BRANCH   6   7
HETATM    7  N   UNL     1      -9.073   9.086  69.390  1.00  0.00    -0.143 NA 
HETATM    8  C   UNL     1     -10.195   8.206  69.569  1.00  0.00    -0.213 A  
HETATM    9  C   UNL     1     -11.447   8.426  68.952  1.00  0.00     0.854 A  
HETATM   10  C   UNL     1     -12.554   7.585  69.142  1.00  0.00     3.470 A  
HETATM   11  C   UNL     1     -12.449   6.472  69.957  1.00  0.00     0.835 A  
HETATM   12  C   UNL     1     -11.235   6.211  70.574  1.00  0.00    -0.403 A  
HETATM   13  C   UNL     1     -10.122   7.059  70.388  1.00  0.00    -0.187 A  
HETATM   14  S   UNL     1      -8.671   6.549  71.265  1.00  0.00    -0.130 SA 
HETATM   15  C   UNL     1      -7.511   7.820  70.853  1.00  0.00    -0.073 A  
HETATM   16  C   UNL     1      -6.236   7.644  71.439  1.00  0.00    -0.035 A  
HETATM   17  C   UNL     1      -5.207   8.541  71.206  1.00  0.00    -0.029 A  
HETATM   18  C   UNL     1      -5.449   9.633  70.394  1.00  0.00    -0.039 A  
HETATM   19  C   UNL     1      -6.723   9.822  69.823  1.00  0.00    -0.069 A  
HETATM   20  C   UNL     1      -7.796   8.920  70.013  1.00  0.00    -0.095 A  
ENDBRANCH   6   7
ENDBRANCH   2   6
TORSDOF 3
ENDMDL
MODEL      187
REMARK 921   NORMALIZED FREE ENERGY PREDICTED BY IDOCK:    3.04 KCAL/MOL
REMARK 922        TOTAL FREE ENERGY PREDICTED BY IDOCK:    3.21 KCAL/MOL
REMARK 923 INTER-LIGAND FREE ENERGY PREDICTED BY IDOCK:    2.06 KCAL/MOL
REMARK 924 INTRA-LIGAND FREE ENERGY PREDICTED BY IDOCK:    1.14 KCAL/MOL
REMARK 927      BINDING AFFINITY PREDICTED BY RF-SCORE:    0.00 PKD
ROOT
HETATM    1  C   UNL     1      -8.550   9.708  67.626  1.00  0.00    -0.126 C  
HETATM    2  C   UNL     1      -8.914   8.360  66.971  1.00  0.00    -0.142 C  
ENDROOT
BRANCH   2   3
HETATM    3  N   UNL     1     -10.070   8.565  66.029  1.00  0.00    -0.022 NA 
HETATM    4  C   UNL     1     -10.478   9.971  65.923  1.00  0.00    -0.045 C  
HETATM    5  C   UNL     1     -11.257   7.788  66.434  1.00  0.00     2.106 C  
ENDBRANCH   2   3
BRANCH   2   6
HETATM    6  C   UNL     1      -9.179   7.293  68.103  1.00  0.00    -0.132 C  
BRANCH   6   7
HETATM    7  N   UNL     1      -9.021   7.839  69.493  1.00  0.00    -0.143 NA 
HETATM    8  C   UNL     1     -10.074   8.693  69.971  1.00  0.00    -0.189 A  
HETATM    9  C   UNL     1     -11.224   8.991  69.206  1.00  0.00     0.151 A  
HETATM   10  C   UNL     1     -12.245   9.843  69.656  1.00  0.00     0.318 A  
HETATM   11  C   UNL     1     -12.160  10.429  70.906  1.00  0.00    -0.477 A  
HETATM   12  C   UNL     1     -11.054  10.155  71.696  1.00  0.00     0.583 A  
HETATM   13  C   UNL     1     -10.024   9.303  71.243  1.00  0.00    -0.271 A  
HETATM   14  S   UNL     1      -8.702   9.087  72.401  1.00  0.00     0.794 SA 
HETATM   15  C   UNL     1      -7.595   8.023  71.522  1.00  0.00    -0.083 A  
HETATM   16  C   UNL     1      -6.429   7.685  72.247  1.00  0.00    -0.055 A  
HETATM   17  C   UNL     1      -5.465   6.847  71.710  1.00  0.00    -0.036 A  
HETATM   18  C   UNL     1      -5.654   6.350  70.434  1.00  0.00    -0.018 A  
HETATM   19  C   UNL     1      -6.806   6.698  69.702  1.00  0.00    -0.058 A  
HETATM   20  C   UNL     1      -7.827   7.530  70.219  1.00  0.00    -0.094 A  
ENDBRANCH   6   7
ENDBRANCH   2   6
TORSDOF 3
ENDMDL
MODEL      188
REMARK 921   NORMALIZED FREE ENERGY PREDICTED BY IDOCK:    5.45 KCAL/MOL
REMARK 922        TOTAL FREE ENERGY PREDICTED BY IDOCK:    6.04 KCAL/MOL
REMARK 923 INTER-LIGAND FREE ENERGY PREDICTED BY IDOCK:    3.88 KCAL/MOL
REMARK 924 INTRA-LIGAND FREE ENERGY PREDICTED BY IDOCK:    2.16 KCAL/MOL
REMARK 927      BINDING AFFINITY PREDICTED BY RF-SCORE:    0.00 PKD
ROOT
HETATM    1  C   UNL     1      -8.628   9.710  67.565  1.00  0.00    -0.126 C  
HETATM    2  C   UNL     1      -9.042   8.351  66.966  1.00  0.00    -0.144 C  
ENDROOT
BRANCH   2   3
HETATM    3  N   UNL     1     -10.162   8.566  65.982  1.00  0.00     0.115 NA 
HETATM    4  C   UNL     1     -10.519   9.980  65.824  1.00  0.00    -0.014 C  
HETATM    5  C   UNL     1     -11.385   7.839  66.370  1.00  0.00     2.614 C  
ENDBRANCH   2   3
BRANCH   2   6
HETATM    6  C   UNL     1      -9.391   7.357  68.141  1.00  0.00    -0.135 C  
BRANCH   6   7
HETATM    7  N   UNL     1      -8.219   7.029  69.020  1.00  0.00    -0.124 NA 
HETATM    8  C   UNL     1      -7.749   8.079  69.882  1.00  0.00    -0.099 A  
HETATM    9  C   UNL     1      -8.362   9.350  69.944  1.00  0.00    -0.174 A  
HETATM   10  C   UNL     1      -7.894  10.388  70.765  1.00  0.00     1.392 A  
HETATM   11  C   UNL     1      -6.789  10.190  71.573  1.00  0.00     1.038 A  
HETATM   12  C   UNL     1      -6.163   8.954  71.553  1.00  0.00    -0.069 A  
HETATM   13  C   UNL     1      -6.628   7.910  70.724  1.00  0.00    -0.037 A  
HETATM   14  S   UNL     1      -5.688   6.415  70.846  1.00  0.00    -0.027 SA 
HETATM   15  C   UNL     1      -6.497   5.360  69.678  1.00  0.00    -0.038 A  
HETATM   16  C   UNL     1      -5.928   4.070  69.583  1.00  0.00    -0.022 A  
HETATM   17  C   UNL     1      -6.450   3.114  68.727  1.00  0.00    -0.030 A  
HETATM   18  C   UNL     1      -7.542   3.447  67.947  1.00  0.00    -0.064 A  
HETATM   19  C   UNL     1      -8.101   4.737  68.027  1.00  0.00    -0.089 A  
HETATM   20  C   UNL     1      -7.616   5.737  68.903  1.00  0.00    -0.089 A  
ENDBRANCH   6   7
ENDBRANCH   2   6
TORSDOF 3
ENDMDL
MODEL      189
REMARK 921   NORMALIZED FREE ENERGY PREDICTED BY IDOCK:    6.79 KCAL/MOL
REMARK 922        TOTAL FREE ENERGY PREDICTED BY IDOCK:    7.62 KCAL/MOL
REMARK 923 INTER-LIGAND FREE ENERGY PREDICTED BY IDOCK:    7.28 KCAL/MOL
REMARK 924 INTRA-LIGAND FREE ENERGY PREDICTED BY IDOCK:    0.34 KCAL/MOL
REMARK 927      BINDING AFFINITY PREDICTED BY RF-SCORE:    0.00 PKD
ROOT
HETATM    1  C   UNL     1      -6.898  14.172  66.852  1.00  0.00     1.130 C  
HETATM    2  C   UNL     1      -7.370  12.859  67.508  1.00  0.00    -0.154 C  
ENDROOT
BRANCH   2   3
HETATM    3  N   UNL     1      -6.481  11.733  67.053  1.00  0.00    -0.148 NA 
HETATM    4  C   UNL     1      -5.164  11.748  67.701  1.00  0.00    -0.065 C  
HETATM    5  C   UNL     1      -6.259  11.757  65.595  1.00  0.00     1.550 C  
ENDBRANCH   2   3
BRANCH   2   6
HETATM    6  C   UNL     1      -8.902  12.647  67.190  1.00  0.00    -0.204 C  
BRANCH   6   7
HETATM    7  N   UNL     1      -9.683  13.927  67.116  1.00  0.00    -0.237 NA 
HETATM    8  C   UNL     1      -9.771  14.698  68.326  1.00  0.00    -0.215 A  
HETATM    9  C   UNL     1      -9.135  14.311  69.527  1.00  0.00     0.551 A  
HETATM   10  C   UNL     1      -9.235  15.045  70.719  1.00  0.00     1.812 A  
HETATM   11  C   UNL     1      -9.976  16.213  70.755  1.00  0.00     1.373 A  
HETATM   12  C   UNL     1     -10.608  16.636  69.596  1.00  0.00    -0.274 A  
HETATM   13  C   UNL     1     -10.512  15.896  68.398  1.00  0.00    -0.254 A  
HETATM   14  S   UNL     1     -11.393  16.608  67.037  1.00  0.00     0.628 SA 
HETATM   15  C   UNL     1     -11.102  15.438  65.741  1.00  0.00    -0.260 A  
HETATM   16  C   UNL     1     -11.710  15.781  64.512  1.00  0.00    -0.191 A  
HETATM   17  C   UNL     1     -11.568  14.981  63.390  1.00  0.00     1.712 A  
HETATM   18  C   UNL     1     -10.826  13.819  63.493  1.00  0.00     1.177 A  
HETATM   19  C   UNL     1     -10.233  13.465  64.721  1.00  0.00    -0.339 A  
HETATM   20  C   UNL     1     -10.330  14.263  65.885  1.00  0.00    -0.314 A  
ENDBRANCH   6   7
ENDBRANCH   2   6
TORSDOF 3
ENDMDL
MODEL      190
REMARK 921   NORMALIZED FREE ENERGY PREDICTED BY IDOCK:    7.58 KCAL/MOL
REMARK 922        TOTAL FREE ENERGY PREDICTED BY IDOCK:    8.54 KCAL/MOL
REMARK 923 INTER-LIGAND FREE ENERGY PREDICTED BY IDOCK:    4.96 KCAL/MOL
REMARK 924 INTRA-LIGAND FREE ENERGY PREDICTED BY IDOCK:    3.58 KCAL/MOL
REMARK 927      BINDING AFFINITY PREDICTED BY RF-SCORE:    0.00 PKD
ROOT
HETATM    1  C   UNL     1     -12.637  14.273  67.622  1.00  0.00     0.443 C  
HETATM    2  C   UNL     1     -11.571  13.481  66.839  1.00  0.00    -0.363 C  
ENDROOT
BRANCH   2   3
HETATM    3  N   UNL     1     -11.294  12.186  67.555  1.00  0.00    -0.303 NA 
HETATM    4  C   UNL     1     -10.808  11.131  66.658  1.00  0.00    -0.253 C  
HETATM    5  C   UNL     1     -12.490  11.668  68.244  1.00  0.00     0.963 C  
ENDBRANCH   2   3
BRANCH   2   6
HETATM    6  C   UNL     1     -10.301  14.395  66.631  1.00  0.00    -0.275 C  
BRANCH   6   7
HETATM    7  N   UNL     1      -9.511  14.622  67.888  1.00  0.00    -0.207 NA 
HETATM    8  C   UNL     1     -10.219  15.208  68.994  1.00  0.00    -0.241 A  
HETATM    9  C   UNL     1     -11.593  15.531  68.939  1.00  0.00    -0.384 A  
HETATM   10  C   UNL     1     -12.285  16.126  70.005  1.00  0.00     0.110 A  
HETATM   11  C   UNL     1     -11.624  16.416  71.185  1.00  0.00    -0.250 A  
HETATM   12  C   UNL     1     -10.277  16.105  71.288  1.00  0.00     1.777 A  
HETATM   13  C   UNL     1      -9.579  15.511  70.215  1.00  0.00     0.396 A  
HETATM   14  S   UNL     1      -7.869  15.199  70.550  1.00  0.00     1.482 SA 
HETATM   15  C   UNL     1      -7.301  14.508  69.022  1.00  0.00    -0.132 A  
HETATM   16  C   UNL     1      -5.932  14.158  69.026  1.00  0.00    -0.091 A  
HETATM   17  C   UNL     1      -5.331  13.590  67.915  1.00  0.00    -0.095 A  
HETATM   18  C   UNL     1      -6.095  13.379  66.782  1.00  0.00     1.681 A  
HETATM   19  C   UNL     1      -7.456  13.742  66.769  1.00  0.00     0.854 A  
HETATM   20  C   UNL     1      -8.117  14.302  67.887  1.00  0.00    -0.151 A  
ENDBRANCH   6   7
ENDBRANCH   2   6
TORSDOF 3
ENDMDL
MODEL      191
REMARK 921   NORMALIZED FREE ENERGY PREDICTED BY IDOCK:    8.99 KCAL/MOL
REMARK 922        TOTAL FREE ENERGY PREDICTED BY IDOCK:   10.20 KCAL/MOL
REMARK 923 INTER-LIGAND FREE ENERGY PREDICTED BY IDOCK:    6.66 KCAL/MOL
REMARK 924 INTRA-LIGAND FREE ENERGY PREDICTED BY IDOCK:    3.54 KCAL/MOL
REMARK 927      BINDING AFFINITY PREDICTED BY RF-SCORE:    0.00 PKD
ROOT
HETATM    1  C   UNL     1     -12.643  14.296  67.619  1.00  0.00     0.443 C  
HETATM    2  C   UNL     1     -11.595  13.517  66.799  1.00  0.00    -0.363 C  
ENDROOT
BRANCH   2   3
HETATM    3  N   UNL     1     -11.251  12.242  67.521  1.00  0.00    -0.278 NA 
HETATM    4  C   UNL     1     -10.774  11.186  66.619  1.00  0.00    -0.269 C  
HETATM    5  C   UNL     1     -12.402  11.702  68.267  1.00  0.00     0.565 C  
ENDBRANCH   2   3
BRANCH   2   6
HETATM    6  C   UNL     1     -10.360  14.459  66.518  1.00  0.00    -0.281 C  
BRANCH   6   7
HETATM    7  N   UNL     1      -9.527  14.738  67.735  1.00  0.00    -0.202 NA 
HETATM    8  C   UNL     1      -8.125  14.432  67.639  1.00  0.00    -0.177 A  
HETATM    9  C   UNL     1      -7.532  13.925  66.461  1.00  0.00     1.640 A  
HETATM   10  C   UNL     1      -6.170  13.601  66.367  1.00  0.00     3.674 A  
HETATM   11  C   UNL     1      -5.336  13.780  67.456  1.00  0.00     0.151 A  
HETATM   12  C   UNL     1      -5.874  14.286  68.629  1.00  0.00    -0.086 A  
HETATM   13  C   UNL     1      -7.244  14.608  68.728  1.00  0.00    -0.124 A  
HETATM   14  S   UNL     1      -7.728  15.236  70.311  1.00  0.00     0.850 SA 
HETATM   15  C   UNL     1      -9.467  15.493  70.104  1.00  0.00     0.290 A  
HETATM   16  C   UNL     1     -10.110  16.008  71.253  1.00  0.00     1.905 A  
HETATM   17  C   UNL     1     -11.468  16.281  71.256  1.00  0.00    -0.369 A  
HETATM   18  C   UNL     1     -12.198  16.028  70.110  1.00  0.00    -0.102 A  
HETATM   19  C   UNL     1     -11.564  15.499  68.969  1.00  0.00    -0.377 A  
HETATM   20  C   UNL     1     -10.177  15.227  68.912  1.00  0.00    -0.232 A  
ENDBRANCH   6   7
ENDBRANCH   2   6
TORSDOF 3
ENDMDL
MODEL      192
REMARK 921   NORMALIZED FREE ENERGY PREDICTED BY IDOCK:   21.25 KCAL/MOL
REMARK 922        TOTAL FREE ENERGY PREDICTED BY IDOCK:   24.62 KCAL/MOL
REMARK 923 INTER-LIGAND FREE ENERGY PREDICTED BY IDOCK:   21.87 KCAL/MOL
REMARK 924 INTRA-LIGAND FREE ENERGY PREDICTED BY IDOCK:    2.74 KCAL/MOL
REMARK 927      BINDING AFFINITY PREDICTED BY RF-SCORE:    0.00 PKD
ROOT
HETATM    1  C   UNL     1     -11.227  20.212  69.326  1.00  0.00     1.989 C  
HETATM    2  C   UNL     1     -10.473  19.996  67.999  1.00  0.00    -0.308 C  
ENDROOT
BRANCH   2   3
HETATM    3  N   UNL     1     -11.383  20.346  66.851  1.00  0.00     1.146 NA 
HETATM    4  C   UNL     1     -12.714  19.740  66.973  1.00  0.00     4.893 C  
HETATM    5  C   UNL     1     -10.821  19.927  65.554  1.00  0.00    -0.127 C  
ENDBRANCH   2   3
BRANCH   2   6
HETATM    6  C   UNL     1      -9.915  18.520  67.959  1.00  0.00    -0.355 C  
BRANCH   6   7
HETATM    7  N   UNL     1      -8.568  18.369  68.607  1.00  0.00    -0.318 NA 
HETATM    8  C   UNL     1      -8.445  18.855  69.954  1.00  0.00     1.131 A  
HETATM    9  C   UNL     1      -9.528  19.419  70.666  1.00  0.00     1.766 A  
HETATM   10  C   UNL     1      -9.410  19.918  71.972  1.00  0.00     3.032 A  
HETATM   11  C   UNL     1      -8.193  19.864  72.629  1.00  0.00     3.352 A  
HETATM   12  C   UNL     1      -7.106  19.308  71.972  1.00  0.00     2.878 A  
HETATM   13  C   UNL     1      -7.222  18.810  70.657  1.00  0.00     2.001 A  
HETATM   14  S   UNL     1      -5.718  18.146  70.000  1.00  0.00    -0.214 SA 
HETATM   15  C   UNL     1      -6.197  17.660  68.367  1.00  0.00    -0.177 A  
HETATM   16  C   UNL     1      -5.151  17.081  67.613  1.00  0.00    -0.132 A  
HETATM   17  C   UNL     1      -5.361  16.632  66.319  1.00  0.00     0.613 A  
HETATM   18  C   UNL     1      -6.619  16.772  65.763  1.00  0.00     1.231 A  
HETATM   19  C   UNL     1      -7.658  17.365  66.506  1.00  0.00    -0.317 A  
HETATM   20  C   UNL     1      -7.497  17.815  67.837  1.00  0.00    -0.210 A  
ENDBRANCH   6   7
ENDBRANCH   2   6
TORSDOF 3
ENDMDL
MODEL      193
REMARK 921   NORMALIZED FREE ENERGY PREDICTED BY IDOCK:   25.09 KCAL/MOL
REMARK 922        TOTAL FREE ENERGY PREDICTED BY IDOCK:   29.13 KCAL/MOL
REMARK 923 INTER-LIGAND FREE ENERGY PREDICTED BY IDOCK:   18.68 KCAL/MOL
REMARK 924 INTRA-LIGAND FREE ENERGY PREDICTED BY IDOCK:   10.45 KCAL/MOL
REMARK 927      BINDING AFFINITY PREDICTED BY RF-SCORE:    0.00 PKD
ROOT
HETATM    1  C   UNL     1     -12.639  14.309  67.599  1.00  0.00     0.443 C  
HETATM    2  C   UNL     1     -11.712  13.561  66.619  1.00  0.00    -0.387 C  
ENDROOT
BRANCH   2   3
HETATM    3  N   UNL     1     -11.234  12.288  67.266  1.00  0.00    -0.281 NA 
HETATM    4  C   UNL     1     -10.875  11.252  66.291  1.00  0.00    -0.238 C  
HETATM    5  C   UNL     1     -12.247  11.714  68.171  1.00  0.00     0.299 C  
ENDBRANCH   2   3
BRANCH   2   6
HETATM    6  C   UNL     1     -10.555  14.532  66.162  1.00  0.00    -0.306 C  
BRANCH   6   7
HETATM    7  N   UNL     1      -9.504  14.751  67.212  1.00  0.00    -0.210 NA 
HETATM    8  C   UNL     1      -8.337  15.489  66.808  1.00  0.00    -0.265 A  
HETATM    9  C   UNL     1      -8.180  16.021  65.509  1.00  0.00     1.819 A  
HETATM   10  C   UNL     1      -7.034  16.721  65.100  1.00  0.00     3.835 A  
HETATM   11  C   UNL     1      -5.994  16.928  65.988  1.00  0.00     0.638 A  
HETATM   12  C   UNL     1      -6.110  16.433  67.277  1.00  0.00    -0.201 A  
HETATM   13  C   UNL     1      -7.260  15.724  67.689  1.00  0.00    -0.166 A  
HETATM   14  S   UNL     1      -7.208  15.178  69.372  1.00  0.00    -0.209 SA 
HETATM   15  C   UNL     1      -8.744  14.314  69.539  1.00  0.00     0.552 A  
HETATM   16  C   UNL     1      -8.957  13.769  70.825  1.00  0.00     5.415 A  
HETATM   17  C   UNL     1     -10.117  13.075  71.130  1.00  0.00     7.826 A  
HETATM   18  C   UNL     1     -11.070  12.909  70.143  1.00  0.00     0.583 A  
HETATM   19  C   UNL     1     -10.854  13.437  68.855  1.00  0.00    -0.253 A  
HETATM   20  C   UNL     1      -9.697  14.172  68.505  1.00  0.00    -0.219 A  
ENDBRANCH   6   7
ENDBRANCH   2   6
TORSDOF 3
ENDMDL
MODEL      194
REMARK 921   NORMALIZED FREE ENERGY PREDICTED BY IDOCK:   37.30 KCAL/MOL
REMARK 922        TOTAL FREE ENERGY PREDICTED BY IDOCK:   43.48 KCAL/MOL
REMARK 923 INTER-LIGAND FREE ENERGY PREDICTED BY IDOCK:   41.21 KCAL/MOL
REMARK 924 INTRA-LIGAND FREE ENERGY PREDICTED BY IDOCK:    2.27 KCAL/MOL
REMARK 927      BINDING AFFINITY PREDICTED BY RF-SCORE:    0.00 PKD
ROOT
HETATM    1  C   UNL     1     -12.239  14.494  69.599  1.00  0.00    -0.336 C  
HETATM    2  C   UNL     1     -11.331  14.024  68.444  1.00  0.00    -0.291 C  
ENDROOT
BRANCH   2   3
HETATM    3  N   UNL     1     -10.622  12.762  68.855  1.00  0.00    -0.175 NA 
HETATM    4  C   UNL     1     -10.447  11.818  67.745  1.00  0.00    -0.194 C  
HETATM    5  C   UNL     1     -11.337  12.053  69.932  1.00  0.00    -0.065 C  
ENDBRANCH   2   3
BRANCH   2   6
HETATM    6  C   UNL     1     -10.369  15.206  68.034  1.00  0.00    -0.240 C  
BRANCH   6   7
HETATM    7  N   UNL     1     -10.267  16.287  69.071  1.00  0.00    -0.244 NA 
HETATM    8  C   UNL     1     -10.528  17.630  68.627  1.00  0.00    -0.317 A  
HETATM    9  C   UNL     1     -10.895  17.939  67.298  1.00  0.00    -0.188 A  
HETATM   10  C   UNL     1     -11.128  19.248  66.851  1.00  0.00    -0.204 A  
HETATM   11  C   UNL     1     -11.009  20.312  67.728  1.00  0.00     0.261 A  
HETATM   12  C   UNL     1     -10.661  20.055  69.045  1.00  0.00     0.404 A  
HETATM   13  C   UNL     1     -10.423  18.738  69.495  1.00  0.00     0.751 A  
HETATM   14  S   UNL     1      -9.989  18.627  71.207  1.00  0.00     4.435 SA 
HETATM   15  C   UNL     1      -9.727  16.890  71.422  1.00  0.00     5.433 A  
HETATM   16  C   UNL     1      -9.364  16.524  72.738  1.00  0.00    12.370 A  
HETATM   17  C   UNL     1      -9.137  15.201  73.081  1.00  0.00     9.254 A  
HETATM   18  C   UNL     1      -9.258  14.232  72.103  1.00  0.00     7.985 A  
HETATM   19  C   UNL     1      -9.602  14.595  70.787  1.00  0.00     1.997 A  
HETATM   20  C   UNL     1      -9.867  15.928  70.396  1.00  0.00     0.574 A  
ENDBRANCH   6   7
ENDBRANCH   2   6
TORSDOF 3
ENDMDL
MODEL      195
REMARK 921   NORMALIZED FREE ENERGY PREDICTED BY IDOCK:   37.42 KCAL/MOL
REMARK 922        TOTAL FREE ENERGY PREDICTED BY IDOCK:   43.62 KCAL/MOL
REMARK 923 INTER-LIGAND FREE ENERGY PREDICTED BY IDOCK:   41.41 KCAL/MOL
REMARK 924 INTRA-LIGAND FREE ENERGY PREDICTED BY IDOCK:    2.22 KCAL/MOL
REMARK 927      BINDING AFFINITY PREDICTED BY RF-SCORE:    0.00 PKD
ROOT
HETATM    1  C   UNL     1      -9.319  15.172  70.805  1.00  0.00     1.591 C  
HETATM    2  C   UNL     1      -9.233  15.873  69.434  1.00  0.00    -0.235 C  
ENDROOT
BRANCH   2   3
HETATM    3  N   UNL     1     -10.460  15.536  68.630  1.00  0.00    -0.231 NA 
HETATM    4  C   UNL     1     -10.590  14.099  68.363  1.00  0.00    -0.259 C  
HETATM    5  C   UNL     1     -10.478  16.233  67.330  1.00  0.00    -0.304 C  
ENDBRANCH   2   3
BRANCH   2   6
HETATM    6  C   UNL     1      -7.872  15.480  68.740  1.00  0.00    -0.160 C  
BRANCH   6   7
HETATM    7  N   UNL     1      -7.673  16.123  67.397  1.00  0.00    -0.146 NA 
HETATM    8  C   UNL     1      -7.992  15.321  66.247  1.00  0.00     0.693 A  
HETATM    9  C   UNL     1      -8.498  14.006  66.348  1.00  0.00     0.464 A  
HETATM   10  C   UNL     1      -8.788  13.209  65.231  1.00  0.00     1.571 A  
HETATM   11  C   UNL     1      -8.590  13.703  63.954  1.00  0.00     7.908 A  
HETATM   12  C   UNL     1      -8.104  14.993  63.808  1.00  0.00    17.378 A  
HETATM   13  C   UNL     1      -7.807  15.795  64.931  1.00  0.00     7.578 A  
HETATM   14  S   UNL     1      -7.197  17.407  64.527  1.00  0.00     6.935 SA 
HETATM   15  C   UNL     1      -6.897  18.112  66.122  1.00  0.00    -0.263 A  
HETATM   16  C   UNL     1      -6.396  19.433  66.079  1.00  0.00    -0.215 A  
HETATM   17  C   UNL     1      -6.121  20.137  67.241  1.00  0.00    -0.209 A  
HETATM   18  C   UNL     1      -6.334  19.517  68.458  1.00  0.00    -0.287 A  
HETATM   19  C   UNL     1      -6.817  18.195  68.504  1.00  0.00    -0.240 A  
HETATM   20  C   UNL     1      -7.134  17.447  67.346  1.00  0.00    -0.164 A  
ENDBRANCH   6   7
ENDBRANCH   2   6
TORSDOF 3
ENDMDL
