MODEL        1
REMARK 921   NORMALIZED FREE ENERGY PREDICTED BY IDOCK:   -3.78 KCAL/MOL
REMARK 922        TOTAL FREE ENERGY PREDICTED BY IDOCK:   -4.00 KCAL/MOL
REMARK 923 INTER-LIGAND FREE ENERGY PREDICTED BY IDOCK:   -4.00 KCAL/MOL
REMARK 924 INTRA-LIGAND FREE ENERGY PREDICTED BY IDOCK:    0.00 KCAL/MOL
REMARK 927      BINDING AFFINITY PREDICTED BY RF-SCORE:    0.00 PKD
ROOT
HETATM    1  C   UNL     1     -12.767  13.684  65.553  1.00  0.00    -0.514 C  
HETATM    2  C   UNL     1     -11.767  14.106  64.489  1.00  0.00    -0.413 C  
HETATM    3  O   UNL     1     -12.380  13.987  63.205  1.00  0.00    -1.133 OA 
HETATM    4  H   UNL     1     -11.755  14.250  62.541  1.00  0.00     0.000 HD 
ENDROOT
BRANCH   2   5
HETATM    5  C   UNL     1     -11.264  15.538  64.719  1.00  0.00    -0.390 C  
HETATM    6  O   UNL     1     -11.739  16.420  63.705  1.00  0.00    -1.553 OA 
HETATM    7  H   UNL     1     -11.428  17.307  63.847  1.00  0.00     0.000 HD 
ENDBRANCH   2   5
TORSDOF 1
ENDMDL
MODEL        2
REMARK 921   NORMALIZED FREE ENERGY PREDICTED BY IDOCK:   -3.33 KCAL/MOL
REMARK 922        TOTAL FREE ENERGY PREDICTED BY IDOCK:   -3.52 KCAL/MOL
REMARK 923 INTER-LIGAND FREE ENERGY PREDICTED BY IDOCK:   -3.52 KCAL/MOL
REMARK 924 INTRA-LIGAND FREE ENERGY PREDICTED BY IDOCK:    0.00 KCAL/MOL
REMARK 927      BINDING AFFINITY PREDICTED BY RF-SCORE:    0.00 PKD
ROOT
HETATM    1  C   UNL     1     -11.989  16.052  72.220  1.00  0.00    -0.633 C  
HETATM    2  C   UNL     1     -13.167  15.430  72.952  1.00  0.00    -0.518 C  
HETATM    3  O   UNL     1     -13.534  16.278  74.041  1.00  0.00    -0.915 OA 
HETATM    4  H   UNL     1     -14.271  15.889  74.498  1.00  0.00     0.000 HD 
ENDROOT
BRANCH   2   5
HETATM    5  C   UNL     1     -14.362  15.205  72.015  1.00  0.00    -0.586 C  
HETATM    6  O   UNL     1     -14.030  15.533  70.667  1.00  0.00    -0.868 OA 
HETATM    7  H   UNL     1     -14.770  15.393  70.087  1.00  0.00     0.000 HD 
ENDBRANCH   2   5
TORSDOF 1
ENDMDL
MODEL        3
REMARK 921   NORMALIZED FREE ENERGY PREDICTED BY IDOCK:   -3.27 KCAL/MOL
REMARK 922        TOTAL FREE ENERGY PREDICTED BY IDOCK:   -3.46 KCAL/MOL
REMARK 923 INTER-LIGAND FREE ENERGY PREDICTED BY IDOCK:   -3.46 KCAL/MOL
REMARK 924 INTRA-LIGAND FREE ENERGY PREDICTED BY IDOCK:    0.00 KCAL/MOL
REMARK 927      BINDING AFFINITY PREDICTED BY RF-SCORE:    0.00 PKD
ROOT
HETATM    1  C   UNL     1     -10.753  14.337  64.947  1.00  0.00    -0.448 C  
HETATM    2  C   UNL     1     -11.898  13.588  64.285  1.00  0.00    -0.428 C  
HETATM    3  O   UNL     1     -12.533  14.454  63.343  1.00  0.00    -1.109 OA 
HETATM    4  H   UNL     1     -13.249  13.986  62.929  1.00  0.00     0.000 HD 
ENDROOT
BRANCH   2   5
HETATM    5  C   UNL     1     -11.414  12.303  63.599  1.00  0.00    -0.490 C  
HETATM    6  O   UNL     1     -12.503  11.587  63.020  1.00  0.00    -0.982 OA 
HETATM    7  H   UNL     1     -12.203  10.790  62.595  1.00  0.00     0.000 HD 
ENDBRANCH   2   5
TORSDOF 1
ENDMDL
MODEL        4
REMARK 921   NORMALIZED FREE ENERGY PREDICTED BY IDOCK:   -3.16 KCAL/MOL
REMARK 922        TOTAL FREE ENERGY PREDICTED BY IDOCK:   -3.35 KCAL/MOL
REMARK 923 INTER-LIGAND FREE ENERGY PREDICTED BY IDOCK:   -3.35 KCAL/MOL
REMARK 924 INTRA-LIGAND FREE ENERGY PREDICTED BY IDOCK:    0.00 KCAL/MOL
REMARK 927      BINDING AFFINITY PREDICTED BY RF-SCORE:    0.00 PKD
ROOT
HETATM    1  C   UNL     1     -11.066  13.253  65.925  1.00  0.00    -0.301 C  
HETATM    2  C   UNL     1     -11.728  14.117  64.864  1.00  0.00    -0.392 C  
HETATM    3  O   UNL     1     -13.139  14.122  65.087  1.00  0.00    -0.757 OA 
HETATM    4  H   UNL     1     -13.553  14.662  64.424  1.00  0.00     0.000 HD 
ENDROOT
BRANCH   2   5
HETATM    5  C   UNL     1     -11.174  15.548  64.870  1.00  0.00    -0.389 C  
HETATM    6  O   UNL     1     -11.751  16.329  63.827  1.00  0.00    -1.511 OA 
HETATM    7  H   UNL     1     -11.407  17.216  63.830  1.00  0.00     0.000 HD 
ENDBRANCH   2   5
TORSDOF 1
ENDMDL
MODEL        5
REMARK 921   NORMALIZED FREE ENERGY PREDICTED BY IDOCK:   -3.14 KCAL/MOL
REMARK 922        TOTAL FREE ENERGY PREDICTED BY IDOCK:   -3.32 KCAL/MOL
REMARK 923 INTER-LIGAND FREE ENERGY PREDICTED BY IDOCK:   -3.32 KCAL/MOL
REMARK 924 INTRA-LIGAND FREE ENERGY PREDICTED BY IDOCK:    0.00 KCAL/MOL
REMARK 927      BINDING AFFINITY PREDICTED BY RF-SCORE:    0.00 PKD
ROOT
HETATM    1  C   UNL     1     -12.377  12.016  63.412  1.00  0.00    -0.635 C  
HETATM    2  C   UNL     1     -11.889  13.278  64.104  1.00  0.00    -0.443 C  
HETATM    3  O   UNL     1     -12.347  14.415  63.371  1.00  0.00    -1.094 OA 
HETATM    4  H   UNL     1     -12.042  15.203  63.804  1.00  0.00     0.000 HD 
ENDROOT
BRANCH   2   5
HETATM    5  C   UNL     1     -12.364  13.345  65.562  1.00  0.00    -0.480 C  
HETATM    6  O   UNL     1     -13.557  14.117  65.680  1.00  0.00    -0.671 OA 
HETATM    7  H   UNL     1     -13.852  14.159  66.583  1.00  0.00     0.000 HD 
ENDBRANCH   2   5
TORSDOF 1
ENDMDL
MODEL        6
REMARK 921   NORMALIZED FREE ENERGY PREDICTED BY IDOCK:   -3.10 KCAL/MOL
REMARK 922        TOTAL FREE ENERGY PREDICTED BY IDOCK:   -3.28 KCAL/MOL
REMARK 923 INTER-LIGAND FREE ENERGY PREDICTED BY IDOCK:   -3.28 KCAL/MOL
REMARK 924 INTRA-LIGAND FREE ENERGY PREDICTED BY IDOCK:    0.00 KCAL/MOL
REMARK 927      BINDING AFFINITY PREDICTED BY RF-SCORE:    0.00 PKD
ROOT
HETATM    1  C   UNL     1     -10.486  11.541  64.349  1.00  0.00    -0.380 C  
HETATM    2  C   UNL     1     -11.356  12.413  63.459  1.00  0.00    -0.476 C  
HETATM    3  O   UNL     1     -12.464  11.641  62.996  1.00  0.00    -0.972 OA 
HETATM    4  H   UNL     1     -13.007  12.186  62.440  1.00  0.00     0.000 HD 
ENDROOT
BRANCH   2   5
HETATM    5  C   UNL     1     -11.841  13.669  64.196  1.00  0.00    -0.422 C  
HETATM    6  O   UNL     1     -12.651  14.483  63.350  1.00  0.00    -1.028 OA 
HETATM    7  H   UNL     1     -12.952  15.261  63.806  1.00  0.00     0.000 HD 
ENDBRANCH   2   5
TORSDOF 1
ENDMDL
MODEL        7
REMARK 921   NORMALIZED FREE ENERGY PREDICTED BY IDOCK:   -3.07 KCAL/MOL
REMARK 922        TOTAL FREE ENERGY PREDICTED BY IDOCK:   -3.25 KCAL/MOL
REMARK 923 INTER-LIGAND FREE ENERGY PREDICTED BY IDOCK:   -3.25 KCAL/MOL
REMARK 924 INTRA-LIGAND FREE ENERGY PREDICTED BY IDOCK:    0.00 KCAL/MOL
REMARK 927      BINDING AFFINITY PREDICTED BY RF-SCORE:    0.00 PKD
ROOT
HETATM    1  C   UNL     1     -12.021  14.353  65.231  1.00  0.00    -0.382 C  
HETATM    2  C   UNL     1     -10.982  15.377  64.806  1.00  0.00    -0.393 C  
HETATM    3  O   UNL     1     -11.558  16.243  63.828  1.00  0.00    -1.539 OA 
HETATM    4  H   UNL     1     -10.909  16.883  63.562  1.00  0.00     0.000 HD 
ENDROOT
BRANCH   2   5
HETATM    5  C   UNL     1     -10.458  16.184  66.002  1.00  0.00    -0.338 C  
HETATM    6  O   UNL     1     -10.374  17.573  65.691  1.00  0.00    -0.601 OA 
HETATM    7  H   UNL     1     -10.050  18.073  66.432  1.00  0.00     0.000 HD 
ENDBRANCH   2   5
TORSDOF 1
ENDMDL
MODEL        8
REMARK 921   NORMALIZED FREE ENERGY PREDICTED BY IDOCK:   -3.05 KCAL/MOL
REMARK 922        TOTAL FREE ENERGY PREDICTED BY IDOCK:   -3.23 KCAL/MOL
REMARK 923 INTER-LIGAND FREE ENERGY PREDICTED BY IDOCK:   -3.23 KCAL/MOL
REMARK 924 INTRA-LIGAND FREE ENERGY PREDICTED BY IDOCK:    0.00 KCAL/MOL
REMARK 927      BINDING AFFINITY PREDICTED BY RF-SCORE:    0.00 PKD
ROOT
HETATM    1  C   UNL     1     -14.034  13.848  72.319  1.00  0.00    -0.663 C  
HETATM    2  C   UNL     1     -13.188  14.907  71.632  1.00  0.00    -0.359 C  
HETATM    3  O   UNL     1     -14.000  15.606  70.688  1.00  0.00    -0.827 OA 
HETATM    4  H   UNL     1     -13.471  16.268  70.259  1.00  0.00     0.000 HD 
ENDROOT
BRANCH   2   5
HETATM    5  C   UNL     1     -12.571  15.883  72.643  1.00  0.00    -0.470 C  
HETATM    6  O   UNL     1     -13.448  16.109  73.744  1.00  0.00    -0.913 OA 
HETATM    7  H   UNL     1     -13.066  16.714  74.370  1.00  0.00     0.000 HD 
ENDBRANCH   2   5
TORSDOF 1
ENDMDL
MODEL        9
REMARK 921   NORMALIZED FREE ENERGY PREDICTED BY IDOCK:   -3.05 KCAL/MOL
REMARK 922        TOTAL FREE ENERGY PREDICTED BY IDOCK:   -3.22 KCAL/MOL
REMARK 923 INTER-LIGAND FREE ENERGY PREDICTED BY IDOCK:   -3.22 KCAL/MOL
REMARK 924 INTRA-LIGAND FREE ENERGY PREDICTED BY IDOCK:    0.00 KCAL/MOL
REMARK 927      BINDING AFFINITY PREDICTED BY RF-SCORE:    0.00 PKD
ROOT
HETATM    1  C   UNL     1     -11.840  12.815  64.719  1.00  0.00    -0.423 C  
HETATM    2  C   UNL     1     -11.338  14.238  64.892  1.00  0.00    -0.372 C  
HETATM    3  O   UNL     1     -10.016  14.331  64.358  1.00  0.00    -0.634 OA 
HETATM    4  H   UNL     1      -9.703  15.220  64.466  1.00  0.00     0.000 HD 
ENDROOT
BRANCH   2   5
HETATM    5  C   UNL     1     -12.268  15.254  64.215  1.00  0.00    -0.189 C  
HETATM    6  O   UNL     1     -11.543  16.395  63.760  1.00  0.00    -1.605 OA 
HETATM    7  H   UNL     1     -12.119  17.024  63.341  1.00  0.00     0.000 HD 
ENDBRANCH   2   5
TORSDOF 1
ENDMDL
MODEL       10
REMARK 921   NORMALIZED FREE ENERGY PREDICTED BY IDOCK:   -3.01 KCAL/MOL
REMARK 922        TOTAL FREE ENERGY PREDICTED BY IDOCK:   -3.18 KCAL/MOL
REMARK 923 INTER-LIGAND FREE ENERGY PREDICTED BY IDOCK:   -3.18 KCAL/MOL
REMARK 924 INTRA-LIGAND FREE ENERGY PREDICTED BY IDOCK:    0.00 KCAL/MOL
REMARK 927      BINDING AFFINITY PREDICTED BY RF-SCORE:    0.00 PKD
ROOT
HETATM    1  C   UNL     1     -13.115  10.327  71.587  1.00  0.00    -0.553 C  
HETATM    2  C   UNL     1     -12.987   9.056  72.411  1.00  0.00    -0.405 C  
HETATM    3  O   UNL     1     -14.039   9.023  73.376  1.00  0.00    -1.231 OA 
HETATM    4  H   UNL     1     -13.958   8.229  73.891  1.00  0.00     0.000 HD 
ENDROOT
BRANCH   2   5
HETATM    5  C   UNL     1     -13.023   7.802  71.527  1.00  0.00    -0.325 C  
HETATM    6  O   UNL     1     -14.318   7.604  70.964  1.00  0.00    -0.668 OA 
HETATM    7  H   UNL     1     -14.341   6.827  70.417  1.00  0.00     0.000 HD 
ENDBRANCH   2   5
TORSDOF 1
ENDMDL
MODEL       11
REMARK 921   NORMALIZED FREE ENERGY PREDICTED BY IDOCK:   -3.00 KCAL/MOL
REMARK 922        TOTAL FREE ENERGY PREDICTED BY IDOCK:   -3.18 KCAL/MOL
REMARK 923 INTER-LIGAND FREE ENERGY PREDICTED BY IDOCK:   -3.18 KCAL/MOL
REMARK 924 INTRA-LIGAND FREE ENERGY PREDICTED BY IDOCK:    0.00 KCAL/MOL
REMARK 927      BINDING AFFINITY PREDICTED BY RF-SCORE:    0.00 PKD
ROOT
HETATM    1  C   UNL     1     -12.508  10.607  70.356  1.00  0.00    -0.421 C  
HETATM    2  C   UNL     1     -12.866  10.367  71.814  1.00  0.00    -0.456 C  
HETATM    3  O   UNL     1     -13.497  11.538  72.334  1.00  0.00    -0.596 OA 
HETATM    4  H   UNL     1     -13.720  11.387  73.245  1.00  0.00     0.000 HD 
ENDROOT
BRANCH   2   5
HETATM    5  C   UNL     1     -13.776   9.142  71.980  1.00  0.00    -0.448 C  
HETATM    6  O   UNL     1     -14.147   8.956  73.344  1.00  0.00    -1.256 OA 
HETATM    7  H   UNL     1     -14.711   8.197  73.447  1.00  0.00     0.000 HD 
ENDBRANCH   2   5
TORSDOF 1
ENDMDL
MODEL       12
REMARK 921   NORMALIZED FREE ENERGY PREDICTED BY IDOCK:   -3.00 KCAL/MOL
REMARK 922        TOTAL FREE ENERGY PREDICTED BY IDOCK:   -3.17 KCAL/MOL
REMARK 923 INTER-LIGAND FREE ENERGY PREDICTED BY IDOCK:   -3.17 KCAL/MOL
REMARK 924 INTRA-LIGAND FREE ENERGY PREDICTED BY IDOCK:    0.00 KCAL/MOL
REMARK 927      BINDING AFFINITY PREDICTED BY RF-SCORE:    0.00 PKD
ROOT
HETATM    1  C   UNL     1     -13.054   7.677  71.618  1.00  0.00    -0.392 C  
HETATM    2  C   UNL     1     -13.784   8.953  72.000  1.00  0.00    -0.459 C  
HETATM    3  O   UNL     1     -14.144   8.885  73.381  1.00  0.00    -1.256 OA 
HETATM    4  H   UNL     1     -14.600   9.683  73.619  1.00  0.00     0.000 HD 
ENDROOT
BRANCH   2   5
HETATM    5  C   UNL     1     -12.932  10.199  71.723  1.00  0.00    -0.462 C  
HETATM    6  O   UNL     1     -13.528  11.367  72.284  1.00  0.00    -0.601 OA 
HETATM    7  H   UNL     1     -13.001  12.139  72.112  1.00  0.00     0.000 HD 
ENDBRANCH   2   5
TORSDOF 1
ENDMDL
MODEL       13
REMARK 921   NORMALIZED FREE ENERGY PREDICTED BY IDOCK:   -2.98 KCAL/MOL
REMARK 922        TOTAL FREE ENERGY PREDICTED BY IDOCK:   -3.16 KCAL/MOL
REMARK 923 INTER-LIGAND FREE ENERGY PREDICTED BY IDOCK:   -3.16 KCAL/MOL
REMARK 924 INTRA-LIGAND FREE ENERGY PREDICTED BY IDOCK:    0.00 KCAL/MOL
REMARK 927      BINDING AFFINITY PREDICTED BY RF-SCORE:    0.00 PKD
ROOT
HETATM    1  C   UNL     1     -11.877  11.957  63.703  1.00  0.00    -0.573 C  
HETATM    2  C   UNL     1     -12.448  12.718  64.888  1.00  0.00    -0.497 C  
HETATM    3  O   UNL     1     -11.934  12.150  66.094  1.00  0.00    -0.593 OA 
HETATM    4  H   UNL     1     -12.291  12.626  66.834  1.00  0.00     0.000 HD 
ENDROOT
BRANCH   2   5
HETATM    5  C   UNL     1     -12.121  14.215  64.812  1.00  0.00    -0.441 C  
HETATM    6  O   UNL     1     -12.528  14.770  63.563  1.00  0.00    -1.053 OA 
HETATM    7  H   UNL     1     -12.326  15.697  63.515  1.00  0.00     0.000 HD 
ENDBRANCH   2   5
TORSDOF 1
ENDMDL
MODEL       14
REMARK 921   NORMALIZED FREE ENERGY PREDICTED BY IDOCK:   -2.96 KCAL/MOL
REMARK 922        TOTAL FREE ENERGY PREDICTED BY IDOCK:   -3.13 KCAL/MOL
REMARK 923 INTER-LIGAND FREE ENERGY PREDICTED BY IDOCK:   -3.13 KCAL/MOL
REMARK 924 INTRA-LIGAND FREE ENERGY PREDICTED BY IDOCK:    0.00 KCAL/MOL
REMARK 927      BINDING AFFINITY PREDICTED BY RF-SCORE:    0.00 PKD
ROOT
HETATM    1  C   UNL     1     -12.173   7.031  71.779  1.00  0.00    -0.387 C  
HETATM    2  C   UNL     1     -13.665   7.230  71.570  1.00  0.00    -0.351 C  
HETATM    3  O   UNL     1     -14.374   6.271  72.356  1.00  0.00    -0.691 OA 
HETATM    4  H   UNL     1     -15.306   6.396  72.225  1.00  0.00     0.000 HD 
ENDROOT
BRANCH   2   5
HETATM    5  C   UNL     1     -14.103   8.656  71.931  1.00  0.00    -0.443 C  
HETATM    6  O   UNL     1     -14.073   8.864  73.342  1.00  0.00    -1.256 OA 
HETATM    7  H   UNL     1     -14.344   9.747  73.565  1.00  0.00     0.000 HD 
ENDBRANCH   2   5
TORSDOF 1
ENDMDL
MODEL       15
REMARK 921   NORMALIZED FREE ENERGY PREDICTED BY IDOCK:   -2.95 KCAL/MOL
REMARK 922        TOTAL FREE ENERGY PREDICTED BY IDOCK:   -3.12 KCAL/MOL
REMARK 923 INTER-LIGAND FREE ENERGY PREDICTED BY IDOCK:   -3.12 KCAL/MOL
REMARK 924 INTRA-LIGAND FREE ENERGY PREDICTED BY IDOCK:    0.00 KCAL/MOL
REMARK 927      BINDING AFFINITY PREDICTED BY RF-SCORE:    0.00 PKD
ROOT
HETATM    1  C   UNL     1     -13.598  14.063  72.521  1.00  0.00    -0.670 C  
HETATM    2  C   UNL     1     -13.519  15.569  72.333  1.00  0.00    -0.509 C  
HETATM    3  O   UNL     1     -13.863  16.207  73.564  1.00  0.00    -0.868 OA 
HETATM    4  H   UNL     1     -13.813  17.148  73.446  1.00  0.00     0.000 HD 
ENDROOT
BRANCH   2   5
HETATM    5  C   UNL     1     -12.126  16.009  71.864  1.00  0.00    -0.514 C  
HETATM    6  O   UNL     1     -11.259  14.890  71.700  1.00  0.00    -0.556 OA 
HETATM    7  H   UNL     1     -10.395  15.163  71.410  1.00  0.00     0.000 HD 
ENDBRANCH   2   5
TORSDOF 1
ENDMDL
MODEL       16
REMARK 921   NORMALIZED FREE ENERGY PREDICTED BY IDOCK:   -2.90 KCAL/MOL
REMARK 922        TOTAL FREE ENERGY PREDICTED BY IDOCK:   -3.07 KCAL/MOL
REMARK 923 INTER-LIGAND FREE ENERGY PREDICTED BY IDOCK:   -3.07 KCAL/MOL
REMARK 924 INTRA-LIGAND FREE ENERGY PREDICTED BY IDOCK:    0.00 KCAL/MOL
REMARK 927      BINDING AFFINITY PREDICTED BY RF-SCORE:    0.00 PKD
ROOT
HETATM    1  C   UNL     1     -11.196   9.405  71.415  1.00  0.00    -0.452 C  
HETATM    2  C   UNL     1     -12.666   9.742  71.600  1.00  0.00    -0.422 C  
HETATM    3  O   UNL     1     -13.200  10.186  70.352  1.00  0.00    -0.587 OA 
HETATM    4  H   UNL     1     -14.119  10.396  70.469  1.00  0.00     0.000 HD 
ENDROOT
BRANCH   2   5
HETATM    5  C   UNL     1     -13.460   8.542  72.134  1.00  0.00    -0.358 C  
HETATM    6  O   UNL     1     -14.100   8.855  73.369  1.00  0.00    -1.256 OA 
HETATM    7  H   UNL     1     -14.592   8.111  73.700  1.00  0.00     0.000 HD 
ENDBRANCH   2   5
TORSDOF 1
ENDMDL
MODEL       17
REMARK 921   NORMALIZED FREE ENERGY PREDICTED BY IDOCK:   -2.84 KCAL/MOL
REMARK 922        TOTAL FREE ENERGY PREDICTED BY IDOCK:   -3.01 KCAL/MOL
REMARK 923 INTER-LIGAND FREE ENERGY PREDICTED BY IDOCK:   -3.01 KCAL/MOL
REMARK 924 INTRA-LIGAND FREE ENERGY PREDICTED BY IDOCK:    0.00 KCAL/MOL
REMARK 927      BINDING AFFINITY PREDICTED BY RF-SCORE:    0.00 PKD
ROOT
HETATM    1  C   UNL     1     -12.328  13.558  63.753  1.00  0.00    -0.392 C  
HETATM    2  C   UNL     1     -11.927  12.092  63.754  1.00  0.00    -0.490 C  
HETATM    3  O   UNL     1     -12.713  11.396  62.785  1.00  0.00    -0.927 OA 
HETATM    4  H   UNL     1     -12.462  10.481  62.786  1.00  0.00     0.000 HD 
ENDROOT
BRANCH   2   5
HETATM    5  C   UNL     1     -10.430  11.912  63.467  1.00  0.00    -0.459 C  
HETATM    6  O   UNL     1     -10.205  10.842  62.553  1.00  0.00    -0.741 OA 
HETATM    7  H   UNL     1      -9.277  10.730  62.376  1.00  0.00     0.000 HD 
ENDBRANCH   2   5
TORSDOF 1
ENDMDL
MODEL       18
REMARK 921   NORMALIZED FREE ENERGY PREDICTED BY IDOCK:   -2.79 KCAL/MOL
REMARK 922        TOTAL FREE ENERGY PREDICTED BY IDOCK:   -2.95 KCAL/MOL
REMARK 923 INTER-LIGAND FREE ENERGY PREDICTED BY IDOCK:   -2.95 KCAL/MOL
REMARK 924 INTRA-LIGAND FREE ENERGY PREDICTED BY IDOCK:    0.00 KCAL/MOL
REMARK 927      BINDING AFFINITY PREDICTED BY RF-SCORE:    0.00 PKD
ROOT
HETATM    1  C   UNL     1      -9.767  10.633  64.703  1.00  0.00    -0.360 C  
HETATM    2  C   UNL     1     -10.002  11.437  63.434  1.00  0.00    -0.402 C  
HETATM    3  O   UNL     1     -10.147  10.536  62.336  1.00  0.00    -0.746 OA 
HETATM    4  H   UNL     1     -10.293  11.038  61.544  1.00  0.00     0.000 HD 
ENDROOT
BRANCH   2   5
HETATM    5  C   UNL     1     -11.234  12.343  63.557  1.00  0.00    -0.469 C  
HETATM    6  O   UNL     1     -12.402  11.698  63.054  1.00  0.00    -0.970 OA 
HETATM    7  H   UNL     1     -13.165  12.259  63.129  1.00  0.00     0.000 HD 
ENDBRANCH   2   5
TORSDOF 1
ENDMDL
MODEL       19
REMARK 921   NORMALIZED FREE ENERGY PREDICTED BY IDOCK:   -2.78 KCAL/MOL
REMARK 922        TOTAL FREE ENERGY PREDICTED BY IDOCK:   -2.95 KCAL/MOL
REMARK 923 INTER-LIGAND FREE ENERGY PREDICTED BY IDOCK:   -2.95 KCAL/MOL
REMARK 924 INTRA-LIGAND FREE ENERGY PREDICTED BY IDOCK:    0.00 KCAL/MOL
REMARK 927      BINDING AFFINITY PREDICTED BY RF-SCORE:    0.00 PKD
ROOT
HETATM    1  C   UNL     1     -12.638  11.726  63.558  1.00  0.00    -0.485 C  
HETATM    2  C   UNL     1     -11.738  12.948  63.482  1.00  0.00    -0.512 C  
HETATM    3  O   UNL     1     -12.517  14.070  63.064  1.00  0.00    -1.101 OA 
HETATM    4  H   UNL     1     -11.954  14.834  63.017  1.00  0.00     0.000 HD 
ENDROOT
BRANCH   2   5
HETATM    5  C   UNL     1     -11.055  13.234  64.827  1.00  0.00    -0.342 C  
HETATM    6  O   UNL     1      -9.704  12.780  64.825  1.00  0.00    -0.507 OA 
HETATM    7  H   UNL     1      -9.280  12.957  65.658  1.00  0.00     0.000 HD 
ENDBRANCH   2   5
TORSDOF 1
ENDMDL
MODEL       20
REMARK 921   NORMALIZED FREE ENERGY PREDICTED BY IDOCK:   -2.75 KCAL/MOL
REMARK 922        TOTAL FREE ENERGY PREDICTED BY IDOCK:   -2.92 KCAL/MOL
REMARK 923 INTER-LIGAND FREE ENERGY PREDICTED BY IDOCK:   -2.92 KCAL/MOL
REMARK 924 INTRA-LIGAND FREE ENERGY PREDICTED BY IDOCK:    0.00 KCAL/MOL
REMARK 927      BINDING AFFINITY PREDICTED BY RF-SCORE:    0.00 PKD
ROOT
HETATM    1  C   UNL     1     -13.287  15.833  73.013  1.00  0.00    -0.679 C  
HETATM    2  C   UNL     1     -14.223  15.145  72.034  1.00  0.00    -0.577 C  
HETATM    3  O   UNL     1     -13.849  15.506  70.703  1.00  0.00    -0.864 OA 
HETATM    4  H   UNL     1     -14.434  15.076  70.092  1.00  0.00     0.000 HD 
ENDROOT
BRANCH   2   5
HETATM    5  C   UNL     1     -14.204  13.620  72.206  1.00  0.00    -0.426 C  
HETATM    6  O   UNL     1     -12.993  13.059  71.705  1.00  0.00    -0.370 OA 
HETATM    7  H   UNL     1     -12.982  12.114  71.812  1.00  0.00     0.000 HD 
ENDBRANCH   2   5
TORSDOF 1
ENDMDL
MODEL       21
REMARK 921   NORMALIZED FREE ENERGY PREDICTED BY IDOCK:   -2.73 KCAL/MOL
REMARK 922        TOTAL FREE ENERGY PREDICTED BY IDOCK:   -2.89 KCAL/MOL
REMARK 923 INTER-LIGAND FREE ENERGY PREDICTED BY IDOCK:   -2.89 KCAL/MOL
REMARK 924 INTRA-LIGAND FREE ENERGY PREDICTED BY IDOCK:    0.00 KCAL/MOL
REMARK 927      BINDING AFFINITY PREDICTED BY RF-SCORE:    0.00 PKD
ROOT
HETATM    1  C   UNL     1     -13.693  13.670  72.425  1.00  0.00    -0.697 C  
HETATM    2  C   UNL     1     -13.871  15.112  71.978  1.00  0.00    -0.504 C  
HETATM    3  O   UNL     1     -14.083  15.930  73.129  1.00  0.00    -0.650 OA 
HETATM    4  H   UNL     1     -14.195  16.831  72.850  1.00  0.00     0.000 HD 
ENDROOT
BRANCH   2   5
HETATM    5  C   UNL     1     -12.663  15.610  71.174  1.00  0.00    -0.465 C  
HETATM    6  O   UNL     1     -13.037  15.960  69.843  1.00  0.00    -0.577 OA 
HETATM    7  H   UNL     1     -12.288  16.268  69.345  1.00  0.00     0.000 HD 
ENDBRANCH   2   5
TORSDOF 1
ENDMDL
MODEL       22
REMARK 921   NORMALIZED FREE ENERGY PREDICTED BY IDOCK:   -2.60 KCAL/MOL
REMARK 922        TOTAL FREE ENERGY PREDICTED BY IDOCK:   -2.75 KCAL/MOL
REMARK 923 INTER-LIGAND FREE ENERGY PREDICTED BY IDOCK:   -2.75 KCAL/MOL
REMARK 924 INTRA-LIGAND FREE ENERGY PREDICTED BY IDOCK:    0.00 KCAL/MOL
REMARK 927      BINDING AFFINITY PREDICTED BY RF-SCORE:    0.00 PKD
ROOT
HETATM    1  C   UNL     1     -14.409   7.427  71.503  1.00  0.00    -0.594 C  
HETATM    2  C   UNL     1     -13.247   8.329  71.887  1.00  0.00    -0.344 C  
HETATM    3  O   UNL     1     -13.504   8.891  73.174  1.00  0.00    -0.968 OA 
HETATM    4  H   UNL     1     -12.778   9.455  73.414  1.00  0.00     0.000 HD 
ENDROOT
BRANCH   2   5
HETATM    5  C   UNL     1     -11.914   7.568  71.884  1.00  0.00    -0.301 C  
HETATM    6  O   UNL     1     -11.523   7.209  73.208  1.00  0.00    -0.547 OA 
HETATM    7  H   UNL     1     -10.697   6.738  73.206  1.00  0.00     0.000 HD 
ENDBRANCH   2   5
TORSDOF 1
ENDMDL
MODEL       23
REMARK 921   NORMALIZED FREE ENERGY PREDICTED BY IDOCK:   -2.58 KCAL/MOL
REMARK 922        TOTAL FREE ENERGY PREDICTED BY IDOCK:   -2.73 KCAL/MOL
REMARK 923 INTER-LIGAND FREE ENERGY PREDICTED BY IDOCK:   -2.73 KCAL/MOL
REMARK 924 INTRA-LIGAND FREE ENERGY PREDICTED BY IDOCK:    0.00 KCAL/MOL
REMARK 927      BINDING AFFINITY PREDICTED BY RF-SCORE:    0.00 PKD
ROOT
HETATM    1  C   UNL     1     -11.944  15.987  71.975  1.00  0.00    -0.622 C  
HETATM    2  C   UNL     1     -12.747  15.000  71.144  1.00  0.00    -0.362 C  
HETATM    3  O   UNL     1     -13.927  15.648  70.667  1.00  0.00    -0.827 OA 
HETATM    4  H   UNL     1     -14.428  15.031  70.148  1.00  0.00     0.000 HD 
ENDROOT
BRANCH   2   5
HETATM    5  C   UNL     1     -11.925  14.442  69.974  1.00  0.00    -0.334 C  
HETATM    6  O   UNL     1     -12.496  14.811  68.721  1.00  0.00    -0.580 OA 
HETATM    7  H   UNL     1     -11.987  14.465  67.996  1.00  0.00     0.000 HD 
ENDBRANCH   2   5
TORSDOF 1
ENDMDL
MODEL       24
REMARK 921   NORMALIZED FREE ENERGY PREDICTED BY IDOCK:   -2.56 KCAL/MOL
REMARK 922        TOTAL FREE ENERGY PREDICTED BY IDOCK:   -2.71 KCAL/MOL
REMARK 923 INTER-LIGAND FREE ENERGY PREDICTED BY IDOCK:   -2.71 KCAL/MOL
REMARK 924 INTRA-LIGAND FREE ENERGY PREDICTED BY IDOCK:    0.00 KCAL/MOL
REMARK 927      BINDING AFFINITY PREDICTED BY RF-SCORE:    0.00 PKD
ROOT
HETATM    1  C   UNL     1     -11.019  12.616  63.775  1.00  0.00    -0.481 C  
HETATM    2  C   UNL     1     -11.566  13.808  64.542  1.00  0.00    -0.392 C  
HETATM    3  O   UNL     1     -12.459  14.533  63.695  1.00  0.00    -1.072 OA 
HETATM    4  H   UNL     1     -12.800  15.278  64.175  1.00  0.00     0.000 HD 
ENDROOT
BRANCH   2   5
HETATM    5  C   UNL     1     -12.275  13.375  65.832  1.00  0.00    -0.450 C  
HETATM    6  O   UNL     1     -11.516  13.736  66.984  1.00  0.00    -0.316 OA 
HETATM    7  H   UNL     1     -11.955  13.468  67.784  1.00  0.00     0.000 HD 
ENDBRANCH   2   5
TORSDOF 1
ENDMDL
MODEL       25
REMARK 921   NORMALIZED FREE ENERGY PREDICTED BY IDOCK:   -2.53 KCAL/MOL
REMARK 922        TOTAL FREE ENERGY PREDICTED BY IDOCK:   -2.68 KCAL/MOL
REMARK 923 INTER-LIGAND FREE ENERGY PREDICTED BY IDOCK:   -2.68 KCAL/MOL
REMARK 924 INTRA-LIGAND FREE ENERGY PREDICTED BY IDOCK:    0.00 KCAL/MOL
REMARK 927      BINDING AFFINITY PREDICTED BY RF-SCORE:    0.00 PKD
ROOT
HETATM    1  C   UNL     1     -10.943  13.497  64.388  1.00  0.00    -0.399 C  
HETATM    2  C   UNL     1     -12.236  13.542  65.185  1.00  0.00    -0.428 C  
HETATM    3  O   UNL     1     -13.133  12.560  64.667  1.00  0.00    -0.845 OA 
HETATM    4  H   UNL     1     -13.941  12.588  65.165  1.00  0.00     0.000 HD 
ENDROOT
BRANCH   2   5
HETATM    5  C   UNL     1     -11.988  13.314  66.682  1.00  0.00    -0.388 C  
HETATM    6  O   UNL     1     -12.029  11.926  67.006  1.00  0.00    -0.615 OA 
HETATM    7  H   UNL     1     -11.876  11.784  67.934  1.00  0.00     0.000 HD 
ENDBRANCH   2   5
TORSDOF 1
ENDMDL
MODEL       26
REMARK 921   NORMALIZED FREE ENERGY PREDICTED BY IDOCK:   -2.52 KCAL/MOL
REMARK 922        TOTAL FREE ENERGY PREDICTED BY IDOCK:   -2.67 KCAL/MOL
REMARK 923 INTER-LIGAND FREE ENERGY PREDICTED BY IDOCK:   -2.67 KCAL/MOL
REMARK 924 INTRA-LIGAND FREE ENERGY PREDICTED BY IDOCK:    0.00 KCAL/MOL
REMARK 927      BINDING AFFINITY PREDICTED BY RF-SCORE:    0.00 PKD
ROOT
HETATM    1  C   UNL     1     -12.082  15.904  71.815  1.00  0.00    -0.567 C  
HETATM    2  C   UNL     1     -12.980  14.875  71.149  1.00  0.00    -0.367 C  
HETATM    3  O   UNL     1     -14.138  15.534  70.636  1.00  0.00    -0.849 OA 
HETATM    4  H   UNL     1     -14.698  14.891  70.220  1.00  0.00     0.000 HD 
ENDROOT
BRANCH   2   5
HETATM    5  C   UNL     1     -12.246  14.120  70.033  1.00  0.00    -0.357 C  
HETATM    6  O   UNL     1     -11.765  12.859  70.493  1.00  0.00    -0.530 OA 
HETATM    7  H   UNL     1     -11.310  12.391  69.801  1.00  0.00     0.000 HD 
ENDBRANCH   2   5
TORSDOF 1
ENDMDL
MODEL       27
REMARK 921   NORMALIZED FREE ENERGY PREDICTED BY IDOCK:   -2.52 KCAL/MOL
REMARK 922        TOTAL FREE ENERGY PREDICTED BY IDOCK:   -2.66 KCAL/MOL
REMARK 923 INTER-LIGAND FREE ENERGY PREDICTED BY IDOCK:   -2.66 KCAL/MOL
REMARK 924 INTRA-LIGAND FREE ENERGY PREDICTED BY IDOCK:    0.00 KCAL/MOL
REMARK 927      BINDING AFFINITY PREDICTED BY RF-SCORE:    0.00 PKD
ROOT
HETATM    1  C   UNL     1     -12.306  13.884  70.309  1.00  0.00    -0.413 C  
HETATM    2  C   UNL     1     -12.644  15.155  71.071  1.00  0.00    -0.377 C  
HETATM    3  O   UNL     1     -14.011  15.490  70.828  1.00  0.00    -0.874 OA 
HETATM    4  H   UNL     1     -14.221  16.284  71.304  1.00  0.00     0.000 HD 
ENDROOT
BRANCH   2   5
HETATM    5  C   UNL     1     -12.383  15.000  72.575  1.00  0.00    -0.357 C  
HETATM    6  O   UNL     1     -13.409  14.232  73.200  1.00  0.00    -0.643 OA 
HETATM    7  H   UNL     1     -13.248  14.136  74.132  1.00  0.00     0.000 HD 
ENDBRANCH   2   5
TORSDOF 1
ENDMDL
MODEL       28
REMARK 921   NORMALIZED FREE ENERGY PREDICTED BY IDOCK:   -2.50 KCAL/MOL
REMARK 922        TOTAL FREE ENERGY PREDICTED BY IDOCK:   -2.65 KCAL/MOL
REMARK 923 INTER-LIGAND FREE ENERGY PREDICTED BY IDOCK:   -2.65 KCAL/MOL
REMARK 924 INTRA-LIGAND FREE ENERGY PREDICTED BY IDOCK:    0.00 KCAL/MOL
REMARK 927      BINDING AFFINITY PREDICTED BY RF-SCORE:    0.00 PKD
ROOT
HETATM    1  C   UNL     1     -10.471  19.646  66.032  1.00  0.00    -0.622 C  
HETATM    2  C   UNL     1      -9.787  20.309  67.216  1.00  0.00    -0.452 C  
HETATM    3  O   UNL     1     -10.334  19.779  68.424  1.00  0.00    -0.444 OA 
HETATM    4  H   UNL     1      -9.906  20.194  69.163  1.00  0.00     0.000 HD 
ENDROOT
BRANCH   2   5
HETATM    5  C   UNL     1      -8.266  20.109  67.177  1.00  0.00    -0.332 C  
HETATM    6  O   UNL     1      -7.583  21.356  67.071  1.00  0.00    -0.799 OA 
HETATM    7  H   UNL     1      -6.641  21.232  67.047  1.00  0.00     0.000 HD 
ENDBRANCH   2   5
TORSDOF 1
ENDMDL
MODEL       29
REMARK 921   NORMALIZED FREE ENERGY PREDICTED BY IDOCK:   -2.49 KCAL/MOL
REMARK 922        TOTAL FREE ENERGY PREDICTED BY IDOCK:   -2.64 KCAL/MOL
REMARK 923 INTER-LIGAND FREE ENERGY PREDICTED BY IDOCK:   -2.64 KCAL/MOL
REMARK 924 INTRA-LIGAND FREE ENERGY PREDICTED BY IDOCK:    0.00 KCAL/MOL
REMARK 927      BINDING AFFINITY PREDICTED BY RF-SCORE:    0.00 PKD
ROOT
HETATM    1  C   UNL     1     -11.197  12.337  63.347  1.00  0.00    -0.497 C  
HETATM    2  C   UNL     1     -11.935  12.773  64.602  1.00  0.00    -0.396 C  
HETATM    3  O   UNL     1     -13.269  12.263  64.556  1.00  0.00    -0.799 OA 
HETATM    4  H   UNL     1     -13.729  12.535  65.340  1.00  0.00     0.000 HD 
ENDROOT
BRANCH   2   5
HETATM    5  C   UNL     1     -11.219  12.300  65.874  1.00  0.00    -0.340 C  
HETATM    6  O   UNL     1     -12.149  12.036  66.923  1.00  0.00    -0.608 OA 
HETATM    7  H   UNL     1     -11.705  11.744  67.711  1.00  0.00     0.000 HD 
ENDBRANCH   2   5
TORSDOF 1
ENDMDL
MODEL       30
REMARK 921   NORMALIZED FREE ENERGY PREDICTED BY IDOCK:   -2.48 KCAL/MOL
REMARK 922        TOTAL FREE ENERGY PREDICTED BY IDOCK:   -2.63 KCAL/MOL
REMARK 923 INTER-LIGAND FREE ENERGY PREDICTED BY IDOCK:   -2.63 KCAL/MOL
REMARK 924 INTRA-LIGAND FREE ENERGY PREDICTED BY IDOCK:    0.00 KCAL/MOL
REMARK 927      BINDING AFFINITY PREDICTED BY RF-SCORE:    0.00 PKD
ROOT
HETATM    1  C   UNL     1     -10.614  19.654  65.745  1.00  0.00    -0.537 C  
HETATM    2  C   UNL     1      -9.619  19.762  66.888  1.00  0.00    -0.377 C  
HETATM    3  O   UNL     1      -9.421  21.142  67.201  1.00  0.00    -0.681 OA 
HETATM    4  H   UNL     1      -8.800  21.209  67.916  1.00  0.00     0.000 HD 
ENDROOT
BRANCH   2   5
HETATM    5  C   UNL     1     -10.092  18.988  68.127  1.00  0.00    -0.395 C  
HETATM    6  O   UNL     1     -10.317  19.865  69.228  1.00  0.00    -0.635 OA 
HETATM    7  H   UNL     1     -10.610  19.386  69.995  1.00  0.00     0.000 HD 
ENDBRANCH   2   5
TORSDOF 1
ENDMDL
MODEL       31
REMARK 921   NORMALIZED FREE ENERGY PREDICTED BY IDOCK:   -2.46 KCAL/MOL
REMARK 922        TOTAL FREE ENERGY PREDICTED BY IDOCK:   -2.60 KCAL/MOL
REMARK 923 INTER-LIGAND FREE ENERGY PREDICTED BY IDOCK:   -2.60 KCAL/MOL
REMARK 924 INTRA-LIGAND FREE ENERGY PREDICTED BY IDOCK:    0.00 KCAL/MOL
REMARK 927      BINDING AFFINITY PREDICTED BY RF-SCORE:    0.00 PKD
ROOT
HETATM    1  C   UNL     1     -12.234  12.249  63.603  1.00  0.00    -0.665 C  
HETATM    2  C   UNL     1     -12.023  13.637  64.186  1.00  0.00    -0.443 C  
HETATM    3  O   UNL     1     -13.050  13.897  65.144  1.00  0.00    -0.773 OA 
HETATM    4  H   UNL     1     -12.917  14.764  65.508  1.00  0.00     0.000 HD 
ENDROOT
BRANCH   2   5
HETATM    5  C   UNL     1     -10.636  13.777  64.828  1.00  0.00    -0.428 C  
HETATM    6  O   UNL     1     -10.619  14.823  65.796  1.00  0.00    -0.295 OA 
HETATM    7  H   UNL     1      -9.759  14.911  66.193  1.00  0.00     0.000 HD 
ENDBRANCH   2   5
TORSDOF 1
ENDMDL
MODEL       32
REMARK 921   NORMALIZED FREE ENERGY PREDICTED BY IDOCK:   -2.42 KCAL/MOL
REMARK 922        TOTAL FREE ENERGY PREDICTED BY IDOCK:   -2.56 KCAL/MOL
REMARK 923 INTER-LIGAND FREE ENERGY PREDICTED BY IDOCK:   -2.56 KCAL/MOL
REMARK 924 INTRA-LIGAND FREE ENERGY PREDICTED BY IDOCK:    0.00 KCAL/MOL
REMARK 927      BINDING AFFINITY PREDICTED BY RF-SCORE:    0.00 PKD
ROOT
HETATM    1  C   UNL     1     -14.353   7.436  71.576  1.00  0.00    -0.594 C  
HETATM    2  C   UNL     1     -12.841   7.565  71.660  1.00  0.00    -0.358 C  
HETATM    3  O   UNL     1     -12.272   7.158  70.416  1.00  0.00    -0.574 OA 
HETATM    4  H   UNL     1     -11.327   7.239  70.469  1.00  0.00     0.000 HD 
ENDROOT
BRANCH   2   5
HETATM    5  C   UNL     1     -12.413   8.997  72.010  1.00  0.00    -0.390 C  
HETATM    6  O   UNL     1     -13.476   9.716  72.630  1.00  0.00    -0.642 OA 
HETATM    7  H   UNL     1     -13.211  10.603  72.846  1.00  0.00     0.000 HD 
ENDBRANCH   2   5
TORSDOF 1
ENDMDL
MODEL       33
REMARK 921   NORMALIZED FREE ENERGY PREDICTED BY IDOCK:   -2.41 KCAL/MOL
REMARK 922        TOTAL FREE ENERGY PREDICTED BY IDOCK:   -2.56 KCAL/MOL
REMARK 923 INTER-LIGAND FREE ENERGY PREDICTED BY IDOCK:   -2.56 KCAL/MOL
REMARK 924 INTRA-LIGAND FREE ENERGY PREDICTED BY IDOCK:    0.00 KCAL/MOL
REMARK 927      BINDING AFFINITY PREDICTED BY RF-SCORE:    0.00 PKD
ROOT
HETATM    1  C   UNL     1     -11.991  14.183  67.053  1.00  0.00    -0.471 C  
HETATM    2  C   UNL     1     -11.604  13.117  66.041  1.00  0.00    -0.353 C  
HETATM    3  O   UNL     1     -11.974  11.837  66.553  1.00  0.00    -0.545 OA 
HETATM    4  H   UNL     1     -11.732  11.171  65.920  1.00  0.00     0.000 HD 
ENDROOT
BRANCH   2   5
HETATM    5  C   UNL     1     -12.261  13.366  64.676  1.00  0.00    -0.407 C  
HETATM    6  O   UNL     1     -13.399  12.527  64.491  1.00  0.00    -0.780 OA 
HETATM    7  H   UNL     1     -13.806  12.681  63.646  1.00  0.00     0.000 HD 
ENDBRANCH   2   5
TORSDOF 1
ENDMDL
MODEL       34
REMARK 921   NORMALIZED FREE ENERGY PREDICTED BY IDOCK:   -2.40 KCAL/MOL
REMARK 922        TOTAL FREE ENERGY PREDICTED BY IDOCK:   -2.54 KCAL/MOL
REMARK 923 INTER-LIGAND FREE ENERGY PREDICTED BY IDOCK:   -2.54 KCAL/MOL
REMARK 924 INTRA-LIGAND FREE ENERGY PREDICTED BY IDOCK:    0.00 KCAL/MOL
REMARK 927      BINDING AFFINITY PREDICTED BY RF-SCORE:    0.00 PKD
ROOT
HETATM    1  C   UNL     1     -10.639  17.065  67.078  1.00  0.00    -0.226 C  
HETATM    2  C   UNL     1     -10.298  17.989  65.921  1.00  0.00    -0.271 C  
HETATM    3  O   UNL     1     -11.010  17.559  64.760  1.00  0.00    -0.950 OA 
HETATM    4  H   UNL     1     -10.796  18.137  64.037  1.00  0.00     0.000 HD 
ENDROOT
BRANCH   2   5
HETATM    5  C   UNL     1     -10.626  19.452  66.248  1.00  0.00    -0.475 C  
HETATM    6  O   UNL     1      -9.550  20.315  65.889  1.00  0.00    -0.615 OA 
HETATM    7  H   UNL     1      -9.753  21.222  66.091  1.00  0.00     0.000 HD 
ENDBRANCH   2   5
TORSDOF 1
ENDMDL
MODEL       35
REMARK 921   NORMALIZED FREE ENERGY PREDICTED BY IDOCK:   -2.38 KCAL/MOL
REMARK 922        TOTAL FREE ENERGY PREDICTED BY IDOCK:   -2.52 KCAL/MOL
REMARK 923 INTER-LIGAND FREE ENERGY PREDICTED BY IDOCK:   -2.52 KCAL/MOL
REMARK 924 INTRA-LIGAND FREE ENERGY PREDICTED BY IDOCK:    0.00 KCAL/MOL
REMARK 927      BINDING AFFINITY PREDICTED BY RF-SCORE:    0.00 PKD
ROOT
HETATM    1  C   UNL     1     -12.254  13.014  70.249  1.00  0.00    -0.368 C  
HETATM    2  C   UNL     1     -11.843  14.310  69.571  1.00  0.00    -0.329 C  
HETATM    3  O   UNL     1     -12.475  14.383  68.292  1.00  0.00    -0.587 OA 
HETATM    4  H   UNL     1     -12.218  15.193  67.868  1.00  0.00     0.000 HD 
ENDROOT
BRANCH   2   5
HETATM    5  C   UNL     1     -12.200  15.535  70.423  1.00  0.00    -0.406 C  
HETATM    6  O   UNL     1     -13.612  15.670  70.566  1.00  0.00    -0.833 OA 
HETATM    7  H   UNL     1     -13.834  16.429  71.094  1.00  0.00     0.000 HD 
ENDBRANCH   2   5
TORSDOF 1
ENDMDL
MODEL       36
REMARK 921   NORMALIZED FREE ENERGY PREDICTED BY IDOCK:   -2.38 KCAL/MOL
REMARK 922        TOTAL FREE ENERGY PREDICTED BY IDOCK:   -2.52 KCAL/MOL
REMARK 923 INTER-LIGAND FREE ENERGY PREDICTED BY IDOCK:   -2.52 KCAL/MOL
REMARK 924 INTRA-LIGAND FREE ENERGY PREDICTED BY IDOCK:    0.00 KCAL/MOL
REMARK 927      BINDING AFFINITY PREDICTED BY RF-SCORE:    0.00 PKD
ROOT
HETATM    1  C   UNL     1     -10.827  19.244  67.437  1.00  0.00    -0.554 C  
HETATM    2  C   UNL     1      -9.612  19.501  66.562  1.00  0.00    -0.378 C  
HETATM    3  O   UNL     1      -9.920  20.545  65.637  1.00  0.00    -0.573 OA 
HETATM    4  H   UNL     1      -9.161  20.705  65.090  1.00  0.00     0.000 HD 
ENDROOT
BRANCH   2   5
HETATM    5  C   UNL     1      -8.377  19.864  67.397  1.00  0.00    -0.322 C  
HETATM    6  O   UNL     1      -7.990  21.219  67.183  1.00  0.00    -0.693 OA 
HETATM    7  H   UNL     1      -7.225  21.445  67.700  1.00  0.00     0.000 HD 
ENDBRANCH   2   5
TORSDOF 1
ENDMDL
MODEL       37
REMARK 921   NORMALIZED FREE ENERGY PREDICTED BY IDOCK:   -2.37 KCAL/MOL
REMARK 922        TOTAL FREE ENERGY PREDICTED BY IDOCK:   -2.51 KCAL/MOL
REMARK 923 INTER-LIGAND FREE ENERGY PREDICTED BY IDOCK:   -2.51 KCAL/MOL
REMARK 924 INTRA-LIGAND FREE ENERGY PREDICTED BY IDOCK:    0.00 KCAL/MOL
REMARK 927      BINDING AFFINITY PREDICTED BY RF-SCORE:    0.00 PKD
ROOT
HETATM    1  C   UNL     1     -13.259   9.125  72.299  1.00  0.00    -0.528 C  
HETATM    2  C   UNL     1     -13.245  10.301  71.337  1.00  0.00    -0.370 C  
HETATM    3  O   UNL     1     -13.322  11.514  72.087  1.00  0.00    -0.581 OA 
HETATM    4  H   UNL     1     -13.313  12.248  71.485  1.00  0.00     0.000 HD 
ENDROOT
BRANCH   2   5
HETATM    5  C   UNL     1     -11.994  10.292  70.448  1.00  0.00    -0.303 C  
HETATM    6  O   UNL     1     -12.314  10.640  69.103  1.00  0.00    -0.725 OA 
HETATM    7  H   UNL     1     -11.539  10.635  68.552  1.00  0.00     0.000 HD 
ENDBRANCH   2   5
TORSDOF 1
ENDMDL
MODEL       38
REMARK 921   NORMALIZED FREE ENERGY PREDICTED BY IDOCK:   -2.37 KCAL/MOL
REMARK 922        TOTAL FREE ENERGY PREDICTED BY IDOCK:   -2.51 KCAL/MOL
REMARK 923 INTER-LIGAND FREE ENERGY PREDICTED BY IDOCK:   -2.51 KCAL/MOL
REMARK 924 INTRA-LIGAND FREE ENERGY PREDICTED BY IDOCK:    0.00 KCAL/MOL
REMARK 927      BINDING AFFINITY PREDICTED BY RF-SCORE:    0.00 PKD
ROOT
HETATM    1  C   UNL     1     -12.905  11.009  71.399  1.00  0.00    -0.548 C  
HETATM    2  C   UNL     1     -13.068   9.569  71.858  1.00  0.00    -0.428 C  
HETATM    3  O   UNL     1     -13.795   8.846  70.863  1.00  0.00    -0.571 OA 
HETATM    4  H   UNL     1     -13.896   7.947  71.150  1.00  0.00     0.000 HD 
ENDROOT
BRANCH   2   5
HETATM    5  C   UNL     1     -11.712   8.903  72.129  1.00  0.00    -0.341 C  
HETATM    6  O   UNL     1     -11.851   7.792  73.011  1.00  0.00    -0.617 OA 
HETATM    7  H   UNL     1     -11.011   7.379  73.180  1.00  0.00     0.000 HD 
ENDBRANCH   2   5
TORSDOF 1
ENDMDL
MODEL       39
REMARK 921   NORMALIZED FREE ENERGY PREDICTED BY IDOCK:   -2.36 KCAL/MOL
REMARK 922        TOTAL FREE ENERGY PREDICTED BY IDOCK:   -2.50 KCAL/MOL
REMARK 923 INTER-LIGAND FREE ENERGY PREDICTED BY IDOCK:   -2.50 KCAL/MOL
REMARK 924 INTRA-LIGAND FREE ENERGY PREDICTED BY IDOCK:    0.00 KCAL/MOL
REMARK 927      BINDING AFFINITY PREDICTED BY RF-SCORE:    0.00 PKD
ROOT
HETATM    1  C   UNL     1     -11.892  14.267  67.097  1.00  0.00    -0.454 C  
HETATM    2  C   UNL     1     -11.289  13.201  66.197  1.00  0.00    -0.312 C  
HETATM    3  O   UNL     1     -11.999  11.977  66.390  1.00  0.00    -0.611 OA 
HETATM    4  H   UNL     1     -11.622  11.312  65.828  1.00  0.00     0.000 HD 
ENDROOT
BRANCH   2   5
HETATM    5  C   UNL     1     -11.323  13.620  64.721  1.00  0.00    -0.354 C  
HETATM    6  O   UNL     1     -10.028  13.535  64.131  1.00  0.00    -0.766 OA 
HETATM    7  H   UNL     1     -10.048  13.795  63.216  1.00  0.00     0.000 HD 
ENDBRANCH   2   5
TORSDOF 1
ENDMDL
MODEL       40
REMARK 921   NORMALIZED FREE ENERGY PREDICTED BY IDOCK:   -2.35 KCAL/MOL
REMARK 922        TOTAL FREE ENERGY PREDICTED BY IDOCK:   -2.48 KCAL/MOL
REMARK 923 INTER-LIGAND FREE ENERGY PREDICTED BY IDOCK:   -2.48 KCAL/MOL
REMARK 924 INTRA-LIGAND FREE ENERGY PREDICTED BY IDOCK:    0.00 KCAL/MOL
REMARK 927      BINDING AFFINITY PREDICTED BY RF-SCORE:    0.00 PKD
ROOT
HETATM    1  C   UNL     1     -12.273  13.473  69.879  1.00  0.00    -0.356 C  
HETATM    2  C   UNL     1     -12.407  13.934  71.321  1.00  0.00    -0.335 C  
HETATM    3  O   UNL     1     -11.387  14.894  71.596  1.00  0.00    -0.530 OA 
HETATM    4  H   UNL     1     -11.471  15.182  72.497  1.00  0.00     0.000 HD 
ENDROOT
BRANCH   2   5
HETATM    5  C   UNL     1     -13.796  14.523  71.601  1.00  0.00    -0.434 C  
HETATM    6  O   UNL     1     -14.071  15.627  70.741  1.00  0.00    -0.828 OA 
HETATM    7  H   UNL     1     -14.932  15.992  70.914  1.00  0.00     0.000 HD 
ENDBRANCH   2   5
TORSDOF 1
ENDMDL
MODEL       41
REMARK 921   NORMALIZED FREE ENERGY PREDICTED BY IDOCK:   -2.34 KCAL/MOL
REMARK 922        TOTAL FREE ENERGY PREDICTED BY IDOCK:   -2.48 KCAL/MOL
REMARK 923 INTER-LIGAND FREE ENERGY PREDICTED BY IDOCK:   -2.48 KCAL/MOL
REMARK 924 INTRA-LIGAND FREE ENERGY PREDICTED BY IDOCK:    0.00 KCAL/MOL
REMARK 927      BINDING AFFINITY PREDICTED BY RF-SCORE:    0.00 PKD
ROOT
HETATM    1  C   UNL     1      -8.404  19.126  68.180  1.00  0.00    -0.351 C  
HETATM    2  C   UNL     1      -9.923  19.076  68.183  1.00  0.00    -0.382 C  
HETATM    3  O   UNL     1     -10.405  19.723  69.361  1.00  0.00    -0.638 OA 
HETATM    4  H   UNL     1     -11.354  19.691  69.362  1.00  0.00     0.000 HD 
ENDROOT
BRANCH   2   5
HETATM    5  C   UNL     1     -10.514  19.729  66.926  1.00  0.00    -0.472 C  
HETATM    6  O   UNL     1      -9.525  20.471  66.216  1.00  0.00    -0.632 OA 
HETATM    7  H   UNL     1      -9.891  20.876  65.438  1.00  0.00     0.000 HD 
ENDBRANCH   2   5
TORSDOF 1
ENDMDL
MODEL       42
REMARK 921   NORMALIZED FREE ENERGY PREDICTED BY IDOCK:   -2.31 KCAL/MOL
REMARK 922        TOTAL FREE ENERGY PREDICTED BY IDOCK:   -2.45 KCAL/MOL
REMARK 923 INTER-LIGAND FREE ENERGY PREDICTED BY IDOCK:   -2.45 KCAL/MOL
REMARK 924 INTRA-LIGAND FREE ENERGY PREDICTED BY IDOCK:    0.00 KCAL/MOL
REMARK 927      BINDING AFFINITY PREDICTED BY RF-SCORE:    0.00 PKD
ROOT
HETATM    1  C   UNL     1     -10.866  15.541  66.214  1.00  0.00    -0.283 C  
HETATM    2  C   UNL     1     -10.462  16.810  65.482  1.00  0.00    -0.237 C  
HETATM    3  O   UNL     1     -11.258  16.938  64.304  1.00  0.00    -1.325 OA 
HETATM    4  H   UNL     1     -11.005  17.731  63.847  1.00  0.00     0.000 HD 
ENDROOT
BRANCH   2   5
HETATM    5  C   UNL     1     -10.610  18.051  66.374  1.00  0.00    -0.250 C  
HETATM    6  O   UNL     1     -10.510  17.709  67.755  1.00  0.00    -0.351 OA 
HETATM    7  H   UNL     1     -10.603  18.477  68.307  1.00  0.00     0.000 HD 
ENDBRANCH   2   5
TORSDOF 1
ENDMDL
MODEL       43
REMARK 921   NORMALIZED FREE ENERGY PREDICTED BY IDOCK:   -2.30 KCAL/MOL
REMARK 922        TOTAL FREE ENERGY PREDICTED BY IDOCK:   -2.44 KCAL/MOL
REMARK 923 INTER-LIGAND FREE ENERGY PREDICTED BY IDOCK:   -2.44 KCAL/MOL
REMARK 924 INTRA-LIGAND FREE ENERGY PREDICTED BY IDOCK:    0.00 KCAL/MOL
REMARK 927      BINDING AFFINITY PREDICTED BY RF-SCORE:    0.00 PKD
ROOT
HETATM    1  C   UNL     1      -9.753  11.938  65.378  1.00  0.00    -0.228 C  
HETATM    2  C   UNL     1     -10.699  12.901  64.679  1.00  0.00    -0.353 C  
HETATM    3  O   UNL     1     -10.007  14.124  64.421  1.00  0.00    -0.674 OA 
HETATM    4  H   UNL     1     -10.599  14.725  63.985  1.00  0.00     0.000 HD 
ENDROOT
BRANCH   2   5
HETATM    5  C   UNL     1     -11.254  12.307  63.378  1.00  0.00    -0.420 C  
HETATM    6  O   UNL     1     -10.599  11.084  63.048  1.00  0.00    -0.759 OA 
HETATM    7  H   UNL     1     -10.943  10.716  62.242  1.00  0.00     0.000 HD 
ENDBRANCH   2   5
TORSDOF 1
ENDMDL
MODEL       44
REMARK 921   NORMALIZED FREE ENERGY PREDICTED BY IDOCK:   -2.26 KCAL/MOL
REMARK 922        TOTAL FREE ENERGY PREDICTED BY IDOCK:   -2.39 KCAL/MOL
REMARK 923 INTER-LIGAND FREE ENERGY PREDICTED BY IDOCK:   -2.39 KCAL/MOL
REMARK 924 INTRA-LIGAND FREE ENERGY PREDICTED BY IDOCK:    0.00 KCAL/MOL
REMARK 927      BINDING AFFINITY PREDICTED BY RF-SCORE:    0.00 PKD
ROOT
HETATM    1  C   UNL     1      -9.882  11.925  63.275  1.00  0.00    -0.354 C  
HETATM    2  C   UNL     1     -11.069  11.504  64.126  1.00  0.00    -0.344 C  
HETATM    3  O   UNL     1     -10.831  11.896  65.478  1.00  0.00    -0.280 OA 
HETATM    4  H   UNL     1     -11.573  11.633  66.009  1.00  0.00     0.000 HD 
ENDROOT
BRANCH   2   5
HETATM    5  C   UNL     1     -12.381  12.110  63.609  1.00  0.00    -0.568 C  
HETATM    6  O   UNL     1     -13.208  12.545  64.686  1.00  0.00    -0.848 OA 
HETATM    7  H   UNL     1     -14.021  12.920  64.366  1.00  0.00     0.000 HD 
ENDBRANCH   2   5
TORSDOF 1
ENDMDL
MODEL       45
REMARK 921   NORMALIZED FREE ENERGY PREDICTED BY IDOCK:   -2.24 KCAL/MOL
REMARK 922        TOTAL FREE ENERGY PREDICTED BY IDOCK:   -2.38 KCAL/MOL
REMARK 923 INTER-LIGAND FREE ENERGY PREDICTED BY IDOCK:   -2.38 KCAL/MOL
REMARK 924 INTRA-LIGAND FREE ENERGY PREDICTED BY IDOCK:    0.00 KCAL/MOL
REMARK 927      BINDING AFFINITY PREDICTED BY RF-SCORE:    0.00 PKD
ROOT
HETATM    1  C   UNL     1     -10.763  19.264  67.526  1.00  0.00    -0.571 C  
HETATM    2  C   UNL     1     -10.110  18.126  66.759  1.00  0.00    -0.362 C  
HETATM    3  O   UNL     1     -10.689  18.055  65.455  1.00  0.00    -0.632 OA 
HETATM    4  H   UNL     1     -10.280  17.344  64.976  1.00  0.00     0.000 HD 
ENDROOT
BRANCH   2   5
HETATM    5  C   UNL     1      -8.588  18.304  66.667  1.00  0.00    -0.273 C  
HETATM    6  O   UNL     1      -8.022  17.413  65.709  1.00  0.00    -0.538 OA 
HETATM    7  H   UNL     1      -7.079  17.523  65.652  1.00  0.00     0.000 HD 
ENDBRANCH   2   5
TORSDOF 1
ENDMDL
MODEL       46
REMARK 921   NORMALIZED FREE ENERGY PREDICTED BY IDOCK:   -2.24 KCAL/MOL
REMARK 922        TOTAL FREE ENERGY PREDICTED BY IDOCK:   -2.37 KCAL/MOL
REMARK 923 INTER-LIGAND FREE ENERGY PREDICTED BY IDOCK:   -2.37 KCAL/MOL
REMARK 924 INTRA-LIGAND FREE ENERGY PREDICTED BY IDOCK:    0.00 KCAL/MOL
REMARK 927      BINDING AFFINITY PREDICTED BY RF-SCORE:    0.00 PKD
ROOT
HETATM    1  C   UNL     1     -12.157  12.544  63.819  1.00  0.00    -0.615 C  
HETATM    2  C   UNL     1     -10.649  12.365  63.887  1.00  0.00    -0.437 C  
HETATM    3  O   UNL     1     -10.041  13.641  64.093  1.00  0.00    -0.757 OA 
HETATM    4  H   UNL     1      -9.099  13.529  64.135  1.00  0.00     0.000 HD 
ENDROOT
BRANCH   2   5
HETATM    5  C   UNL     1     -10.243  11.386  64.997  1.00  0.00    -0.281 C  
HETATM    6  O   UNL     1     -11.149  11.448  66.096  1.00  0.00    -0.278 OA 
HETATM    7  H   UNL     1     -10.898  10.842  66.784  1.00  0.00     0.000 HD 
ENDBRANCH   2   5
TORSDOF 1
ENDMDL
MODEL       47
REMARK 921   NORMALIZED FREE ENERGY PREDICTED BY IDOCK:   -2.22 KCAL/MOL
REMARK 922        TOTAL FREE ENERGY PREDICTED BY IDOCK:   -2.35 KCAL/MOL
REMARK 923 INTER-LIGAND FREE ENERGY PREDICTED BY IDOCK:   -2.35 KCAL/MOL
REMARK 924 INTRA-LIGAND FREE ENERGY PREDICTED BY IDOCK:    0.00 KCAL/MOL
REMARK 927      BINDING AFFINITY PREDICTED BY RF-SCORE:    0.00 PKD
ROOT
HETATM    1  C   UNL     1     -10.392  19.741  66.531  1.00  0.00    -0.621 C  
HETATM    2  C   UNL     1     -10.526  18.233  66.665  1.00  0.00    -0.360 C  
HETATM    3  O   UNL     1      -9.698  17.606  65.685  1.00  0.00    -0.525 OA 
HETATM    4  H   UNL     1      -9.782  16.664  65.769  1.00  0.00     0.000 HD 
ENDROOT
BRANCH   2   5
HETATM    5  C   UNL     1     -10.156  17.754  68.075  1.00  0.00    -0.355 C  
HETATM    6  O   UNL     1     -10.341  18.790  69.037  1.00  0.00    -0.489 OA 
HETATM    7  H   UNL     1     -10.111  18.494  69.911  1.00  0.00     0.000 HD 
ENDBRANCH   2   5
TORSDOF 1
ENDMDL
MODEL       48
REMARK 921   NORMALIZED FREE ENERGY PREDICTED BY IDOCK:   -2.21 KCAL/MOL
REMARK 922        TOTAL FREE ENERGY PREDICTED BY IDOCK:   -2.34 KCAL/MOL
REMARK 923 INTER-LIGAND FREE ENERGY PREDICTED BY IDOCK:   -2.34 KCAL/MOL
REMARK 924 INTRA-LIGAND FREE ENERGY PREDICTED BY IDOCK:    0.00 KCAL/MOL
REMARK 927      BINDING AFFINITY PREDICTED BY RF-SCORE:    0.00 PKD
ROOT
HETATM    1  C   UNL     1     -12.504   9.382  71.399  1.00  0.00    -0.435 C  
HETATM    2  C   UNL     1     -12.832   7.931  71.708  1.00  0.00    -0.328 C  
HETATM    3  O   UNL     1     -14.115   7.620  71.164  1.00  0.00    -0.630 OA 
HETATM    4  H   UNL     1     -14.319   6.713  71.357  1.00  0.00     0.000 HD 
ENDROOT
BRANCH   2   5
HETATM    5  C   UNL     1     -11.763   6.978  71.154  1.00  0.00    -0.325 C  
HETATM    6  O   UNL     1     -11.896   6.818  69.744  1.00  0.00    -0.627 OA 
HETATM    7  H   UNL     1     -11.235   6.228  69.400  1.00  0.00     0.000 HD 
ENDBRANCH   2   5
TORSDOF 1
ENDMDL
MODEL       49
REMARK 921   NORMALIZED FREE ENERGY PREDICTED BY IDOCK:   -2.21 KCAL/MOL
REMARK 922        TOTAL FREE ENERGY PREDICTED BY IDOCK:   -2.34 KCAL/MOL
REMARK 923 INTER-LIGAND FREE ENERGY PREDICTED BY IDOCK:   -2.34 KCAL/MOL
REMARK 924 INTRA-LIGAND FREE ENERGY PREDICTED BY IDOCK:    0.00 KCAL/MOL
REMARK 927      BINDING AFFINITY PREDICTED BY RF-SCORE:    0.00 PKD
ROOT
HETATM    1  C   UNL     1     -10.347  19.163  66.270  1.00  0.00    -0.553 C  
HETATM    2  C   UNL     1     -10.115  17.692  66.571  1.00  0.00    -0.350 C  
HETATM    3  O   UNL     1     -10.735  17.371  67.818  1.00  0.00    -0.373 OA 
HETATM    4  H   UNL     1     -10.589  16.452  68.006  1.00  0.00     0.000 HD 
ENDROOT
BRANCH   2   5
HETATM    5  C   UNL     1     -10.655  16.791  65.451  1.00  0.00    -0.203 C  
HETATM    6  O   UNL     1     -11.226  17.564  64.398  1.00  0.00    -0.860 OA 
HETATM    7  H   UNL     1     -11.561  17.007  63.705  1.00  0.00     0.000 HD 
ENDBRANCH   2   5
TORSDOF 1
ENDMDL
MODEL       50
REMARK 921   NORMALIZED FREE ENERGY PREDICTED BY IDOCK:   -2.20 KCAL/MOL
REMARK 922        TOTAL FREE ENERGY PREDICTED BY IDOCK:   -2.33 KCAL/MOL
REMARK 923 INTER-LIGAND FREE ENERGY PREDICTED BY IDOCK:   -2.33 KCAL/MOL
REMARK 924 INTRA-LIGAND FREE ENERGY PREDICTED BY IDOCK:    0.00 KCAL/MOL
REMARK 927      BINDING AFFINITY PREDICTED BY RF-SCORE:    0.00 PKD
ROOT
HETATM    1  C   UNL     1     -12.930  13.117  71.696  1.00  0.00    -0.429 C  
HETATM    2  C   UNL     1     -12.339  12.766  70.341  1.00  0.00    -0.247 C  
HETATM    3  O   UNL     1     -11.165  13.552  70.130  1.00  0.00    -0.483 OA 
HETATM    4  H   UNL     1     -10.796  13.332  69.283  1.00  0.00     0.000 HD 
ENDROOT
BRANCH   2   5
HETATM    5  C   UNL     1     -12.015  11.269  70.234  1.00  0.00    -0.379 C  
HETATM    6  O   UNL     1     -12.309  10.770  68.931  1.00  0.00    -0.788 OA 
HETATM    7  H   UNL     1     -12.109   9.843  68.864  1.00  0.00     0.000 HD 
ENDBRANCH   2   5
TORSDOF 1
ENDMDL
MODEL       51
REMARK 921   NORMALIZED FREE ENERGY PREDICTED BY IDOCK:   -2.19 KCAL/MOL
REMARK 922        TOTAL FREE ENERGY PREDICTED BY IDOCK:   -2.31 KCAL/MOL
REMARK 923 INTER-LIGAND FREE ENERGY PREDICTED BY IDOCK:   -2.31 KCAL/MOL
REMARK 924 INTRA-LIGAND FREE ENERGY PREDICTED BY IDOCK:    0.00 KCAL/MOL
REMARK 927      BINDING AFFINITY PREDICTED BY RF-SCORE:    0.00 PKD
ROOT
HETATM    1  C   UNL     1     -10.257  11.003  66.549  1.00  0.00    -0.280 C  
HETATM    2  C   UNL     1     -11.156  12.103  67.089  1.00  0.00    -0.291 C  
HETATM    3  O   UNL     1     -12.238  12.305  66.179  1.00  0.00    -0.647 OA 
HETATM    4  H   UNL     1     -12.799  12.992  66.516  1.00  0.00     0.000 HD 
ENDROOT
BRANCH   2   5
HETATM    5  C   UNL     1     -11.684  11.767  68.491  1.00  0.00    -0.330 C  
HETATM    6  O   UNL     1     -12.103  10.406  68.572  1.00  0.00    -0.767 OA 
HETATM    7  H   UNL     1     -12.430  10.198  69.440  1.00  0.00     0.000 HD 
ENDBRANCH   2   5
TORSDOF 1
ENDMDL
MODEL       52
REMARK 921   NORMALIZED FREE ENERGY PREDICTED BY IDOCK:   -2.18 KCAL/MOL
REMARK 922        TOTAL FREE ENERGY PREDICTED BY IDOCK:   -2.31 KCAL/MOL
REMARK 923 INTER-LIGAND FREE ENERGY PREDICTED BY IDOCK:   -2.31 KCAL/MOL
REMARK 924 INTRA-LIGAND FREE ENERGY PREDICTED BY IDOCK:    0.00 KCAL/MOL
REMARK 927      BINDING AFFINITY PREDICTED BY RF-SCORE:    0.00 PKD
ROOT
HETATM    1  C   UNL     1      -8.531  17.988  66.434  1.00  0.00    -0.262 C  
HETATM    2  C   UNL     1      -9.077  19.401  66.559  1.00  0.00    -0.356 C  
HETATM    3  O   UNL     1      -8.204  20.297  65.872  1.00  0.00    -0.547 OA 
HETATM    4  H   UNL     1      -8.545  21.180  65.950  1.00  0.00     0.000 HD 
ENDROOT
BRANCH   2   5
HETATM    5  C   UNL     1     -10.506  19.508  66.009  1.00  0.00    -0.516 C  
HETATM    6  O   UNL     1     -10.824  18.392  65.180  1.00  0.00    -0.630 OA 
HETATM    7  H   UNL     1     -11.709  18.458  64.839  1.00  0.00     0.000 HD 
ENDBRANCH   2   5
TORSDOF 1
ENDMDL
MODEL       53
REMARK 921   NORMALIZED FREE ENERGY PREDICTED BY IDOCK:   -2.15 KCAL/MOL
REMARK 922        TOTAL FREE ENERGY PREDICTED BY IDOCK:   -2.28 KCAL/MOL
REMARK 923 INTER-LIGAND FREE ENERGY PREDICTED BY IDOCK:   -2.28 KCAL/MOL
REMARK 924 INTRA-LIGAND FREE ENERGY PREDICTED BY IDOCK:    0.00 KCAL/MOL
REMARK 927      BINDING AFFINITY PREDICTED BY RF-SCORE:    0.00 PKD
ROOT
HETATM    1  C   UNL     1     -10.991  14.370  66.221  1.00  0.00    -0.318 C  
HETATM    2  C   UNL     1     -12.128  13.661  66.936  1.00  0.00    -0.386 C  
HETATM    3  O   UNL     1     -12.118  12.281  66.567  1.00  0.00    -0.616 OA 
HETATM    4  H   UNL     1     -12.829  11.838  67.015  1.00  0.00     0.000 HD 
ENDROOT
BRANCH   2   5
HETATM    5  C   UNL     1     -12.024  13.815  68.460  1.00  0.00    -0.367 C  
HETATM    6  O   UNL     1     -12.329  15.147  68.866  1.00  0.00    -0.589 OA 
HETATM    7  H   UNL     1     -12.264  15.243  69.809  1.00  0.00     0.000 HD 
ENDBRANCH   2   5
TORSDOF 1
ENDMDL
MODEL       54
REMARK 921   NORMALIZED FREE ENERGY PREDICTED BY IDOCK:   -2.13 KCAL/MOL
REMARK 922        TOTAL FREE ENERGY PREDICTED BY IDOCK:   -2.26 KCAL/MOL
REMARK 923 INTER-LIGAND FREE ENERGY PREDICTED BY IDOCK:   -2.26 KCAL/MOL
REMARK 924 INTRA-LIGAND FREE ENERGY PREDICTED BY IDOCK:    0.00 KCAL/MOL
REMARK 927      BINDING AFFINITY PREDICTED BY RF-SCORE:    0.00 PKD
ROOT
HETATM    1  C   UNL     1     -10.588  11.716  65.142  1.00  0.00    -0.343 C  
HETATM    2  C   UNL     1     -10.756  11.494  63.648  1.00  0.00    -0.424 C  
HETATM    3  O   UNL     1     -11.316  12.671  63.066  1.00  0.00    -0.753 OA 
HETATM    4  H   UNL     1     -11.422  12.532  62.132  1.00  0.00     0.000 HD 
ENDROOT
BRANCH   2   5
HETATM    5  C   UNL     1      -9.424  11.137  62.974  1.00  0.00    -0.369 C  
HETATM    6  O   UNL     1      -8.378  11.007  63.935  1.00  0.00    -0.369 OA 
HETATM    7  H   UNL     1      -7.553  10.786  63.517  1.00  0.00     0.000 HD 
ENDBRANCH   2   5
TORSDOF 1
ENDMDL
MODEL       55
REMARK 921   NORMALIZED FREE ENERGY PREDICTED BY IDOCK:   -2.12 KCAL/MOL
REMARK 922        TOTAL FREE ENERGY PREDICTED BY IDOCK:   -2.24 KCAL/MOL
REMARK 923 INTER-LIGAND FREE ENERGY PREDICTED BY IDOCK:   -2.24 KCAL/MOL
REMARK 924 INTRA-LIGAND FREE ENERGY PREDICTED BY IDOCK:    0.00 KCAL/MOL
REMARK 927      BINDING AFFINITY PREDICTED BY RF-SCORE:    0.00 PKD
ROOT
HETATM    1  C   UNL     1     -10.816   7.379  72.965  1.00  0.00    -0.423 C  
HETATM    2  C   UNL     1     -11.412   6.322  72.051  1.00  0.00    -0.310 C  
HETATM    3  O   UNL     1     -12.140   5.382  72.843  1.00  0.00    -0.513 OA 
HETATM    4  H   UNL     1     -12.512   4.722  72.272  1.00  0.00     0.000 HD 
ENDROOT
BRANCH   2   5
HETATM    5  C   UNL     1     -12.318   6.943  70.979  1.00  0.00    -0.351 C  
HETATM    6  O   UNL     1     -11.901   6.566  69.669  1.00  0.00    -0.645 OA 
HETATM    7  H   UNL     1     -12.461   6.952  69.005  1.00  0.00     0.000 HD 
ENDBRANCH   2   5
TORSDOF 1
ENDMDL
MODEL       56
REMARK 921   NORMALIZED FREE ENERGY PREDICTED BY IDOCK:   -2.08 KCAL/MOL
REMARK 922        TOTAL FREE ENERGY PREDICTED BY IDOCK:   -2.20 KCAL/MOL
REMARK 923 INTER-LIGAND FREE ENERGY PREDICTED BY IDOCK:   -2.20 KCAL/MOL
REMARK 924 INTRA-LIGAND FREE ENERGY PREDICTED BY IDOCK:    0.00 KCAL/MOL
REMARK 927      BINDING AFFINITY PREDICTED BY RF-SCORE:    0.00 PKD
ROOT
HETATM    1  C   UNL     1     -11.754  13.311  67.603  1.00  0.00    -0.408 C  
HETATM    2  C   UNL     1     -10.964  12.848  68.816  1.00  0.00    -0.254 C  
HETATM    3  O   UNL     1     -11.291  13.684  69.927  1.00  0.00    -0.449 OA 
HETATM    4  H   UNL     1     -10.798  13.394  70.685  1.00  0.00     0.000 HD 
ENDROOT
BRANCH   2   5
HETATM    5  C   UNL     1     -11.243  11.375  69.145  1.00  0.00    -0.272 C  
HETATM    6  O   UNL     1     -12.204  10.820  68.251  1.00  0.00    -0.815 OA 
HETATM    7  H   UNL     1     -12.377   9.907  68.455  1.00  0.00     0.000 HD 
ENDBRANCH   2   5
TORSDOF 1
ENDMDL
MODEL       57
REMARK 921   NORMALIZED FREE ENERGY PREDICTED BY IDOCK:   -2.04 KCAL/MOL
REMARK 922        TOTAL FREE ENERGY PREDICTED BY IDOCK:   -2.16 KCAL/MOL
REMARK 923 INTER-LIGAND FREE ENERGY PREDICTED BY IDOCK:   -2.16 KCAL/MOL
REMARK 924 INTRA-LIGAND FREE ENERGY PREDICTED BY IDOCK:    0.00 KCAL/MOL
REMARK 927      BINDING AFFINITY PREDICTED BY RF-SCORE:    0.00 PKD
ROOT
HETATM    1  C   UNL     1     -11.960  15.621  72.992  1.00  0.00    -0.590 C  
HETATM    2  C   UNL     1     -11.971  14.946  71.630  1.00  0.00    -0.363 C  
HETATM    3  O   UNL     1     -13.325  14.738  71.228  1.00  0.00    -0.359 OA 
HETATM    4  H   UNL     1     -13.331  14.316  70.377  1.00  0.00     0.000 HD 
ENDROOT
BRANCH   2   5
HETATM    5  C   UNL     1     -11.215  15.773  70.582  1.00  0.00    -0.372 C  
HETATM    6  O   UNL     1     -10.149  15.024  70.004  1.00  0.00    -0.471 OA 
HETATM    7  H   UNL     1      -9.680  15.536  69.354  1.00  0.00     0.000 HD 
ENDBRANCH   2   5
TORSDOF 1
ENDMDL
MODEL       58
REMARK 921   NORMALIZED FREE ENERGY PREDICTED BY IDOCK:   -2.03 KCAL/MOL
REMARK 922        TOTAL FREE ENERGY PREDICTED BY IDOCK:   -2.15 KCAL/MOL
REMARK 923 INTER-LIGAND FREE ENERGY PREDICTED BY IDOCK:   -2.15 KCAL/MOL
REMARK 924 INTRA-LIGAND FREE ENERGY PREDICTED BY IDOCK:    0.00 KCAL/MOL
REMARK 927      BINDING AFFINITY PREDICTED BY RF-SCORE:    0.00 PKD
ROOT
HETATM    1  C   UNL     1      -9.582  20.401  66.975  1.00  0.00    -0.571 C  
HETATM    2  C   UNL     1      -9.086  18.968  67.075  1.00  0.00    -0.294 C  
HETATM    3  O   UNL     1      -8.503  18.769  68.364  1.00  0.00    -0.321 OA 
HETATM    4  H   UNL     1      -8.193  17.874  68.426  1.00  0.00     0.000 HD 
ENDROOT
BRANCH   2   5
HETATM    5  C   UNL     1     -10.215  17.958  66.831  1.00  0.00    -0.358 C  
HETATM    6  O   UNL     1     -10.257  17.552  65.465  1.00  0.00    -0.608 OA 
HETATM    7  H   UNL     1     -10.957  16.927  65.313  1.00  0.00     0.000 HD 
ENDBRANCH   2   5
TORSDOF 1
ENDMDL
MODEL       59
REMARK 921   NORMALIZED FREE ENERGY PREDICTED BY IDOCK:   -2.03 KCAL/MOL
REMARK 922        TOTAL FREE ENERGY PREDICTED BY IDOCK:   -2.14 KCAL/MOL
REMARK 923 INTER-LIGAND FREE ENERGY PREDICTED BY IDOCK:   -2.14 KCAL/MOL
REMARK 924 INTRA-LIGAND FREE ENERGY PREDICTED BY IDOCK:    0.00 KCAL/MOL
REMARK 927      BINDING AFFINITY PREDICTED BY RF-SCORE:    0.00 PKD
ROOT
HETATM    1  C   UNL     1     -10.840   5.257  73.023  1.00  0.00    -0.332 C  
HETATM    2  C   UNL     1     -11.574   6.352  72.267  1.00  0.00    -0.299 C  
HETATM    3  O   UNL     1     -11.445   7.579  72.986  1.00  0.00    -0.564 OA 
HETATM    4  H   UNL     1     -11.904   8.262  72.514  1.00  0.00     0.000 HD 
ENDROOT
BRANCH   2   5
HETATM    5  C   UNL     1     -11.044   6.505  70.835  1.00  0.00    -0.292 C  
HETATM    6  O   UNL     1     -12.101   6.794  69.922  1.00  0.00    -0.656 OA 
HETATM    7  H   UNL     1     -11.773   6.889  69.035  1.00  0.00     0.000 HD 
ENDBRANCH   2   5
TORSDOF 1
ENDMDL
MODEL       60
REMARK 921   NORMALIZED FREE ENERGY PREDICTED BY IDOCK:   -2.02 KCAL/MOL
REMARK 922        TOTAL FREE ENERGY PREDICTED BY IDOCK:   -2.14 KCAL/MOL
REMARK 923 INTER-LIGAND FREE ENERGY PREDICTED BY IDOCK:   -2.14 KCAL/MOL
REMARK 924 INTRA-LIGAND FREE ENERGY PREDICTED BY IDOCK:    0.00 KCAL/MOL
REMARK 927      BINDING AFFINITY PREDICTED BY RF-SCORE:    0.00 PKD
ROOT
HETATM    1  C   UNL     1     -11.700   6.651  70.642  1.00  0.00    -0.452 C  
HETATM    2  C   UNL     1     -10.967   7.976  70.769  1.00  0.00    -0.248 C  
HETATM    3  O   UNL     1     -11.331   8.813  69.670  1.00  0.00    -0.443 OA 
HETATM    4  H   UNL     1     -10.873   9.641  69.749  1.00  0.00     0.000 HD 
ENDROOT
BRANCH   2   5
HETATM    5  C   UNL     1     -11.275   8.669  72.103  1.00  0.00    -0.367 C  
HETATM    6  O   UNL     1     -11.680   7.726  73.093  1.00  0.00    -0.631 OA 
HETATM    7  H   UNL     1     -11.872   8.156  73.919  1.00  0.00     0.000 HD 
ENDBRANCH   2   5
TORSDOF 1
ENDMDL
MODEL       61
REMARK 921   NORMALIZED FREE ENERGY PREDICTED BY IDOCK:   -2.01 KCAL/MOL
REMARK 922        TOTAL FREE ENERGY PREDICTED BY IDOCK:   -2.13 KCAL/MOL
REMARK 923 INTER-LIGAND FREE ENERGY PREDICTED BY IDOCK:   -2.13 KCAL/MOL
REMARK 924 INTRA-LIGAND FREE ENERGY PREDICTED BY IDOCK:    0.00 KCAL/MOL
REMARK 927      BINDING AFFINITY PREDICTED BY RF-SCORE:    0.00 PKD
ROOT
HETATM    1  C   UNL     1     -11.670  12.120  63.833  1.00  0.00    -0.546 C  
HETATM    2  C   UNL     1     -11.057  12.584  65.144  1.00  0.00    -0.299 C  
HETATM    3  O   UNL     1     -10.463  13.868  64.948  1.00  0.00    -0.386 OA 
HETATM    4  H   UNL     1     -10.080  14.158  65.767  1.00  0.00     0.000 HD 
ENDROOT
BRANCH   2   5
HETATM    5  C   UNL     1     -12.098  12.635  66.271  1.00  0.00    -0.289 C  
HETATM    6  O   UNL     1     -11.832  11.646  67.263  1.00  0.00    -0.609 OA 
HETATM    7  H   UNL     1     -12.477  11.677  67.961  1.00  0.00     0.000 HD 
ENDBRANCH   2   5
TORSDOF 1
ENDMDL
MODEL       62
REMARK 921   NORMALIZED FREE ENERGY PREDICTED BY IDOCK:   -2.00 KCAL/MOL
REMARK 922        TOTAL FREE ENERGY PREDICTED BY IDOCK:   -2.12 KCAL/MOL
REMARK 923 INTER-LIGAND FREE ENERGY PREDICTED BY IDOCK:   -2.12 KCAL/MOL
REMARK 924 INTRA-LIGAND FREE ENERGY PREDICTED BY IDOCK:    0.00 KCAL/MOL
REMARK 927      BINDING AFFINITY PREDICTED BY RF-SCORE:    0.00 PKD
ROOT
HETATM    1  C   UNL     1     -12.737  14.178  70.801  1.00  0.00    -0.414 C  
HETATM    2  C   UNL     1     -11.834  14.664  69.679  1.00  0.00    -0.320 C  
HETATM    3  O   UNL     1     -10.543  14.954  70.217  1.00  0.00    -0.463 OA 
HETATM    4  H   UNL     1      -9.979  15.257  69.516  1.00  0.00     0.000 HD 
ENDROOT
BRANCH   2   5
HETATM    5  C   UNL     1     -11.730  13.633  68.548  1.00  0.00    -0.357 C  
HETATM    6  O   UNL     1     -12.339  14.115  67.352  1.00  0.00    -0.567 OA 
HETATM    7  H   UNL     1     -12.275  13.477  66.651  1.00  0.00     0.000 HD 
ENDBRANCH   2   5
TORSDOF 1
ENDMDL
MODEL       63
REMARK 921   NORMALIZED FREE ENERGY PREDICTED BY IDOCK:   -2.00 KCAL/MOL
REMARK 922        TOTAL FREE ENERGY PREDICTED BY IDOCK:   -2.12 KCAL/MOL
REMARK 923 INTER-LIGAND FREE ENERGY PREDICTED BY IDOCK:   -2.12 KCAL/MOL
REMARK 924 INTRA-LIGAND FREE ENERGY PREDICTED BY IDOCK:    0.00 KCAL/MOL
REMARK 927      BINDING AFFINITY PREDICTED BY RF-SCORE:    0.00 PKD
ROOT
HETATM    1  C   UNL     1      -9.956  11.896  66.475  1.00  0.00    -0.225 C  
HETATM    2  C   UNL     1     -11.436  12.226  66.584  1.00  0.00    -0.373 C  
HETATM    3  O   UNL     1     -11.942  11.686  67.805  1.00  0.00    -0.608 OA 
HETATM    4  H   UNL     1     -12.866  11.893  67.873  1.00  0.00     0.000 HD 
ENDROOT
BRANCH   2   5
HETATM    5  C   UNL     1     -11.686  13.738  66.514  1.00  0.00    -0.385 C  
HETATM    6  O   UNL     1     -12.720  14.048  65.582  1.00  0.00    -0.526 OA 
HETATM    7  H   UNL     1     -12.875  14.985  65.539  1.00  0.00     0.000 HD 
ENDBRANCH   2   5
TORSDOF 1
ENDMDL
MODEL       64
REMARK 921   NORMALIZED FREE ENERGY PREDICTED BY IDOCK:   -1.98 KCAL/MOL
REMARK 922        TOTAL FREE ENERGY PREDICTED BY IDOCK:   -2.10 KCAL/MOL
REMARK 923 INTER-LIGAND FREE ENERGY PREDICTED BY IDOCK:   -2.10 KCAL/MOL
REMARK 924 INTRA-LIGAND FREE ENERGY PREDICTED BY IDOCK:    0.00 KCAL/MOL
REMARK 927      BINDING AFFINITY PREDICTED BY RF-SCORE:    0.00 PKD
ROOT
HETATM    1  C   UNL     1     -10.477   8.828  71.872  1.00  0.00    -0.423 C  
HETATM    2  C   UNL     1     -11.440   9.231  70.768  1.00  0.00    -0.292 C  
HETATM    3  O   UNL     1     -12.405   8.193  70.593  1.00  0.00    -0.497 OA 
HETATM    4  H   UNL     1     -13.007   8.446  69.904  1.00  0.00     0.000 HD 
ENDROOT
BRANCH   2   5
HETATM    5  C   UNL     1     -12.131  10.566  71.078  1.00  0.00    -0.387 C  
HETATM    6  O   UNL     1     -11.498  11.646  70.393  1.00  0.00    -0.501 OA 
HETATM    7  H   UNL     1     -11.925  12.473  70.586  1.00  0.00     0.000 HD 
ENDBRANCH   2   5
TORSDOF 1
ENDMDL
MODEL       65
REMARK 921   NORMALIZED FREE ENERGY PREDICTED BY IDOCK:   -1.98 KCAL/MOL
REMARK 922        TOTAL FREE ENERGY PREDICTED BY IDOCK:   -2.10 KCAL/MOL
REMARK 923 INTER-LIGAND FREE ENERGY PREDICTED BY IDOCK:   -2.10 KCAL/MOL
REMARK 924 INTRA-LIGAND FREE ENERGY PREDICTED BY IDOCK:    0.00 KCAL/MOL
REMARK 927      BINDING AFFINITY PREDICTED BY RF-SCORE:    0.00 PKD
ROOT
HETATM    1  C   UNL     1      -6.794  20.961  67.386  1.00  0.00    -0.434 C  
HETATM    2  C   UNL     1      -7.593  19.674  67.501  1.00  0.00    -0.264 C  
HETATM    3  O   UNL     1      -7.823  19.394  68.882  1.00  0.00    -0.354 OA 
HETATM    4  H   UNL     1      -8.322  18.590  68.954  1.00  0.00     0.000 HD 
ENDROOT
BRANCH   2   5
HETATM    5  C   UNL     1      -8.921  19.760  66.737  1.00  0.00    -0.359 C  
HETATM    6  O   UNL     1      -9.561  21.015  66.955  1.00  0.00    -0.687 OA 
HETATM    7  H   UNL     1     -10.384  21.068  66.482  1.00  0.00     0.000 HD 
ENDBRANCH   2   5
TORSDOF 1
ENDMDL
MODEL       66
REMARK 921   NORMALIZED FREE ENERGY PREDICTED BY IDOCK:   -1.97 KCAL/MOL
REMARK 922        TOTAL FREE ENERGY PREDICTED BY IDOCK:   -2.08 KCAL/MOL
REMARK 923 INTER-LIGAND FREE ENERGY PREDICTED BY IDOCK:   -2.08 KCAL/MOL
REMARK 924 INTRA-LIGAND FREE ENERGY PREDICTED BY IDOCK:    0.00 KCAL/MOL
REMARK 927      BINDING AFFINITY PREDICTED BY RF-SCORE:    0.00 PKD
ROOT
HETATM    1  C   UNL     1     -10.526   8.924  67.880  1.00  0.00    -0.281 C  
HETATM    2  C   UNL     1     -10.799  10.291  68.485  1.00  0.00    -0.240 C  
HETATM    3  O   UNL     1     -12.046  10.777  67.987  1.00  0.00    -0.778 OA 
HETATM    4  H   UNL     1     -12.216  11.631  68.366  1.00  0.00     0.000 HD 
ENDROOT
BRANCH   2   5
HETATM    5  C   UNL     1     -10.812  10.239  70.019  1.00  0.00    -0.307 C  
HETATM    6  O   UNL     1     -11.529  11.343  70.567  1.00  0.00    -0.475 OA 
HETATM    7  H   UNL     1     -11.536  11.311  71.517  1.00  0.00     0.000 HD 
ENDBRANCH   2   5
TORSDOF 1
ENDMDL
MODEL       67
REMARK 921   NORMALIZED FREE ENERGY PREDICTED BY IDOCK:   -1.97 KCAL/MOL
REMARK 922        TOTAL FREE ENERGY PREDICTED BY IDOCK:   -2.08 KCAL/MOL
REMARK 923 INTER-LIGAND FREE ENERGY PREDICTED BY IDOCK:   -2.08 KCAL/MOL
REMARK 924 INTRA-LIGAND FREE ENERGY PREDICTED BY IDOCK:    0.00 KCAL/MOL
REMARK 927      BINDING AFFINITY PREDICTED BY RF-SCORE:    0.00 PKD
ROOT
HETATM    1  C   UNL     1     -11.331  11.791  67.021  1.00  0.00    -0.387 C  
HETATM    2  C   UNL     1     -11.777  12.259  68.396  1.00  0.00    -0.337 C  
HETATM    3  O   UNL     1     -10.825  11.822  69.366  1.00  0.00    -0.407 OA 
HETATM    4  H   UNL     1     -11.104  12.115  70.225  1.00  0.00     0.000 HD 
ENDROOT
BRANCH   2   5
HETATM    5  C   UNL     1     -11.943  13.784  68.449  1.00  0.00    -0.360 C  
HETATM    6  O   UNL     1     -12.351  14.303  67.185  1.00  0.00    -0.590 OA 
HETATM    7  H   UNL     1     -12.453  15.247  67.217  1.00  0.00     0.000 HD 
ENDBRANCH   2   5
TORSDOF 1
ENDMDL
MODEL       68
REMARK 921   NORMALIZED FREE ENERGY PREDICTED BY IDOCK:   -1.95 KCAL/MOL
REMARK 922        TOTAL FREE ENERGY PREDICTED BY IDOCK:   -2.07 KCAL/MOL
REMARK 923 INTER-LIGAND FREE ENERGY PREDICTED BY IDOCK:   -2.07 KCAL/MOL
REMARK 924 INTRA-LIGAND FREE ENERGY PREDICTED BY IDOCK:    0.00 KCAL/MOL
REMARK 927      BINDING AFFINITY PREDICTED BY RF-SCORE:    0.00 PKD
ROOT
HETATM    1  C   UNL     1      -8.924   2.504  64.233  1.00  0.00    -0.108 C  
HETATM    2  C   UNL     1     -10.124   3.415  64.037  1.00  0.00    -0.197 C  
HETATM    3  O   UNL     1     -11.271   2.614  63.749  1.00  0.00    -0.592 OA 
HETATM    4  H   UNL     1     -12.021   3.183  63.627  1.00  0.00     0.000 HD 
ENDROOT
BRANCH   2   5
HETATM    5  C   UNL     1     -10.374   4.296  65.269  1.00  0.00    -0.201 C  
HETATM    6  O   UNL     1     -11.715   4.782  65.292  1.00  0.00    -0.969 OA 
HETATM    7  H   UNL     1     -11.870   5.328  66.054  1.00  0.00     0.000 HD 
ENDBRANCH   2   5
TORSDOF 1
ENDMDL
MODEL       69
REMARK 921   NORMALIZED FREE ENERGY PREDICTED BY IDOCK:   -1.94 KCAL/MOL
REMARK 922        TOTAL FREE ENERGY PREDICTED BY IDOCK:   -2.05 KCAL/MOL
REMARK 923 INTER-LIGAND FREE ENERGY PREDICTED BY IDOCK:   -2.05 KCAL/MOL
REMARK 924 INTRA-LIGAND FREE ENERGY PREDICTED BY IDOCK:    0.00 KCAL/MOL
REMARK 927      BINDING AFFINITY PREDICTED BY RF-SCORE:    0.00 PKD
ROOT
HETATM    1  C   UNL     1     -12.174  11.704  70.478  1.00  0.00    -0.451 C  
HETATM    2  C   UNL     1     -12.049  10.369  71.192  1.00  0.00    -0.386 C  
HETATM    3  O   UNL     1     -13.142   9.534  70.808  1.00  0.00    -0.550 OA 
HETATM    4  H   UNL     1     -13.064   8.700  71.255  1.00  0.00     0.000 HD 
ENDROOT
BRANCH   2   5
HETATM    5  C   UNL     1     -10.710   9.684  70.885  1.00  0.00    -0.332 C  
HETATM    6  O   UNL     1     -10.256   8.916  71.997  1.00  0.00    -0.334 OA 
HETATM    7  H   UNL     1      -9.427   8.492  71.807  1.00  0.00     0.000 HD 
ENDBRANCH   2   5
TORSDOF 1
ENDMDL
MODEL       70
REMARK 921   NORMALIZED FREE ENERGY PREDICTED BY IDOCK:   -1.92 KCAL/MOL
REMARK 922        TOTAL FREE ENERGY PREDICTED BY IDOCK:   -2.03 KCAL/MOL
REMARK 923 INTER-LIGAND FREE ENERGY PREDICTED BY IDOCK:   -2.03 KCAL/MOL
REMARK 924 INTRA-LIGAND FREE ENERGY PREDICTED BY IDOCK:    0.00 KCAL/MOL
REMARK 927      BINDING AFFINITY PREDICTED BY RF-SCORE:    0.00 PKD
ROOT
HETATM    1  C   UNL     1     -12.294  13.979  65.780  1.00  0.00    -0.506 C  
HETATM    2  C   UNL     1     -11.035  13.232  65.370  1.00  0.00    -0.284 C  
HETATM    3  O   UNL     1     -10.659  13.646  64.056  1.00  0.00    -0.535 OA 
HETATM    4  H   UNL     1      -9.872  13.180  63.801  1.00  0.00     0.000 HD 
ENDROOT
BRANCH   2   5
HETATM    5  C   UNL     1      -9.888  13.468  66.362  1.00  0.00    -0.295 C  
HETATM    6  O   UNL     1      -9.247  14.719  66.122  1.00  0.00    -0.416 OA 
HETATM    7  H   UNL     1      -8.536  14.865  66.736  1.00  0.00     0.000 HD 
ENDBRANCH   2   5
TORSDOF 1
ENDMDL
MODEL       71
REMARK 921   NORMALIZED FREE ENERGY PREDICTED BY IDOCK:   -1.92 KCAL/MOL
REMARK 922        TOTAL FREE ENERGY PREDICTED BY IDOCK:   -2.03 KCAL/MOL
REMARK 923 INTER-LIGAND FREE ENERGY PREDICTED BY IDOCK:   -2.03 KCAL/MOL
REMARK 924 INTRA-LIGAND FREE ENERGY PREDICTED BY IDOCK:    0.00 KCAL/MOL
REMARK 927      BINDING AFFINITY PREDICTED BY RF-SCORE:    0.00 PKD
ROOT
HETATM    1  C   UNL     1     -11.632  12.804  67.003  1.00  0.00    -0.422 C  
HETATM    2  C   UNL     1     -11.910  14.255  67.359  1.00  0.00    -0.409 C  
HETATM    3  O   UNL     1     -12.329  14.325  68.722  1.00  0.00    -0.562 OA 
HETATM    4  H   UNL     1     -12.503  15.231  68.944  1.00  0.00     0.000 HD 
ENDROOT
BRANCH   2   5
HETATM    5  C   UNL     1     -10.680  15.142  67.124  1.00  0.00    -0.310 C  
HETATM    6  O   UNL     1     -10.796  16.379  67.823  1.00  0.00    -0.332 OA 
HETATM    7  H   UNL     1     -10.034  16.929  67.677  1.00  0.00     0.000 HD 
ENDBRANCH   2   5
TORSDOF 1
ENDMDL
MODEL       72
REMARK 921   NORMALIZED FREE ENERGY PREDICTED BY IDOCK:   -1.92 KCAL/MOL
REMARK 922        TOTAL FREE ENERGY PREDICTED BY IDOCK:   -2.03 KCAL/MOL
REMARK 923 INTER-LIGAND FREE ENERGY PREDICTED BY IDOCK:   -2.03 KCAL/MOL
REMARK 924 INTRA-LIGAND FREE ENERGY PREDICTED BY IDOCK:    0.00 KCAL/MOL
REMARK 927      BINDING AFFINITY PREDICTED BY RF-SCORE:    0.00 PKD
ROOT
HETATM    1  C   UNL     1     -10.639   5.772  66.904  1.00  0.00    -0.377 C  
HETATM    2  C   UNL     1      -9.692   4.666  66.467  1.00  0.00    -0.201 C  
HETATM    3  O   UNL     1      -9.643   3.668  67.487  1.00  0.00    -0.202 OA 
HETATM    4  H   UNL     1      -9.052   2.978  67.214  1.00  0.00     0.000 HD 
ENDROOT
BRANCH   2   5
HETATM    5  C   UNL     1     -10.120   4.050  65.127  1.00  0.00    -0.182 C  
HETATM    6  O   UNL     1     -11.483   4.349  64.834  1.00  0.00    -1.070 OA 
HETATM    7  H   UNL     1     -11.748   3.967  64.005  1.00  0.00     0.000 HD 
ENDBRANCH   2   5
TORSDOF 1
ENDMDL
MODEL       73
REMARK 921   NORMALIZED FREE ENERGY PREDICTED BY IDOCK:   -1.91 KCAL/MOL
REMARK 922        TOTAL FREE ENERGY PREDICTED BY IDOCK:   -2.02 KCAL/MOL
REMARK 923 INTER-LIGAND FREE ENERGY PREDICTED BY IDOCK:   -2.02 KCAL/MOL
REMARK 924 INTRA-LIGAND FREE ENERGY PREDICTED BY IDOCK:    0.00 KCAL/MOL
REMARK 927      BINDING AFFINITY PREDICTED BY RF-SCORE:    0.00 PKD
ROOT
HETATM    1  C   UNL     1     -11.322  10.843  68.006  1.00  0.00    -0.382 C  
HETATM    2  C   UNL     1     -11.882  11.417  69.297  1.00  0.00    -0.349 C  
HETATM    3  O   UNL     1     -11.125  10.909  70.396  1.00  0.00    -0.464 OA 
HETATM    4  H   UNL     1     -11.475  11.267  71.202  1.00  0.00     0.000 HD 
ENDROOT
BRANCH   2   5
HETATM    5  C   UNL     1     -11.865  12.951  69.290  1.00  0.00    -0.309 C  
HETATM    6  O   UNL     1     -11.637  13.470  70.599  1.00  0.00    -0.519 OA 
HETATM    7  H   UNL     1     -11.627  14.421  70.595  1.00  0.00     0.000 HD 
ENDBRANCH   2   5
TORSDOF 1
ENDMDL
MODEL       74
REMARK 921   NORMALIZED FREE ENERGY PREDICTED BY IDOCK:   -1.89 KCAL/MOL
REMARK 922        TOTAL FREE ENERGY PREDICTED BY IDOCK:   -2.00 KCAL/MOL
REMARK 923 INTER-LIGAND FREE ENERGY PREDICTED BY IDOCK:   -2.00 KCAL/MOL
REMARK 924 INTRA-LIGAND FREE ENERGY PREDICTED BY IDOCK:    0.00 KCAL/MOL
REMARK 927      BINDING AFFINITY PREDICTED BY RF-SCORE:    0.00 PKD
ROOT
HETATM    1  C   UNL     1      -8.297  10.709  65.153  1.00  0.00    -0.117 C  
HETATM    2  C   UNL     1      -9.624  10.167  64.649  1.00  0.00    -0.315 C  
HETATM    3  O   UNL     1     -10.158   9.271  65.624  1.00  0.00    -0.403 OA 
HETATM    4  H   UNL     1     -10.988   8.932  65.309  1.00  0.00     0.000 HD 
ENDROOT
BRANCH   2   5
HETATM    5  C   UNL     1     -10.620  11.295  64.347  1.00  0.00    -0.345 C  
HETATM    6  O   UNL     1     -11.232  11.117  63.072  1.00  0.00    -0.820 OA 
HETATM    7  H   UNL     1     -11.848  11.816  62.884  1.00  0.00     0.000 HD 
ENDBRANCH   2   5
TORSDOF 1
ENDMDL
MODEL       75
REMARK 921   NORMALIZED FREE ENERGY PREDICTED BY IDOCK:   -1.89 KCAL/MOL
REMARK 922        TOTAL FREE ENERGY PREDICTED BY IDOCK:   -2.00 KCAL/MOL
REMARK 923 INTER-LIGAND FREE ENERGY PREDICTED BY IDOCK:   -2.00 KCAL/MOL
REMARK 924 INTRA-LIGAND FREE ENERGY PREDICTED BY IDOCK:    0.00 KCAL/MOL
REMARK 927      BINDING AFFINITY PREDICTED BY RF-SCORE:    0.00 PKD
ROOT
HETATM    1  C   UNL     1      -6.579  20.061  65.096  1.00  0.00    -0.333 C  
HETATM    2  C   UNL     1      -7.537  19.947  66.270  1.00  0.00    -0.310 C  
HETATM    3  O   UNL     1      -8.824  20.414  65.865  1.00  0.00    -0.581 OA 
HETATM    4  H   UNL     1      -9.423  20.343  66.599  1.00  0.00     0.000 HD 
ENDROOT
BRANCH   2   5
HETATM    5  C   UNL     1      -7.624  18.507  66.793  1.00  0.00    -0.229 C  
HETATM    6  O   UNL     1      -7.941  17.595  65.744  1.00  0.00    -0.549 OA 
HETATM    7  H   UNL     1      -7.996  16.702  66.067  1.00  0.00     0.000 HD 
ENDBRANCH   2   5
TORSDOF 1
ENDMDL
MODEL       76
REMARK 921   NORMALIZED FREE ENERGY PREDICTED BY IDOCK:   -1.89 KCAL/MOL
REMARK 922        TOTAL FREE ENERGY PREDICTED BY IDOCK:   -2.00 KCAL/MOL
REMARK 923 INTER-LIGAND FREE ENERGY PREDICTED BY IDOCK:   -2.00 KCAL/MOL
REMARK 924 INTRA-LIGAND FREE ENERGY PREDICTED BY IDOCK:    0.00 KCAL/MOL
REMARK 927      BINDING AFFINITY PREDICTED BY RF-SCORE:    0.00 PKD
ROOT
HETATM    1  C   UNL     1     -10.757  12.799  68.186  1.00  0.00    -0.243 C  
HETATM    2  C   UNL     1     -11.427  14.152  68.358  1.00  0.00    -0.302 C  
HETATM    3  O   UNL     1     -12.444  14.295  67.366  1.00  0.00    -0.588 OA 
HETATM    4  H   UNL     1     -12.862  15.141  67.475  1.00  0.00     0.000 HD 
ENDROOT
BRANCH   2   5
HETATM    5  C   UNL     1     -12.015  14.319  69.766  1.00  0.00    -0.339 C  
HETATM    6  O   UNL     1     -11.774  13.163  70.566  1.00  0.00    -0.529 OA 
HETATM    7  H   UNL     1     -12.138  13.266  71.438  1.00  0.00     0.000 HD 
ENDBRANCH   2   5
TORSDOF 1
ENDMDL
MODEL       77
REMARK 921   NORMALIZED FREE ENERGY PREDICTED BY IDOCK:   -1.88 KCAL/MOL
REMARK 922        TOTAL FREE ENERGY PREDICTED BY IDOCK:   -1.99 KCAL/MOL
REMARK 923 INTER-LIGAND FREE ENERGY PREDICTED BY IDOCK:   -1.99 KCAL/MOL
REMARK 924 INTRA-LIGAND FREE ENERGY PREDICTED BY IDOCK:    0.00 KCAL/MOL
REMARK 927      BINDING AFFINITY PREDICTED BY RF-SCORE:    0.00 PKD
ROOT
HETATM    1  C   UNL     1     -12.192   9.685  71.547  1.00  0.00    -0.483 C  
HETATM    2  C   UNL     1     -11.090   8.712  71.162  1.00  0.00    -0.266 C  
HETATM    3  O   UNL     1      -9.953   8.947  71.995  1.00  0.00    -0.329 OA 
HETATM    4  H   UNL     1      -9.265   8.339  71.754  1.00  0.00     0.000 HD 
ENDROOT
BRANCH   2   5
HETATM    5  C   UNL     1     -11.554   7.254  71.279  1.00  0.00    -0.286 C  
HETATM    6  O   UNL     1     -12.340   6.872  70.151  1.00  0.00    -0.628 OA 
HETATM    7  H   UNL     1     -12.628   5.968  70.223  1.00  0.00     0.000 HD 
ENDBRANCH   2   5
TORSDOF 1
ENDMDL
MODEL       78
REMARK 921   NORMALIZED FREE ENERGY PREDICTED BY IDOCK:   -1.87 KCAL/MOL
REMARK 922        TOTAL FREE ENERGY PREDICTED BY IDOCK:   -1.98 KCAL/MOL
REMARK 923 INTER-LIGAND FREE ENERGY PREDICTED BY IDOCK:   -1.98 KCAL/MOL
REMARK 924 INTRA-LIGAND FREE ENERGY PREDICTED BY IDOCK:    0.00 KCAL/MOL
REMARK 927      BINDING AFFINITY PREDICTED BY RF-SCORE:    0.00 PKD
ROOT
HETATM    1  C   UNL     1     -10.493   8.795  71.802  1.00  0.00    -0.417 C  
HETATM    2  C   UNL     1     -11.765   8.382  71.080  1.00  0.00    -0.267 C  
HETATM    3  O   UNL     1     -11.944   6.973  71.225  1.00  0.00    -0.307 OA 
HETATM    4  H   UNL     1     -12.739   6.716  70.774  1.00  0.00     0.000 HD 
ENDROOT
BRANCH   2   5
HETATM    5  C   UNL     1     -12.990   9.141  71.610  1.00  0.00    -0.365 C  
HETATM    6  O   UNL     1     -14.187   8.696  70.976  1.00  0.00    -0.627 OA 
HETATM    7  H   UNL     1     -14.945   9.166  71.304  1.00  0.00     0.000 HD 
ENDBRANCH   2   5
TORSDOF 1
ENDMDL
MODEL       79
REMARK 921   NORMALIZED FREE ENERGY PREDICTED BY IDOCK:   -1.85 KCAL/MOL
REMARK 922        TOTAL FREE ENERGY PREDICTED BY IDOCK:   -1.96 KCAL/MOL
REMARK 923 INTER-LIGAND FREE ENERGY PREDICTED BY IDOCK:   -1.96 KCAL/MOL
REMARK 924 INTRA-LIGAND FREE ENERGY PREDICTED BY IDOCK:    0.00 KCAL/MOL
REMARK 927      BINDING AFFINITY PREDICTED BY RF-SCORE:    0.00 PKD
ROOT
HETATM    1  C   UNL     1     -12.238  13.081  70.273  1.00  0.00    -0.368 C  
HETATM    2  C   UNL     1     -11.913  11.708  69.709  1.00  0.00    -0.332 C  
HETATM    3  O   UNL     1     -10.495  11.579  69.592  1.00  0.00    -0.438 OA 
HETATM    4  H   UNL     1     -10.293  10.721  69.239  1.00  0.00     0.000 HD 
ENDROOT
BRANCH   2   5
HETATM    5  C   UNL     1     -12.488  10.585  70.583  1.00  0.00    -0.366 C  
HETATM    6  O   UNL     1     -11.904   9.326  70.257  1.00  0.00    -0.459 OA 
HETATM    7  H   UNL     1     -12.260   8.630  70.798  1.00  0.00     0.000 HD 
ENDBRANCH   2   5
TORSDOF 1
ENDMDL
MODEL       80
REMARK 921   NORMALIZED FREE ENERGY PREDICTED BY IDOCK:   -1.85 KCAL/MOL
REMARK 922        TOTAL FREE ENERGY PREDICTED BY IDOCK:   -1.96 KCAL/MOL
REMARK 923 INTER-LIGAND FREE ENERGY PREDICTED BY IDOCK:   -1.96 KCAL/MOL
REMARK 924 INTRA-LIGAND FREE ENERGY PREDICTED BY IDOCK:    0.00 KCAL/MOL
REMARK 927      BINDING AFFINITY PREDICTED BY RF-SCORE:    0.00 PKD
ROOT
HETATM    1  C   UNL     1      -9.323   5.255  66.189  1.00  0.00    -0.164 C  
HETATM    2  C   UNL     1     -10.086   4.236  65.359  1.00  0.00    -0.225 C  
HETATM    3  O   UNL     1     -11.466   4.603  65.330  1.00  0.00    -1.070 OA 
HETATM    4  H   UNL     1     -11.943   3.967  64.811  1.00  0.00     0.000 HD 
ENDROOT
BRANCH   2   5
HETATM    5  C   UNL     1      -9.524   4.130  63.935  1.00  0.00    -0.149 C  
HETATM    6  O   UNL     1      -9.022   5.386  63.483  1.00  0.00    -0.346 OA 
HETATM    7  H   UNL     1      -8.674   5.321  62.601  1.00  0.00     0.000 HD 
ENDBRANCH   2   5
TORSDOF 1
ENDMDL
MODEL       81
REMARK 921   NORMALIZED FREE ENERGY PREDICTED BY IDOCK:   -1.84 KCAL/MOL
REMARK 922        TOTAL FREE ENERGY PREDICTED BY IDOCK:   -1.95 KCAL/MOL
REMARK 923 INTER-LIGAND FREE ENERGY PREDICTED BY IDOCK:   -1.95 KCAL/MOL
REMARK 924 INTRA-LIGAND FREE ENERGY PREDICTED BY IDOCK:    0.00 KCAL/MOL
REMARK 927      BINDING AFFINITY PREDICTED BY RF-SCORE:    0.00 PKD
ROOT
HETATM    1  C   UNL     1      -8.905  19.938  66.471  1.00  0.00    -0.432 C  
HETATM    2  C   UNL     1      -9.735  19.639  67.708  1.00  0.00    -0.371 C  
HETATM    3  O   UNL     1     -11.097  19.457  67.319  1.00  0.00    -0.458 OA 
HETATM    4  H   UNL     1     -11.615  19.270  68.092  1.00  0.00     0.000 HD 
ENDROOT
BRANCH   2   5
HETATM    5  C   UNL     1      -9.215  18.404  68.455  1.00  0.00    -0.328 C  
HETATM    6  O   UNL     1     -10.291  17.595  68.926  1.00  0.00    -0.363 OA 
HETATM    7  H   UNL     1      -9.969  16.829  69.389  1.00  0.00     0.000 HD 
ENDBRANCH   2   5
TORSDOF 1
ENDMDL
MODEL       82
REMARK 921   NORMALIZED FREE ENERGY PREDICTED BY IDOCK:   -1.84 KCAL/MOL
REMARK 922        TOTAL FREE ENERGY PREDICTED BY IDOCK:   -1.95 KCAL/MOL
REMARK 923 INTER-LIGAND FREE ENERGY PREDICTED BY IDOCK:   -1.95 KCAL/MOL
REMARK 924 INTRA-LIGAND FREE ENERGY PREDICTED BY IDOCK:    0.00 KCAL/MOL
REMARK 927      BINDING AFFINITY PREDICTED BY RF-SCORE:    0.00 PKD
ROOT
HETATM    1  C   UNL     1     -10.218   7.691  71.143  1.00  0.00    -0.207 C  
HETATM    2  C   UNL     1     -10.955   6.760  70.194  1.00  0.00    -0.292 C  
HETATM    3  O   UNL     1     -12.361   6.925  70.384  1.00  0.00    -0.613 OA 
HETATM    4  H   UNL     1     -12.821   6.344  69.791  1.00  0.00     0.000 HD 
ENDROOT
BRANCH   2   5
HETATM    5  C   UNL     1     -10.571   7.022  68.732  1.00  0.00    -0.212 C  
HETATM    6  O   UNL     1     -11.464   6.360  67.838  1.00  0.00    -0.622 OA 
HETATM    7  H   UNL     1     -11.226   6.521  66.932  1.00  0.00     0.000 HD 
ENDBRANCH   2   5
TORSDOF 1
ENDMDL
MODEL       83
REMARK 921   NORMALIZED FREE ENERGY PREDICTED BY IDOCK:   -1.82 KCAL/MOL
REMARK 922        TOTAL FREE ENERGY PREDICTED BY IDOCK:   -1.93 KCAL/MOL
REMARK 923 INTER-LIGAND FREE ENERGY PREDICTED BY IDOCK:   -1.93 KCAL/MOL
REMARK 924 INTRA-LIGAND FREE ENERGY PREDICTED BY IDOCK:    0.00 KCAL/MOL
REMARK 927      BINDING AFFINITY PREDICTED BY RF-SCORE:    0.00 PKD
ROOT
HETATM    1  C   UNL     1      -7.809   4.446  65.588  1.00  0.00    -0.094 C  
HETATM    2  C   UNL     1      -9.094   5.154  65.190  1.00  0.00    -0.095 C  
HETATM    3  O   UNL     1      -9.282   5.014  63.781  1.00  0.00    -0.348 OA 
HETATM    4  H   UNL     1     -10.084   5.457  63.533  1.00  0.00     0.000 HD 
ENDROOT
BRANCH   2   5
HETATM    5  C   UNL     1     -10.305   4.604  65.955  1.00  0.00    -0.284 C  
HETATM    6  O   UNL     1     -11.440   4.474  65.101  1.00  0.00    -1.105 OA 
HETATM    7  H   UNL     1     -12.190   4.134  65.575  1.00  0.00     0.000 HD 
ENDBRANCH   2   5
TORSDOF 1
ENDMDL
MODEL       84
REMARK 921   NORMALIZED FREE ENERGY PREDICTED BY IDOCK:   -1.80 KCAL/MOL
REMARK 922        TOTAL FREE ENERGY PREDICTED BY IDOCK:   -1.91 KCAL/MOL
REMARK 923 INTER-LIGAND FREE ENERGY PREDICTED BY IDOCK:   -1.91 KCAL/MOL
REMARK 924 INTRA-LIGAND FREE ENERGY PREDICTED BY IDOCK:    0.00 KCAL/MOL
REMARK 927      BINDING AFFINITY PREDICTED BY RF-SCORE:    0.00 PKD
ROOT
HETATM    1  C   UNL     1     -10.330  15.264  67.908  1.00  0.00    -0.246 C  
HETATM    2  C   UNL     1     -10.478  13.774  67.651  1.00  0.00    -0.242 C  
HETATM    3  O   UNL     1     -10.131  13.062  68.840  1.00  0.00    -0.424 OA 
HETATM    4  H   UNL     1     -10.223  12.131  68.679  1.00  0.00     0.000 HD 
ENDROOT
BRANCH   2   5
HETATM    5  C   UNL     1     -11.900  13.414  67.201  1.00  0.00    -0.382 C  
HETATM    6  O   UNL     1     -11.937  12.128  66.588  1.00  0.00    -0.616 OA 
HETATM    7  H   UNL     1     -12.819  11.905  66.308  1.00  0.00     0.000 HD 
ENDBRANCH   2   5
TORSDOF 1
ENDMDL
MODEL       85
REMARK 921   NORMALIZED FREE ENERGY PREDICTED BY IDOCK:   -1.80 KCAL/MOL
REMARK 922        TOTAL FREE ENERGY PREDICTED BY IDOCK:   -1.90 KCAL/MOL
REMARK 923 INTER-LIGAND FREE ENERGY PREDICTED BY IDOCK:   -1.90 KCAL/MOL
REMARK 924 INTRA-LIGAND FREE ENERGY PREDICTED BY IDOCK:    0.00 KCAL/MOL
REMARK 927      BINDING AFFINITY PREDICTED BY RF-SCORE:    0.00 PKD
ROOT
HETATM    1  C   UNL     1     -12.094  13.177  69.908  1.00  0.00    -0.357 C  
HETATM    2  C   UNL     1     -12.285  11.895  70.702  1.00  0.00    -0.331 C  
HETATM    3  O   UNL     1     -13.386  12.064  71.596  1.00  0.00    -0.337 OA 
HETATM    4  H   UNL     1     -13.504  11.263  72.091  1.00  0.00     0.000 HD 
ENDROOT
BRANCH   2   5
HETATM    5  C   UNL     1     -12.512  10.688  69.783  1.00  0.00    -0.119 C  
HETATM    6  O   UNL     1     -12.288  11.029  68.417  1.00  0.00    -0.762 OA 
HETATM    7  H   UNL     1     -12.429  10.281  67.847  1.00  0.00     0.000 HD 
ENDBRANCH   2   5
TORSDOF 1
ENDMDL
MODEL       86
REMARK 921   NORMALIZED FREE ENERGY PREDICTED BY IDOCK:   -1.79 KCAL/MOL
REMARK 922        TOTAL FREE ENERGY PREDICTED BY IDOCK:   -1.89 KCAL/MOL
REMARK 923 INTER-LIGAND FREE ENERGY PREDICTED BY IDOCK:   -1.89 KCAL/MOL
REMARK 924 INTRA-LIGAND FREE ENERGY PREDICTED BY IDOCK:    0.00 KCAL/MOL
REMARK 927      BINDING AFFINITY PREDICTED BY RF-SCORE:    0.00 PKD
ROOT
HETATM    1  C   UNL     1      -9.715  15.491  69.345  1.00  0.00    -0.283 C  
HETATM    2  C   UNL     1     -10.290  14.373  68.491  1.00  0.00    -0.248 C  
HETATM    3  O   UNL     1      -9.673  13.140  68.866  1.00  0.00    -0.409 OA 
HETATM    4  H   UNL     1     -10.033  12.442  68.332  1.00  0.00     0.000 HD 
ENDROOT
BRANCH   2   5
HETATM    5  C   UNL     1     -11.816  14.280  68.632  1.00  0.00    -0.344 C  
HETATM    6  O   UNL     1     -12.376  15.534  69.016  1.00  0.00    -0.607 OA 
HETATM    7  H   UNL     1     -13.321  15.476  69.104  1.00  0.00     0.000 HD 
ENDBRANCH   2   5
TORSDOF 1
ENDMDL
MODEL       87
REMARK 921   NORMALIZED FREE ENERGY PREDICTED BY IDOCK:   -1.78 KCAL/MOL
REMARK 922        TOTAL FREE ENERGY PREDICTED BY IDOCK:   -1.89 KCAL/MOL
REMARK 923 INTER-LIGAND FREE ENERGY PREDICTED BY IDOCK:   -1.89 KCAL/MOL
REMARK 924 INTRA-LIGAND FREE ENERGY PREDICTED BY IDOCK:    0.00 KCAL/MOL
REMARK 927      BINDING AFFINITY PREDICTED BY RF-SCORE:    0.00 PKD
ROOT
HETATM    1  C   UNL     1      -7.090  19.468  69.257  1.00  0.00    -0.372 C  
HETATM    2  C   UNL     1      -8.061  19.456  68.088  1.00  0.00    -0.319 C  
HETATM    3  O   UNL     1      -7.457  18.767  66.992  1.00  0.00    -0.215 OA 
HETATM    4  H   UNL     1      -8.064  18.760  66.262  1.00  0.00     0.000 HD 
ENDROOT
BRANCH   2   5
HETATM    5  C   UNL     1      -9.398  18.804  68.467  1.00  0.00    -0.350 C  
HETATM    6  O   UNL     1     -10.215  19.701  69.217  1.00  0.00    -0.629 OA 
HETATM    7  H   UNL     1     -11.043  19.297  69.452  1.00  0.00     0.000 HD 
ENDBRANCH   2   5
TORSDOF 1
ENDMDL
MODEL       88
REMARK 921   NORMALIZED FREE ENERGY PREDICTED BY IDOCK:   -1.76 KCAL/MOL
REMARK 922        TOTAL FREE ENERGY PREDICTED BY IDOCK:   -1.86 KCAL/MOL
REMARK 923 INTER-LIGAND FREE ENERGY PREDICTED BY IDOCK:   -1.86 KCAL/MOL
REMARK 924 INTRA-LIGAND FREE ENERGY PREDICTED BY IDOCK:    0.00 KCAL/MOL
REMARK 927      BINDING AFFINITY PREDICTED BY RF-SCORE:    0.00 PKD
ROOT
HETATM    1  C   UNL     1      -8.979  13.949  67.324  1.00  0.00    -0.225 C  
HETATM    2  C   UNL     1      -9.671  14.648  66.166  1.00  0.00    -0.319 C  
HETATM    3  O   UNL     1      -9.691  13.768  65.040  1.00  0.00    -0.586 OA 
HETATM    4  H   UNL     1     -10.124  14.206  64.317  1.00  0.00     0.000 HD 
ENDROOT
BRANCH   2   5
HETATM    5  C   UNL     1     -11.094  15.086  66.536  1.00  0.00    -0.329 C  
HETATM    6  O   UNL     1     -12.048  14.082  66.197  1.00  0.00    -0.402 OA 
HETATM    7  H   UNL     1     -12.930  14.353  66.426  1.00  0.00     0.000 HD 
ENDBRANCH   2   5
TORSDOF 1
ENDMDL
MODEL       89
REMARK 921   NORMALIZED FREE ENERGY PREDICTED BY IDOCK:   -1.73 KCAL/MOL
REMARK 922        TOTAL FREE ENERGY PREDICTED BY IDOCK:   -1.83 KCAL/MOL
REMARK 923 INTER-LIGAND FREE ENERGY PREDICTED BY IDOCK:   -1.83 KCAL/MOL
REMARK 924 INTRA-LIGAND FREE ENERGY PREDICTED BY IDOCK:    0.00 KCAL/MOL
REMARK 927      BINDING AFFINITY PREDICTED BY RF-SCORE:    0.00 PKD
ROOT
HETATM    1  C   UNL     1     -11.222  10.611  69.857  1.00  0.00    -0.378 C  
HETATM    2  C   UNL     1     -10.981   9.143  70.170  1.00  0.00    -0.239 C  
HETATM    3  O   UNL     1     -12.211   8.553  70.594  1.00  0.00    -0.497 OA 
HETATM    4  H   UNL     1     -12.060   7.636  70.788  1.00  0.00     0.000 HD 
ENDROOT
BRANCH   2   5
HETATM    5  C   UNL     1     -10.409   8.393  68.960  1.00  0.00    -0.218 C  
HETATM    6  O   UNL     1     -11.014   8.832  67.746  1.00  0.00    -0.494 OA 
HETATM    7  H   UNL     1     -10.660   8.367  66.996  1.00  0.00     0.000 HD 
ENDBRANCH   2   5
TORSDOF 1
ENDMDL
MODEL       90
REMARK 921   NORMALIZED FREE ENERGY PREDICTED BY IDOCK:   -1.71 KCAL/MOL
REMARK 922        TOTAL FREE ENERGY PREDICTED BY IDOCK:   -1.81 KCAL/MOL
REMARK 923 INTER-LIGAND FREE ENERGY PREDICTED BY IDOCK:   -1.81 KCAL/MOL
REMARK 924 INTRA-LIGAND FREE ENERGY PREDICTED BY IDOCK:    0.00 KCAL/MOL
REMARK 927      BINDING AFFINITY PREDICTED BY RF-SCORE:    0.00 PKD
ROOT
HETATM    1  C   UNL     1     -11.319  12.285  68.620  1.00  0.00    -0.339 C  
HETATM    2  C   UNL     1     -12.201  12.760  69.762  1.00  0.00    -0.147 C  
HETATM    3  O   UNL     1     -11.917  11.979  70.923  1.00  0.00    -0.418 OA 
HETATM    4  H   UNL     1     -12.468  12.276  71.637  1.00  0.00     0.000 HD 
ENDROOT
BRANCH   2   5
HETATM    5  C   UNL     1     -11.999  14.254  70.052  1.00  0.00    -0.334 C  
HETATM    6  O   UNL     1     -13.239  14.957  70.024  1.00  0.00    -0.577 OA 
HETATM    7  H   UNL     1     -13.114  15.883  70.203  1.00  0.00     0.000 HD 
ENDBRANCH   2   5
TORSDOF 1
ENDMDL
MODEL       91
REMARK 921   NORMALIZED FREE ENERGY PREDICTED BY IDOCK:   -1.71 KCAL/MOL
REMARK 922        TOTAL FREE ENERGY PREDICTED BY IDOCK:   -1.80 KCAL/MOL
REMARK 923 INTER-LIGAND FREE ENERGY PREDICTED BY IDOCK:   -1.80 KCAL/MOL
REMARK 924 INTRA-LIGAND FREE ENERGY PREDICTED BY IDOCK:    0.00 KCAL/MOL
REMARK 927      BINDING AFFINITY PREDICTED BY RF-SCORE:    0.00 PKD
ROOT
HETATM    1  C   UNL     1     -11.775  15.240  68.561  1.00  0.00    -0.352 C  
HETATM    2  C   UNL     1     -11.067  16.312  69.373  1.00  0.00    -0.328 C  
HETATM    3  O   UNL     1     -11.656  16.372  70.673  1.00  0.00    -0.519 OA 
HETATM    4  H   UNL     1     -11.214  17.042  71.180  1.00  0.00     0.000 HD 
ENDROOT
BRANCH   2   5
HETATM    5  C   UNL     1      -9.559  16.044  69.474  1.00  0.00    -0.200 C  
HETATM    6  O   UNL     1      -9.283  14.645  69.483  1.00  0.00    -0.407 OA 
HETATM    7  H   UNL     1      -8.349  14.478  69.546  1.00  0.00     0.000 HD 
ENDBRANCH   2   5
TORSDOF 1
ENDMDL
MODEL       92
REMARK 921   NORMALIZED FREE ENERGY PREDICTED BY IDOCK:   -1.70 KCAL/MOL
REMARK 922        TOTAL FREE ENERGY PREDICTED BY IDOCK:   -1.80 KCAL/MOL
REMARK 923 INTER-LIGAND FREE ENERGY PREDICTED BY IDOCK:   -1.80 KCAL/MOL
REMARK 924 INTRA-LIGAND FREE ENERGY PREDICTED BY IDOCK:    0.00 KCAL/MOL
REMARK 927      BINDING AFFINITY PREDICTED BY RF-SCORE:    0.00 PKD
ROOT
HETATM    1  C   UNL     1     -10.005   9.313  70.924  1.00  0.00    -0.367 C  
HETATM    2  C   UNL     1     -11.173   8.740  70.139  1.00  0.00    -0.152 C  
HETATM    3  O   UNL     1     -10.926   8.923  68.744  1.00  0.00    -0.431 OA 
HETATM    4  H   UNL     1     -11.656   8.565  68.253  1.00  0.00     0.000 HD 
ENDROOT
BRANCH   2   5
HETATM    5  C   UNL     1     -11.398   7.256  70.459  1.00  0.00    -0.280 C  
HETATM    6  O   UNL     1     -12.756   7.005  70.814  1.00  0.00    -0.574 OA 
HETATM    7  H   UNL     1     -12.896   6.086  71.013  1.00  0.00     0.000 HD 
ENDBRANCH   2   5
TORSDOF 1
ENDMDL
MODEL       93
REMARK 921   NORMALIZED FREE ENERGY PREDICTED BY IDOCK:   -1.68 KCAL/MOL
REMARK 922        TOTAL FREE ENERGY PREDICTED BY IDOCK:   -1.78 KCAL/MOL
REMARK 923 INTER-LIGAND FREE ENERGY PREDICTED BY IDOCK:   -1.78 KCAL/MOL
REMARK 924 INTRA-LIGAND FREE ENERGY PREDICTED BY IDOCK:    0.00 KCAL/MOL
REMARK 927      BINDING AFFINITY PREDICTED BY RF-SCORE:    0.00 PKD
ROOT
HETATM    1  C   UNL     1      -9.455  16.771  67.990  1.00  0.00    -0.233 C  
HETATM    2  C   UNL     1      -9.037  17.893  67.054  1.00  0.00    -0.253 C  
HETATM    3  O   UNL     1      -9.725  17.739  65.811  1.00  0.00    -0.534 OA 
HETATM    4  H   UNL     1      -9.463  18.440  65.227  1.00  0.00     0.000 HD 
ENDROOT
BRANCH   2   5
HETATM    5  C   UNL     1      -9.320  19.274  67.661  1.00  0.00    -0.307 C  
HETATM    6  O   UNL     1     -10.498  19.253  68.465  1.00  0.00    -0.452 OA 
HETATM    7  H   UNL     1     -10.673  20.108  68.841  1.00  0.00     0.000 HD 
ENDBRANCH   2   5
TORSDOF 1
ENDMDL
MODEL       94
REMARK 921   NORMALIZED FREE ENERGY PREDICTED BY IDOCK:   -1.66 KCAL/MOL
REMARK 922        TOTAL FREE ENERGY PREDICTED BY IDOCK:   -1.76 KCAL/MOL
REMARK 923 INTER-LIGAND FREE ENERGY PREDICTED BY IDOCK:   -1.76 KCAL/MOL
REMARK 924 INTRA-LIGAND FREE ENERGY PREDICTED BY IDOCK:    0.00 KCAL/MOL
REMARK 927      BINDING AFFINITY PREDICTED BY RF-SCORE:    0.00 PKD
ROOT
HETATM    1  C   UNL     1     -10.223  18.450  66.839  1.00  0.00    -0.403 C  
HETATM    2  C   UNL     1      -8.926  19.068  67.335  1.00  0.00    -0.291 C  
HETATM    3  O   UNL     1      -8.156  18.061  67.994  1.00  0.00    -0.243 OA 
HETATM    4  H   UNL     1      -7.346  18.447  68.304  1.00  0.00     0.000 HD 
ENDROOT
BRANCH   2   5
HETATM    5  C   UNL     1      -8.124  19.699  66.190  1.00  0.00    -0.346 C  
HETATM    6  O   UNL     1      -7.479  18.702  65.400  1.00  0.00    -0.473 OA 
HETATM    7  H   UNL     1      -6.982  19.093  64.690  1.00  0.00     0.000 HD 
ENDBRANCH   2   5
TORSDOF 1
ENDMDL
MODEL       95
REMARK 921   NORMALIZED FREE ENERGY PREDICTED BY IDOCK:   -1.64 KCAL/MOL
REMARK 922        TOTAL FREE ENERGY PREDICTED BY IDOCK:   -1.74 KCAL/MOL
REMARK 923 INTER-LIGAND FREE ENERGY PREDICTED BY IDOCK:   -1.74 KCAL/MOL
REMARK 924 INTRA-LIGAND FREE ENERGY PREDICTED BY IDOCK:    0.00 KCAL/MOL
REMARK 927      BINDING AFFINITY PREDICTED BY RF-SCORE:    0.00 PKD
ROOT
HETATM    1  C   UNL     1      -9.457   9.116  70.264  1.00  0.00    -0.253 C  
HETATM    2  C   UNL     1     -10.108  10.274  69.526  1.00  0.00    -0.235 C  
HETATM    3  O   UNL     1      -9.889  10.111  68.124  1.00  0.00    -0.142 OA 
HETATM    4  H   UNL     1     -10.296  10.834  67.663  1.00  0.00     0.000 HD 
ENDROOT
BRANCH   2   5
HETATM    5  C   UNL     1     -11.609  10.369  69.832  1.00  0.00    -0.284 C  
HETATM    6  O   UNL     1     -12.350  10.745  68.673  1.00  0.00    -0.825 OA 
HETATM    7  H   UNL     1     -13.279  10.804  68.862  1.00  0.00     0.000 HD 
ENDBRANCH   2   5
TORSDOF 1
ENDMDL
MODEL       96
REMARK 921   NORMALIZED FREE ENERGY PREDICTED BY IDOCK:   -1.64 KCAL/MOL
REMARK 922        TOTAL FREE ENERGY PREDICTED BY IDOCK:   -1.74 KCAL/MOL
REMARK 923 INTER-LIGAND FREE ENERGY PREDICTED BY IDOCK:   -1.74 KCAL/MOL
REMARK 924 INTRA-LIGAND FREE ENERGY PREDICTED BY IDOCK:    0.00 KCAL/MOL
REMARK 927      BINDING AFFINITY PREDICTED BY RF-SCORE:    0.00 PKD
ROOT
HETATM    1  C   UNL     1      -6.298  19.977  68.331  1.00  0.00    -0.313 C  
HETATM    2  C   UNL     1      -7.462  19.198  67.742  1.00  0.00    -0.254 C  
HETATM    3  O   UNL     1      -8.658  19.558  68.435  1.00  0.00    -0.343 OA 
HETATM    4  H   UNL     1      -9.385  19.071  68.066  1.00  0.00     0.000 HD 
ENDROOT
BRANCH   2   5
HETATM    5  C   UNL     1      -7.611  19.454  66.236  1.00  0.00    -0.288 C  
HETATM    6  O   UNL     1      -7.288  18.288  65.480  1.00  0.00    -0.539 OA 
HETATM    7  H   UNL     1      -7.380  18.446  64.547  1.00  0.00     0.000 HD 
ENDBRANCH   2   5
TORSDOF 1
ENDMDL
MODEL       97
REMARK 921   NORMALIZED FREE ENERGY PREDICTED BY IDOCK:   -1.63 KCAL/MOL
REMARK 922        TOTAL FREE ENERGY PREDICTED BY IDOCK:   -1.72 KCAL/MOL
REMARK 923 INTER-LIGAND FREE ENERGY PREDICTED BY IDOCK:   -1.72 KCAL/MOL
REMARK 924 INTRA-LIGAND FREE ENERGY PREDICTED BY IDOCK:    0.00 KCAL/MOL
REMARK 927      BINDING AFFINITY PREDICTED BY RF-SCORE:    0.00 PKD
ROOT
HETATM    1  C   UNL     1     -10.036   7.721  66.954  1.00  0.00    -0.331 C  
HETATM    2  C   UNL     1      -9.503   9.077  66.522  1.00  0.00    -0.206 C  
HETATM    3  O   UNL     1      -9.461   9.124  65.095  1.00  0.00    -0.435 OA 
HETATM    4  H   UNL     1      -9.129   9.972  64.826  1.00  0.00     0.000 HD 
ENDROOT
BRANCH   2   5
HETATM    5  C   UNL     1     -10.357  10.225  67.077  1.00  0.00    -0.243 C  
HETATM    6  O   UNL     1     -11.274   9.755  68.063  1.00  0.00    -0.508 OA 
HETATM    7  H   UNL     1     -11.804  10.466  68.407  1.00  0.00     0.000 HD 
ENDBRANCH   2   5
TORSDOF 1
ENDMDL
MODEL       98
REMARK 921   NORMALIZED FREE ENERGY PREDICTED BY IDOCK:   -1.61 KCAL/MOL
REMARK 922        TOTAL FREE ENERGY PREDICTED BY IDOCK:   -1.71 KCAL/MOL
REMARK 923 INTER-LIGAND FREE ENERGY PREDICTED BY IDOCK:   -1.71 KCAL/MOL
REMARK 924 INTRA-LIGAND FREE ENERGY PREDICTED BY IDOCK:    0.00 KCAL/MOL
REMARK 927      BINDING AFFINITY PREDICTED BY RF-SCORE:    0.00 PKD
ROOT
HETATM    1  C   UNL     1     -11.925  14.143  66.934  1.00  0.00    -0.479 C  
HETATM    2  C   UNL     1     -10.548  14.703  66.618  1.00  0.00    -0.289 C  
HETATM    3  O   UNL     1      -9.564  13.715  66.929  1.00  0.00    -0.245 OA 
HETATM    4  H   UNL     1      -8.704  14.066  66.731  1.00  0.00     0.000 HD 
ENDROOT
BRANCH   2   5
HETATM    5  C   UNL     1     -10.436  15.137  65.151  1.00  0.00    -0.410 C  
HETATM    6  O   UNL     1     -11.615  15.813  64.721  1.00  0.00    -0.284 OA 
HETATM    7  H   UNL     1     -11.546  16.082  63.811  1.00  0.00     0.000 HD 
ENDBRANCH   2   5
TORSDOF 1
ENDMDL
MODEL       99
REMARK 921   NORMALIZED FREE ENERGY PREDICTED BY IDOCK:   -1.60 KCAL/MOL
REMARK 922        TOTAL FREE ENERGY PREDICTED BY IDOCK:   -1.69 KCAL/MOL
REMARK 923 INTER-LIGAND FREE ENERGY PREDICTED BY IDOCK:   -1.69 KCAL/MOL
REMARK 924 INTRA-LIGAND FREE ENERGY PREDICTED BY IDOCK:    0.00 KCAL/MOL
REMARK 927      BINDING AFFINITY PREDICTED BY RF-SCORE:    0.00 PKD
ROOT
HETATM    1  C   UNL     1     -12.314   6.924  71.510  1.00  0.00    -0.420 C  
HETATM    2  C   UNL     1     -11.436   6.235  70.479  1.00  0.00    -0.338 C  
HETATM    3  O   UNL     1     -11.809   6.688  69.177  1.00  0.00    -0.592 OA 
HETATM    4  H   UNL     1     -11.260   6.257  68.533  1.00  0.00     0.000 HD 
ENDROOT
BRANCH   2   5
HETATM    5  C   UNL     1      -9.946   6.497  70.737  1.00  0.00    -0.184 C  
HETATM    6  O   UNL     1      -9.760   7.348  71.866  1.00  0.00    -0.155 OA 
HETATM    7  H   UNL     1      -8.837   7.510  72.026  1.00  0.00     0.000 HD 
ENDBRANCH   2   5
TORSDOF 1
ENDMDL
MODEL      100
REMARK 921   NORMALIZED FREE ENERGY PREDICTED BY IDOCK:   -1.59 KCAL/MOL
REMARK 922        TOTAL FREE ENERGY PREDICTED BY IDOCK:   -1.69 KCAL/MOL
REMARK 923 INTER-LIGAND FREE ENERGY PREDICTED BY IDOCK:   -1.69 KCAL/MOL
REMARK 924 INTRA-LIGAND FREE ENERGY PREDICTED BY IDOCK:    0.00 KCAL/MOL
REMARK 927      BINDING AFFINITY PREDICTED BY RF-SCORE:    0.00 PKD
ROOT
HETATM    1  C   UNL     1     -11.404   4.986  73.084  1.00  0.00    -0.397 C  
HETATM    2  C   UNL     1     -10.461   6.125  73.434  1.00  0.00    -0.253 C  
HETATM    3  O   UNL     1      -9.175   5.849  72.877  1.00  0.00    -0.139 OA 
HETATM    4  H   UNL     1      -8.587   6.561  73.097  1.00  0.00     0.000 HD 
ENDROOT
BRANCH   2   5
HETATM    5  C   UNL     1     -10.991   7.475  72.932  1.00  0.00    -0.383 C  
HETATM    6  O   UNL     1     -12.354   7.375  72.524  1.00  0.00    -0.514 OA 
HETATM    7  H   UNL     1     -12.682   8.211  72.213  1.00  0.00     0.000 HD 
ENDBRANCH   2   5
TORSDOF 1
ENDMDL
MODEL      101
REMARK 921   NORMALIZED FREE ENERGY PREDICTED BY IDOCK:   -1.58 KCAL/MOL
REMARK 922        TOTAL FREE ENERGY PREDICTED BY IDOCK:   -1.67 KCAL/MOL
REMARK 923 INTER-LIGAND FREE ENERGY PREDICTED BY IDOCK:   -1.67 KCAL/MOL
REMARK 924 INTRA-LIGAND FREE ENERGY PREDICTED BY IDOCK:    0.00 KCAL/MOL
REMARK 927      BINDING AFFINITY PREDICTED BY RF-SCORE:    0.00 PKD
ROOT
HETATM    1  C   UNL     1     -10.412   8.592  66.960  1.00  0.00    -0.362 C  
HETATM    2  C   UNL     1     -10.206   8.789  68.453  1.00  0.00    -0.196 C  
HETATM    3  O   UNL     1      -8.812   8.966  68.708  1.00  0.00    -0.135 OA 
HETATM    4  H   UNL     1      -8.684   9.089  69.641  1.00  0.00     0.000 HD 
ENDROOT
BRANCH   2   5
HETATM    5  C   UNL     1     -11.011   9.983  68.984  1.00  0.00    -0.212 C  
HETATM    6  O   UNL     1     -11.849  10.532  67.970  1.00  0.00    -0.765 OA 
HETATM    7  H   UNL     1     -12.347  11.272  68.298  1.00  0.00     0.000 HD 
ENDBRANCH   2   5
TORSDOF 1
ENDMDL
MODEL      102
REMARK 921   NORMALIZED FREE ENERGY PREDICTED BY IDOCK:   -1.54 KCAL/MOL
REMARK 922        TOTAL FREE ENERGY PREDICTED BY IDOCK:   -1.63 KCAL/MOL
REMARK 923 INTER-LIGAND FREE ENERGY PREDICTED BY IDOCK:   -1.63 KCAL/MOL
REMARK 924 INTRA-LIGAND FREE ENERGY PREDICTED BY IDOCK:    0.00 KCAL/MOL
REMARK 927      BINDING AFFINITY PREDICTED BY RF-SCORE:    0.00 PKD
ROOT
HETATM    1  C   UNL     1      -9.513  19.728  67.947  1.00  0.00    -0.458 C  
HETATM    2  C   UNL     1      -8.492  18.755  68.513  1.00  0.00    -0.345 C  
HETATM    3  O   UNL     1      -8.180  17.780  67.517  1.00  0.00    -0.220 OA 
HETATM    4  H   UNL     1      -7.543  17.172  67.872  1.00  0.00     0.000 HD 
ENDROOT
BRANCH   2   5
HETATM    5  C   UNL     1      -7.222  19.475  68.983  1.00  0.00    -0.362 C  
HETATM    6  O   UNL     1      -6.214  18.544  69.372  1.00  0.00    -0.248 OA 
HETATM    7  H   UNL     1      -5.427  18.990  69.663  1.00  0.00     0.000 HD 
ENDBRANCH   2   5
TORSDOF 1
ENDMDL
MODEL      103
REMARK 921   NORMALIZED FREE ENERGY PREDICTED BY IDOCK:   -1.54 KCAL/MOL
REMARK 922        TOTAL FREE ENERGY PREDICTED BY IDOCK:   -1.63 KCAL/MOL
REMARK 923 INTER-LIGAND FREE ENERGY PREDICTED BY IDOCK:   -1.63 KCAL/MOL
REMARK 924 INTRA-LIGAND FREE ENERGY PREDICTED BY IDOCK:    0.00 KCAL/MOL
REMARK 927      BINDING AFFINITY PREDICTED BY RF-SCORE:    0.00 PKD
ROOT
HETATM    1  C   UNL     1     -10.830   6.285  71.502  1.00  0.00    -0.303 C  
HETATM    2  C   UNL     1     -11.141   7.712  71.921  1.00  0.00    -0.249 C  
HETATM    3  O   UNL     1     -12.383   7.727  72.626  1.00  0.00    -0.562 OA 
HETATM    4  H   UNL     1     -12.576   8.619  72.888  1.00  0.00     0.000 HD 
ENDROOT
BRANCH   2   5
HETATM    5  C   UNL     1     -10.020   8.307  72.784  1.00  0.00    -0.263 C  
HETATM    6  O   UNL     1      -9.631   7.405  73.817  1.00  0.00    -0.255 OA 
HETATM    7  H   UNL     1      -8.936   7.773  74.352  1.00  0.00     0.000 HD 
ENDBRANCH   2   5
TORSDOF 1
ENDMDL
MODEL      104
REMARK 921   NORMALIZED FREE ENERGY PREDICTED BY IDOCK:   -1.53 KCAL/MOL
REMARK 922        TOTAL FREE ENERGY PREDICTED BY IDOCK:   -1.62 KCAL/MOL
REMARK 923 INTER-LIGAND FREE ENERGY PREDICTED BY IDOCK:   -1.62 KCAL/MOL
REMARK 924 INTRA-LIGAND FREE ENERGY PREDICTED BY IDOCK:    0.00 KCAL/MOL
REMARK 927      BINDING AFFINITY PREDICTED BY RF-SCORE:    0.00 PKD
ROOT
HETATM    1  C   UNL     1     -11.081   6.308  67.850  1.00  0.00    -0.360 C  
HETATM    2  C   UNL     1     -10.193   7.526  67.656  1.00  0.00    -0.213 C  
HETATM    3  O   UNL     1     -10.601   8.212  66.472  1.00  0.00    -0.398 OA 
HETATM    4  H   UNL     1     -10.046   8.973  66.351  1.00  0.00     0.000 HD 
ENDROOT
BRANCH   2   5
HETATM    5  C   UNL     1     -10.244   8.464  68.870  1.00  0.00    -0.210 C  
HETATM    6  O   UNL     1     -11.449   8.283  69.611  1.00  0.00    -0.439 OA 
HETATM    7  H   UNL     1     -11.481   8.864  70.363  1.00  0.00     0.000 HD 
ENDBRANCH   2   5
TORSDOF 1
ENDMDL
MODEL      105
REMARK 921   NORMALIZED FREE ENERGY PREDICTED BY IDOCK:   -1.52 KCAL/MOL
REMARK 922        TOTAL FREE ENERGY PREDICTED BY IDOCK:   -1.61 KCAL/MOL
REMARK 923 INTER-LIGAND FREE ENERGY PREDICTED BY IDOCK:   -1.61 KCAL/MOL
REMARK 924 INTRA-LIGAND FREE ENERGY PREDICTED BY IDOCK:    0.00 KCAL/MOL
REMARK 927      BINDING AFFINITY PREDICTED BY RF-SCORE:    0.00 PKD
ROOT
HETATM    1  C   UNL     1      -8.556   8.105  73.495  1.00  0.00    -0.313 C  
HETATM    2  C   UNL     1      -9.423   7.738  72.302  1.00  0.00    -0.170 C  
HETATM    3  O   UNL     1      -9.678   6.333  72.329  1.00  0.00    -0.157 OA 
HETATM    4  H   UNL     1     -10.220   6.104  71.584  1.00  0.00     0.000 HD 
ENDROOT
BRANCH   2   5
HETATM    5  C   UNL     1     -10.739   8.527  72.294  1.00  0.00    -0.341 C  
HETATM    6  O   UNL     1     -11.698   7.940  73.172  1.00  0.00    -0.630 OA 
HETATM    7  H   UNL     1     -12.514   8.429  73.167  1.00  0.00     0.000 HD 
ENDBRANCH   2   5
TORSDOF 1
ENDMDL
MODEL      106
REMARK 921   NORMALIZED FREE ENERGY PREDICTED BY IDOCK:   -1.51 KCAL/MOL
REMARK 922        TOTAL FREE ENERGY PREDICTED BY IDOCK:   -1.60 KCAL/MOL
REMARK 923 INTER-LIGAND FREE ENERGY PREDICTED BY IDOCK:   -1.60 KCAL/MOL
REMARK 924 INTRA-LIGAND FREE ENERGY PREDICTED BY IDOCK:    0.00 KCAL/MOL
REMARK 927      BINDING AFFINITY PREDICTED BY RF-SCORE:    0.00 PKD
ROOT
HETATM    1  C   UNL     1      -9.501  12.301  67.177  1.00  0.00    -0.196 C  
HETATM    2  C   UNL     1     -10.442  13.423  67.584  1.00  0.00    -0.241 C  
HETATM    3  O   UNL     1      -9.680  14.610  67.805  1.00  0.00    -0.211 OA 
HETATM    4  H   UNL     1     -10.268  15.310  68.059  1.00  0.00     0.000 HD 
ENDROOT
BRANCH   2   5
HETATM    5  C   UNL     1     -11.527  13.664  66.526  1.00  0.00    -0.335 C  
HETATM    6  O   UNL     1     -12.224  12.459  66.217  1.00  0.00    -0.620 OA 
HETATM    7  H   UNL     1     -12.896  12.609  65.561  1.00  0.00     0.000 HD 
ENDBRANCH   2   5
TORSDOF 1
ENDMDL
MODEL      107
REMARK 921   NORMALIZED FREE ENERGY PREDICTED BY IDOCK:   -1.51 KCAL/MOL
REMARK 922        TOTAL FREE ENERGY PREDICTED BY IDOCK:   -1.60 KCAL/MOL
REMARK 923 INTER-LIGAND FREE ENERGY PREDICTED BY IDOCK:   -1.60 KCAL/MOL
REMARK 924 INTRA-LIGAND FREE ENERGY PREDICTED BY IDOCK:    0.00 KCAL/MOL
REMARK 927      BINDING AFFINITY PREDICTED BY RF-SCORE:    0.00 PKD
ROOT
HETATM    1  C   UNL     1     -11.265   6.333  70.523  1.00  0.00    -0.420 C  
HETATM    2  C   UNL     1     -10.727   6.003  69.141  1.00  0.00    -0.331 C  
HETATM    3  O   UNL     1     -11.612   6.543  68.159  1.00  0.00    -0.570 OA 
HETATM    4  H   UNL     1     -11.276   6.337  67.295  1.00  0.00     0.000 HD 
ENDROOT
BRANCH   2   5
HETATM    5  C   UNL     1      -9.304   6.543  68.942  1.00  0.00    -0.131 C  
HETATM    6  O   UNL     1      -9.302   7.964  68.833  1.00  0.00    -0.150 OA 
HETATM    7  H   UNL     1      -8.421   8.299  68.710  1.00  0.00     0.000 HD 
ENDBRANCH   2   5
TORSDOF 1
ENDMDL
MODEL      108
REMARK 921   NORMALIZED FREE ENERGY PREDICTED BY IDOCK:   -1.48 KCAL/MOL
REMARK 922        TOTAL FREE ENERGY PREDICTED BY IDOCK:   -1.57 KCAL/MOL
REMARK 923 INTER-LIGAND FREE ENERGY PREDICTED BY IDOCK:   -1.57 KCAL/MOL
REMARK 924 INTRA-LIGAND FREE ENERGY PREDICTED BY IDOCK:    0.00 KCAL/MOL
REMARK 927      BINDING AFFINITY PREDICTED BY RF-SCORE:    0.00 PKD
ROOT
HETATM    1  C   UNL     1      -9.164  16.399  67.933  1.00  0.00    -0.202 C  
HETATM    2  C   UNL     1      -8.489  16.496  66.575  1.00  0.00    -0.293 C  
HETATM    3  O   UNL     1      -9.341  17.221  65.686  1.00  0.00    -0.506 OA 
HETATM    4  H   UNL     1      -8.919  17.281  64.838  1.00  0.00     0.000 HD 
ENDROOT
BRANCH   2   5
HETATM    5  C   UNL     1      -7.112  17.166  66.672  1.00  0.00    -0.248 C  
HETATM    6  O   UNL     1      -6.091  16.209  66.945  1.00  0.00    -0.321 OA 
HETATM    7  H   UNL     1      -5.237  16.624  67.005  1.00  0.00     0.000 HD 
ENDBRANCH   2   5
TORSDOF 1
ENDMDL
MODEL      109
REMARK 921   NORMALIZED FREE ENERGY PREDICTED BY IDOCK:   -1.47 KCAL/MOL
REMARK 922        TOTAL FREE ENERGY PREDICTED BY IDOCK:   -1.56 KCAL/MOL
REMARK 923 INTER-LIGAND FREE ENERGY PREDICTED BY IDOCK:   -1.56 KCAL/MOL
REMARK 924 INTRA-LIGAND FREE ENERGY PREDICTED BY IDOCK:    0.00 KCAL/MOL
REMARK 927      BINDING AFFINITY PREDICTED BY RF-SCORE:    0.00 PKD
ROOT
HETATM    1  C   UNL     1      -8.767   5.580  67.888  1.00  0.00    -0.106 C  
HETATM    2  C   UNL     1      -9.809   5.646  66.784  1.00  0.00    -0.164 C  
HETATM    3  O   UNL     1     -10.245   4.321  66.478  1.00  0.00    -0.338 OA 
HETATM    4  H   UNL     1     -10.896   4.363  65.788  1.00  0.00     0.000 HD 
ENDROOT
BRANCH   2   5
HETATM    5  C   UNL     1     -10.999   6.530  67.181  1.00  0.00    -0.408 C  
HETATM    6  O   UNL     1     -11.339   6.352  68.554  1.00  0.00    -0.540 OA 
HETATM    7  H   UNL     1     -12.076   6.899  68.800  1.00  0.00     0.000 HD 
ENDBRANCH   2   5
TORSDOF 1
ENDMDL
MODEL      110
REMARK 921   NORMALIZED FREE ENERGY PREDICTED BY IDOCK:   -1.46 KCAL/MOL
REMARK 922        TOTAL FREE ENERGY PREDICTED BY IDOCK:   -1.54 KCAL/MOL
REMARK 923 INTER-LIGAND FREE ENERGY PREDICTED BY IDOCK:   -1.54 KCAL/MOL
REMARK 924 INTRA-LIGAND FREE ENERGY PREDICTED BY IDOCK:    0.00 KCAL/MOL
REMARK 927      BINDING AFFINITY PREDICTED BY RF-SCORE:    0.00 PKD
ROOT
HETATM    1  C   UNL     1      -8.355   8.078  74.010  1.00  0.00    -0.323 C  
HETATM    2  C   UNL     1      -9.140   7.120  73.130  1.00  0.00    -0.141 C  
HETATM    3  O   UNL     1      -8.377   5.925  72.951  1.00  0.00    -0.118 OA 
HETATM    4  H   UNL     1      -8.868   5.327  72.401  1.00  0.00     0.000 HD 
ENDROOT
BRANCH   2   5
HETATM    5  C   UNL     1     -10.517   6.799  73.727  1.00  0.00    -0.354 C  
HETATM    6  O   UNL     1     -11.525   7.650  73.186  1.00  0.00    -0.604 OA 
HETATM    7  H   UNL     1     -12.378   7.451  73.556  1.00  0.00     0.000 HD 
ENDBRANCH   2   5
TORSDOF 1
ENDMDL
MODEL      111
REMARK 921   NORMALIZED FREE ENERGY PREDICTED BY IDOCK:   -1.45 KCAL/MOL
REMARK 922        TOTAL FREE ENERGY PREDICTED BY IDOCK:   -1.54 KCAL/MOL
REMARK 923 INTER-LIGAND FREE ENERGY PREDICTED BY IDOCK:   -1.54 KCAL/MOL
REMARK 924 INTRA-LIGAND FREE ENERGY PREDICTED BY IDOCK:    0.00 KCAL/MOL
REMARK 927      BINDING AFFINITY PREDICTED BY RF-SCORE:    0.00 PKD
ROOT
HETATM    1  C   UNL     1     -11.018   5.859  69.556  1.00  0.00    -0.438 C  
HETATM    2  C   UNL     1     -10.336   7.217  69.525  1.00  0.00    -0.225 C  
HETATM    3  O   UNL     1     -10.158   7.614  68.164  1.00  0.00    -0.173 OA 
HETATM    4  H   UNL     1      -9.733   8.463  68.145  1.00  0.00     0.000 HD 
ENDROOT
BRANCH   2   5
HETATM    5  C   UNL     1     -11.140   8.273  70.296  1.00  0.00    -0.219 C  
HETATM    6  O   UNL     1     -12.338   7.718  70.834  1.00  0.00    -0.481 OA 
HETATM    7  H   UNL     1     -12.837   8.372  71.312  1.00  0.00     0.000 HD 
ENDBRANCH   2   5
TORSDOF 1
ENDMDL
MODEL      112
REMARK 921   NORMALIZED FREE ENERGY PREDICTED BY IDOCK:   -1.45 KCAL/MOL
REMARK 922        TOTAL FREE ENERGY PREDICTED BY IDOCK:   -1.54 KCAL/MOL
REMARK 923 INTER-LIGAND FREE ENERGY PREDICTED BY IDOCK:   -1.54 KCAL/MOL
REMARK 924 INTRA-LIGAND FREE ENERGY PREDICTED BY IDOCK:    0.00 KCAL/MOL
REMARK 927      BINDING AFFINITY PREDICTED BY RF-SCORE:    0.00 PKD
ROOT
HETATM    1  C   UNL     1      -8.596   3.240  65.242  1.00  0.00    -0.107 C  
HETATM    2  C   UNL     1      -9.927   3.927  64.987  1.00  0.00    -0.184 C  
HETATM    3  O   UNL     1      -9.744   5.340  65.085  1.00  0.00    -0.364 OA 
HETATM    4  H   UNL     1     -10.576   5.769  64.926  1.00  0.00     0.000 HD 
ENDROOT
BRANCH   2   5
HETATM    5  C   UNL     1     -10.508   3.549  63.618  1.00  0.00    -0.258 C  
HETATM    6  O   UNL     1     -11.396   2.439  63.723  1.00  0.00    -0.623 OA 
HETATM    7  H   UNL     1     -11.755   2.204  62.874  1.00  0.00     0.000 HD 
ENDBRANCH   2   5
TORSDOF 1
ENDMDL
MODEL      113
REMARK 921   NORMALIZED FREE ENERGY PREDICTED BY IDOCK:   -1.45 KCAL/MOL
REMARK 922        TOTAL FREE ENERGY PREDICTED BY IDOCK:   -1.53 KCAL/MOL
REMARK 923 INTER-LIGAND FREE ENERGY PREDICTED BY IDOCK:   -1.53 KCAL/MOL
REMARK 924 INTRA-LIGAND FREE ENERGY PREDICTED BY IDOCK:    0.00 KCAL/MOL
REMARK 927      BINDING AFFINITY PREDICTED BY RF-SCORE:    0.00 PKD
ROOT
HETATM    1  C   UNL     1     -11.027   4.291  73.698  1.00  0.00    -0.364 C  
HETATM    2  C   UNL     1     -11.301   5.411  72.707  1.00  0.00    -0.296 C  
HETATM    3  O   UNL     1     -11.378   6.648  73.416  1.00  0.00    -0.473 OA 
HETATM    4  H   UNL     1     -11.550   7.347  72.797  1.00  0.00     0.000 HD 
ENDROOT
BRANCH   2   5
HETATM    5  C   UNL     1     -10.224   5.478  71.615  1.00  0.00    -0.209 C  
HETATM    6  O   UNL     1     -10.133   6.789  71.061  1.00  0.00    -0.189 OA 
HETATM    7  H   UNL     1      -9.467   6.831  70.384  1.00  0.00     0.000 HD 
ENDBRANCH   2   5
TORSDOF 1
ENDMDL
MODEL      114
REMARK 921   NORMALIZED FREE ENERGY PREDICTED BY IDOCK:   -1.43 KCAL/MOL
REMARK 922        TOTAL FREE ENERGY PREDICTED BY IDOCK:   -1.52 KCAL/MOL
REMARK 923 INTER-LIGAND FREE ENERGY PREDICTED BY IDOCK:   -1.52 KCAL/MOL
REMARK 924 INTRA-LIGAND FREE ENERGY PREDICTED BY IDOCK:    0.00 KCAL/MOL
REMARK 927      BINDING AFFINITY PREDICTED BY RF-SCORE:    0.00 PKD
ROOT
HETATM    1  C   UNL     1      -7.199   9.560  64.139  1.00  0.00    -0.115 C  
HETATM    2  C   UNL     1      -8.590   9.836  63.591  1.00  0.00    -0.201 C  
HETATM    3  O   UNL     1      -8.963   8.769  62.718  1.00  0.00    -0.433 OA 
HETATM    4  H   UNL     1      -9.832   8.941  62.376  1.00  0.00     0.000 HD 
ENDROOT
BRANCH   2   5
HETATM    5  C   UNL     1      -9.620  10.002  64.716  1.00  0.00    -0.308 C  
HETATM    6  O   UNL     1      -9.702   8.826  65.518  1.00  0.00    -0.459 OA 
HETATM    7  H   UNL     1     -10.340   8.928  66.215  1.00  0.00     0.000 HD 
ENDBRANCH   2   5
TORSDOF 1
ENDMDL
MODEL      115
REMARK 921   NORMALIZED FREE ENERGY PREDICTED BY IDOCK:   -1.43 KCAL/MOL
REMARK 922        TOTAL FREE ENERGY PREDICTED BY IDOCK:   -1.52 KCAL/MOL
REMARK 923 INTER-LIGAND FREE ENERGY PREDICTED BY IDOCK:   -1.52 KCAL/MOL
REMARK 924 INTRA-LIGAND FREE ENERGY PREDICTED BY IDOCK:    0.00 KCAL/MOL
REMARK 927      BINDING AFFINITY PREDICTED BY RF-SCORE:    0.00 PKD
ROOT
HETATM    1  C   UNL     1      -9.454  15.586  69.341  1.00  0.00    -0.278 C  
HETATM    2  C   UNL     1      -9.815  16.444  68.140  1.00  0.00    -0.238 C  
HETATM    3  O   UNL     1     -10.949  15.872  67.486  1.00  0.00    -0.323 OA 
HETATM    4  H   UNL     1     -11.173  16.408  66.736  1.00  0.00     0.000 HD 
ENDROOT
BRANCH   2   5
HETATM    5  C   UNL     1     -10.098  17.897  68.544  1.00  0.00    -0.391 C  
HETATM    6  O   UNL     1      -9.297  18.807  67.794  1.00  0.00    -0.286 OA 
HETATM    7  H   UNL     1      -9.472  19.707  68.045  1.00  0.00     0.000 HD 
ENDBRANCH   2   5
TORSDOF 1
ENDMDL
MODEL      116
REMARK 921   NORMALIZED FREE ENERGY PREDICTED BY IDOCK:   -1.42 KCAL/MOL
REMARK 922        TOTAL FREE ENERGY PREDICTED BY IDOCK:   -1.50 KCAL/MOL
REMARK 923 INTER-LIGAND FREE ENERGY PREDICTED BY IDOCK:   -1.50 KCAL/MOL
REMARK 924 INTRA-LIGAND FREE ENERGY PREDICTED BY IDOCK:    0.00 KCAL/MOL
REMARK 927      BINDING AFFINITY PREDICTED BY RF-SCORE:    0.00 PKD
ROOT
HETATM    1  C   UNL     1     -12.816   8.711  72.453  1.00  0.00    -0.413 C  
HETATM    2  C   UNL     1     -11.583   7.911  72.069  1.00  0.00    -0.308 C  
HETATM    3  O   UNL     1     -10.438   8.762  72.142  1.00  0.00    -0.337 OA 
HETATM    4  H   UNL     1      -9.667   8.262  71.902  1.00  0.00     0.000 HD 
ENDROOT
BRANCH   2   5
HETATM    5  C   UNL     1     -11.401   6.682  72.970  1.00  0.00    -0.063 C  
HETATM    6  O   UNL     1     -10.521   6.962  74.055  1.00  0.00    -0.384 OA 
HETATM    7  H   UNL     1     -10.408   6.200  74.613  1.00  0.00     0.000 HD 
ENDBRANCH   2   5
TORSDOF 1
ENDMDL
MODEL      117
REMARK 921   NORMALIZED FREE ENERGY PREDICTED BY IDOCK:   -1.42 KCAL/MOL
REMARK 922        TOTAL FREE ENERGY PREDICTED BY IDOCK:   -1.50 KCAL/MOL
REMARK 923 INTER-LIGAND FREE ENERGY PREDICTED BY IDOCK:   -1.50 KCAL/MOL
REMARK 924 INTRA-LIGAND FREE ENERGY PREDICTED BY IDOCK:    0.00 KCAL/MOL
REMARK 927      BINDING AFFINITY PREDICTED BY RF-SCORE:    0.00 PKD
ROOT
HETATM    1  C   UNL     1      -9.400  20.399  66.843  1.00  0.00    -0.477 C  
HETATM    2  C   UNL     1      -8.181  19.567  67.205  1.00  0.00    -0.288 C  
HETATM    3  O   UNL     1      -7.281  20.371  67.969  1.00  0.00    -0.290 OA 
HETATM    4  H   UNL     1      -6.520  19.851  68.195  1.00  0.00     0.000 HD 
ENDROOT
BRANCH   2   5
HETATM    5  C   UNL     1      -8.568  18.301  67.981  1.00  0.00    -0.269 C  
HETATM    6  O   UNL     1      -7.531  17.323  67.924  1.00  0.00    -0.175 OA 
HETATM    7  H   UNL     1      -7.771  16.539  68.405  1.00  0.00     0.000 HD 
ENDBRANCH   2   5
TORSDOF 1
ENDMDL
MODEL      118
REMARK 921   NORMALIZED FREE ENERGY PREDICTED BY IDOCK:   -1.41 KCAL/MOL
REMARK 922        TOTAL FREE ENERGY PREDICTED BY IDOCK:   -1.50 KCAL/MOL
REMARK 923 INTER-LIGAND FREE ENERGY PREDICTED BY IDOCK:   -1.50 KCAL/MOL
REMARK 924 INTRA-LIGAND FREE ENERGY PREDICTED BY IDOCK:    0.00 KCAL/MOL
REMARK 927      BINDING AFFINITY PREDICTED BY RF-SCORE:    0.00 PKD
ROOT
HETATM    1  C   UNL     1     -10.005  11.112  67.065  1.00  0.00    -0.223 C  
HETATM    2  C   UNL     1     -10.396  12.335  67.877  1.00  0.00    -0.208 C  
HETATM    3  O   UNL     1     -10.162  12.067  69.260  1.00  0.00    -0.418 OA 
HETATM    4  H   UNL     1     -10.406  12.832  69.767  1.00  0.00     0.000 HD 
ENDROOT
BRANCH   2   5
HETATM    5  C   UNL     1      -9.623  13.583  67.429  1.00  0.00    -0.227 C  
HETATM    6  O   UNL     1      -8.453  13.230  66.695  1.00  0.00    -0.421 OA 
HETATM    7  H   UNL     1      -7.974  14.003  66.417  1.00  0.00     0.000 HD 
ENDBRANCH   2   5
TORSDOF 1
ENDMDL
MODEL      119
REMARK 921   NORMALIZED FREE ENERGY PREDICTED BY IDOCK:   -1.41 KCAL/MOL
REMARK 922        TOTAL FREE ENERGY PREDICTED BY IDOCK:   -1.49 KCAL/MOL
REMARK 923 INTER-LIGAND FREE ENERGY PREDICTED BY IDOCK:   -1.49 KCAL/MOL
REMARK 924 INTRA-LIGAND FREE ENERGY PREDICTED BY IDOCK:    0.00 KCAL/MOL
REMARK 927      BINDING AFFINITY PREDICTED BY RF-SCORE:    0.00 PKD
ROOT
HETATM    1  C   UNL     1      -9.394   9.234  66.571  1.00  0.00    -0.231 C  
HETATM    2  C   UNL     1     -10.548  10.220  66.501  1.00  0.00    -0.132 C  
HETATM    3  O   UNL     1     -11.319  10.116  67.699  1.00  0.00    -0.491 OA 
HETATM    4  H   UNL     1     -12.040  10.732  67.655  1.00  0.00     0.000 HD 
ENDROOT
BRANCH   2   5
HETATM    5  C   UNL     1     -10.053  11.658  66.298  1.00  0.00    -0.221 C  
HETATM    6  O   UNL     1      -9.134  11.739  65.212  1.00  0.00    -0.413 OA 
HETATM    7  H   UNL     1      -8.827  12.630  65.086  1.00  0.00     0.000 HD 
ENDBRANCH   2   5
TORSDOF 1
ENDMDL
MODEL      120
REMARK 921   NORMALIZED FREE ENERGY PREDICTED BY IDOCK:   -1.38 KCAL/MOL
REMARK 922        TOTAL FREE ENERGY PREDICTED BY IDOCK:   -1.46 KCAL/MOL
REMARK 923 INTER-LIGAND FREE ENERGY PREDICTED BY IDOCK:   -1.46 KCAL/MOL
REMARK 924 INTRA-LIGAND FREE ENERGY PREDICTED BY IDOCK:    0.00 KCAL/MOL
REMARK 927      BINDING AFFINITY PREDICTED BY RF-SCORE:    0.00 PKD
ROOT
HETATM    1  C   UNL     1      -9.268  16.487  66.448  1.00  0.00    -0.327 C  
HETATM    2  C   UNL     1     -10.423  16.265  67.411  1.00  0.00    -0.304 C  
HETATM    3  O   UNL     1     -10.975  14.968  67.181  1.00  0.00    -0.315 OA 
HETATM    4  H   UNL     1     -11.697  14.830  67.782  1.00  0.00     0.000 HD 
ENDROOT
BRANCH   2   5
HETATM    5  C   UNL     1      -9.979  16.413  68.873  1.00  0.00    -0.257 C  
HETATM    6  O   UNL     1     -10.795  15.630  69.741  1.00  0.00    -0.256 OA 
HETATM    7  H   UNL     1     -10.521  15.722  70.647  1.00  0.00     0.000 HD 
ENDBRANCH   2   5
TORSDOF 1
ENDMDL
MODEL      121
REMARK 921   NORMALIZED FREE ENERGY PREDICTED BY IDOCK:   -1.38 KCAL/MOL
REMARK 922        TOTAL FREE ENERGY PREDICTED BY IDOCK:   -1.46 KCAL/MOL
REMARK 923 INTER-LIGAND FREE ENERGY PREDICTED BY IDOCK:   -1.46 KCAL/MOL
REMARK 924 INTRA-LIGAND FREE ENERGY PREDICTED BY IDOCK:    0.00 KCAL/MOL
REMARK 927      BINDING AFFINITY PREDICTED BY RF-SCORE:    0.00 PKD
ROOT
HETATM    1  C   UNL     1     -10.244   8.295  68.793  1.00  0.00    -0.226 C  
HETATM    2  C   UNL     1     -10.605   9.514  69.624  1.00  0.00    -0.228 C  
HETATM    3  O   UNL     1     -11.842  10.048  69.150  1.00  0.00    -0.485 OA 
HETATM    4  H   UNL     1     -12.067  10.810  69.669  1.00  0.00     0.000 HD 
ENDROOT
BRANCH   2   5
HETATM    5  C   UNL     1     -10.700   9.175  71.118  1.00  0.00    -0.310 C  
HETATM    6  O   UNL     1     -10.425   7.795  71.352  1.00  0.00    -0.207 OA 
HETATM    7  H   UNL     1     -10.483   7.585  72.277  1.00  0.00     0.000 HD 
ENDBRANCH   2   5
TORSDOF 1
ENDMDL
MODEL      122
REMARK 921   NORMALIZED FREE ENERGY PREDICTED BY IDOCK:   -1.37 KCAL/MOL
REMARK 922        TOTAL FREE ENERGY PREDICTED BY IDOCK:   -1.45 KCAL/MOL
REMARK 923 INTER-LIGAND FREE ENERGY PREDICTED BY IDOCK:   -1.45 KCAL/MOL
REMARK 924 INTRA-LIGAND FREE ENERGY PREDICTED BY IDOCK:    0.00 KCAL/MOL
REMARK 927      BINDING AFFINITY PREDICTED BY RF-SCORE:    0.00 PKD
ROOT
HETATM    1  C   UNL     1      -8.218  10.628  67.587  1.00  0.00    -0.107 C  
HETATM    2  C   UNL     1      -9.211  10.302  68.690  1.00  0.00    -0.159 C  
HETATM    3  O   UNL     1      -9.637  11.519  69.304  1.00  0.00    -0.402 OA 
HETATM    4  H   UNL     1     -10.257  11.314  69.993  1.00  0.00     0.000 HD 
ENDROOT
BRANCH   2   5
HETATM    5  C   UNL     1     -10.415   9.515  68.155  1.00  0.00    -0.223 C  
HETATM    6  O   UNL     1     -11.638  10.195  68.429  1.00  0.00    -0.562 OA 
HETATM    7  H   UNL     1     -12.384   9.707  68.097  1.00  0.00     0.000 HD 
ENDBRANCH   2   5
TORSDOF 1
ENDMDL
MODEL      123
REMARK 921   NORMALIZED FREE ENERGY PREDICTED BY IDOCK:   -1.37 KCAL/MOL
REMARK 922        TOTAL FREE ENERGY PREDICTED BY IDOCK:   -1.45 KCAL/MOL
REMARK 923 INTER-LIGAND FREE ENERGY PREDICTED BY IDOCK:   -1.45 KCAL/MOL
REMARK 924 INTRA-LIGAND FREE ENERGY PREDICTED BY IDOCK:    0.00 KCAL/MOL
REMARK 927      BINDING AFFINITY PREDICTED BY RF-SCORE:    0.00 PKD
ROOT
HETATM    1  C   UNL     1      -9.451   9.482  65.693  1.00  0.00    -0.326 C  
HETATM    2  C   UNL     1      -9.130  10.077  64.333  1.00  0.00    -0.247 C  
HETATM    3  O   UNL     1      -9.282  11.496  64.400  1.00  0.00    -0.405 OA 
HETATM    4  H   UNL     1      -9.081  11.867  63.550  1.00  0.00     0.000 HD 
ENDROOT
BRANCH   2   5
HETATM    5  C   UNL     1      -7.714   9.705  63.871  1.00  0.00    -0.131 C  
HETATM    6  O   UNL     1      -6.843  10.833  63.919  1.00  0.00    -0.343 OA 
HETATM    7  H   UNL     1      -5.966  10.603  63.633  1.00  0.00     0.000 HD 
ENDBRANCH   2   5
TORSDOF 1
ENDMDL
MODEL      124
REMARK 921   NORMALIZED FREE ENERGY PREDICTED BY IDOCK:   -1.36 KCAL/MOL
REMARK 922        TOTAL FREE ENERGY PREDICTED BY IDOCK:   -1.44 KCAL/MOL
REMARK 923 INTER-LIGAND FREE ENERGY PREDICTED BY IDOCK:   -1.44 KCAL/MOL
REMARK 924 INTRA-LIGAND FREE ENERGY PREDICTED BY IDOCK:    0.00 KCAL/MOL
REMARK 927      BINDING AFFINITY PREDICTED BY RF-SCORE:    0.00 PKD
ROOT
HETATM    1  C   UNL     1      -9.700   4.482  72.164  1.00  0.00    -0.220 C  
HETATM    2  C   UNL     1     -10.510   5.661  71.650  1.00  0.00    -0.228 C  
HETATM    3  O   UNL     1     -10.846   5.431  70.281  1.00  0.00    -0.266 OA 
HETATM    4  H   UNL     1     -11.352   6.168  69.961  1.00  0.00     0.000 HD 
ENDROOT
BRANCH   2   5
HETATM    5  C   UNL     1     -11.775   5.888  72.488  1.00  0.00    -0.236 C  
HETATM    6  O   UNL     1     -12.152   7.263  72.492  1.00  0.00    -0.494 OA 
HETATM    7  H   UNL     1     -12.936   7.404  73.011  1.00  0.00     0.000 HD 
ENDBRANCH   2   5
TORSDOF 1
ENDMDL
MODEL      125
REMARK 921   NORMALIZED FREE ENERGY PREDICTED BY IDOCK:   -1.36 KCAL/MOL
REMARK 922        TOTAL FREE ENERGY PREDICTED BY IDOCK:   -1.44 KCAL/MOL
REMARK 923 INTER-LIGAND FREE ENERGY PREDICTED BY IDOCK:   -1.44 KCAL/MOL
REMARK 924 INTRA-LIGAND FREE ENERGY PREDICTED BY IDOCK:    0.00 KCAL/MOL
REMARK 927      BINDING AFFINITY PREDICTED BY RF-SCORE:    0.00 PKD
ROOT
HETATM    1  C   UNL     1      -8.553  11.148  68.137  1.00  0.00    -0.140 C  
HETATM    2  C   UNL     1      -8.743  12.503  67.476  1.00  0.00    -0.182 C  
HETATM    3  O   UNL     1      -7.568  12.823  66.730  1.00  0.00    -0.387 OA 
HETATM    4  H   UNL     1      -7.687  13.669  66.317  1.00  0.00     0.000 HD 
ENDROOT
BRANCH   2   5
HETATM    5  C   UNL     1      -9.982  12.523  66.570  1.00  0.00    -0.244 C  
HETATM    6  O   UNL     1      -9.686  13.111  65.305  1.00  0.00    -0.492 OA 
HETATM    7  H   UNL     1     -10.454  13.124  64.744  1.00  0.00     0.000 HD 
ENDBRANCH   2   5
TORSDOF 1
ENDMDL
MODEL      126
REMARK 921   NORMALIZED FREE ENERGY PREDICTED BY IDOCK:   -1.34 KCAL/MOL
REMARK 922        TOTAL FREE ENERGY PREDICTED BY IDOCK:   -1.42 KCAL/MOL
REMARK 923 INTER-LIGAND FREE ENERGY PREDICTED BY IDOCK:   -1.42 KCAL/MOL
REMARK 924 INTRA-LIGAND FREE ENERGY PREDICTED BY IDOCK:    0.00 KCAL/MOL
REMARK 927      BINDING AFFINITY PREDICTED BY RF-SCORE:    0.00 PKD
ROOT
HETATM    1  C   UNL     1      -8.608  11.850  66.709  1.00  0.00    -0.181 C  
HETATM    2  C   UNL     1     -10.027  11.647  66.204  1.00  0.00    -0.221 C  
HETATM    3  O   UNL     1     -10.600  12.922  65.909  1.00  0.00    -0.263 OA 
HETATM    4  H   UNL     1     -11.487  12.794  65.594  1.00  0.00     0.000 HD 
ENDROOT
BRANCH   2   5
HETATM    5  C   UNL     1     -10.065  10.736  64.970  1.00  0.00    -0.313 C  
HETATM    6  O   UNL     1     -11.101  11.128  64.072  1.00  0.00    -0.445 OA 
HETATM    7  H   UNL     1     -11.125  10.563  63.307  1.00  0.00     0.000 HD 
ENDBRANCH   2   5
TORSDOF 1
ENDMDL
MODEL      127
REMARK 921   NORMALIZED FREE ENERGY PREDICTED BY IDOCK:   -1.34 KCAL/MOL
REMARK 922        TOTAL FREE ENERGY PREDICTED BY IDOCK:   -1.42 KCAL/MOL
REMARK 923 INTER-LIGAND FREE ENERGY PREDICTED BY IDOCK:   -1.42 KCAL/MOL
REMARK 924 INTRA-LIGAND FREE ENERGY PREDICTED BY IDOCK:    0.00 KCAL/MOL
REMARK 927      BINDING AFFINITY PREDICTED BY RF-SCORE:    0.00 PKD
ROOT
HETATM    1  C   UNL     1      -8.360  10.486  65.137  1.00  0.00    -0.150 C  
HETATM    2  C   UNL     1      -8.741  10.214  63.691  1.00  0.00    -0.212 C  
HETATM    3  O   UNL     1      -8.412  11.359  62.903  1.00  0.00    -0.468 OA 
HETATM    4  H   UNL     1      -8.651  11.189  62.000  1.00  0.00     0.000 HD 
ENDROOT
BRANCH   2   5
HETATM    5  C   UNL     1      -8.041   8.962  63.146  1.00  0.00    -0.173 C  
HETATM    6  O   UNL     1      -8.954   8.129  62.435  1.00  0.00    -0.413 OA 
HETATM    7  H   UNL     1      -8.521   7.353  62.098  1.00  0.00     0.000 HD 
ENDBRANCH   2   5
TORSDOF 1
ENDMDL
MODEL      128
REMARK 921   NORMALIZED FREE ENERGY PREDICTED BY IDOCK:   -1.31 KCAL/MOL
REMARK 922        TOTAL FREE ENERGY PREDICTED BY IDOCK:   -1.39 KCAL/MOL
REMARK 923 INTER-LIGAND FREE ENERGY PREDICTED BY IDOCK:   -1.39 KCAL/MOL
REMARK 924 INTRA-LIGAND FREE ENERGY PREDICTED BY IDOCK:    0.00 KCAL/MOL
REMARK 927      BINDING AFFINITY PREDICTED BY RF-SCORE:    0.00 PKD
ROOT
HETATM    1  C   UNL     1     -10.283  11.132  65.286  1.00  0.00    -0.337 C  
HETATM    2  C   UNL     1      -9.458  10.035  65.938  1.00  0.00    -0.205 C  
HETATM    3  O   UNL     1      -8.551  10.629  66.868  1.00  0.00    -0.125 OA 
HETATM    4  H   UNL     1      -8.036   9.944  67.276  1.00  0.00     0.000 HD 
ENDROOT
BRANCH   2   5
HETATM    5  C   UNL     1     -10.346   8.996  66.635  1.00  0.00    -0.219 C  
HETATM    6  O   UNL     1     -11.076   9.580  67.712  1.00  0.00    -0.501 OA 
HETATM    7  H   UNL     1     -11.626   8.937  68.145  1.00  0.00     0.000 HD 
ENDBRANCH   2   5
TORSDOF 1
ENDMDL
MODEL      129
REMARK 921   NORMALIZED FREE ENERGY PREDICTED BY IDOCK:   -1.31 KCAL/MOL
REMARK 922        TOTAL FREE ENERGY PREDICTED BY IDOCK:   -1.38 KCAL/MOL
REMARK 923 INTER-LIGAND FREE ENERGY PREDICTED BY IDOCK:   -1.38 KCAL/MOL
REMARK 924 INTRA-LIGAND FREE ENERGY PREDICTED BY IDOCK:    0.00 KCAL/MOL
REMARK 927      BINDING AFFINITY PREDICTED BY RF-SCORE:    0.00 PKD
ROOT
HETATM    1  C   UNL     1      -5.901  20.047  70.414  1.00  0.00    -0.367 C  
HETATM    2  C   UNL     1      -6.440  19.007  69.446  1.00  0.00    -0.294 C  
HETATM    3  O   UNL     1      -7.668  19.482  68.892  1.00  0.00    -0.358 OA 
HETATM    4  H   UNL     1      -8.004  18.832  68.288  1.00  0.00     0.000 HD 
ENDROOT
BRANCH   2   5
HETATM    5  C   UNL     1      -5.431  18.690  68.334  1.00  0.00    -0.191 C  
HETATM    6  O   UNL     1      -5.801  19.315  67.108  1.00  0.00    -0.174 OA 
HETATM    7  H   UNL     1      -5.176  19.118  66.419  1.00  0.00     0.000 HD 
ENDBRANCH   2   5
TORSDOF 1
ENDMDL
MODEL      130
REMARK 921   NORMALIZED FREE ENERGY PREDICTED BY IDOCK:   -1.31 KCAL/MOL
REMARK 922        TOTAL FREE ENERGY PREDICTED BY IDOCK:   -1.38 KCAL/MOL
REMARK 923 INTER-LIGAND FREE ENERGY PREDICTED BY IDOCK:   -1.38 KCAL/MOL
REMARK 924 INTRA-LIGAND FREE ENERGY PREDICTED BY IDOCK:    0.00 KCAL/MOL
REMARK 927      BINDING AFFINITY PREDICTED BY RF-SCORE:    0.00 PKD
ROOT
HETATM    1  C   UNL     1     -10.066  11.530  68.517  1.00  0.00    -0.211 C  
HETATM    2  C   UNL     1      -9.691  12.850  67.863  1.00  0.00    -0.218 C  
HETATM    3  O   UNL     1      -9.907  12.747  66.455  1.00  0.00    -0.245 OA 
HETATM    4  H   UNL     1      -9.672  13.572  66.047  1.00  0.00     0.000 HD 
ENDROOT
BRANCH   2   5
HETATM    5  C   UNL     1     -10.491  14.021  68.450  1.00  0.00    -0.253 C  
HETATM    6  O   UNL     1     -10.877  13.758  69.797  1.00  0.00    -0.457 OA 
HETATM    7  H   UNL     1     -11.373  14.483  70.161  1.00  0.00     0.000 HD 
ENDBRANCH   2   5
TORSDOF 1
ENDMDL
MODEL      131
REMARK 921   NORMALIZED FREE ENERGY PREDICTED BY IDOCK:   -1.30 KCAL/MOL
REMARK 922        TOTAL FREE ENERGY PREDICTED BY IDOCK:   -1.37 KCAL/MOL
REMARK 923 INTER-LIGAND FREE ENERGY PREDICTED BY IDOCK:   -1.37 KCAL/MOL
REMARK 924 INTRA-LIGAND FREE ENERGY PREDICTED BY IDOCK:    0.00 KCAL/MOL
REMARK 927      BINDING AFFINITY PREDICTED BY RF-SCORE:    0.00 PKD
ROOT
HETATM    1  C   UNL     1      -8.132   6.518  67.817  1.00  0.00    -0.115 C  
HETATM    2  C   UNL     1      -9.587   6.139  68.039  1.00  0.00    -0.115 C  
HETATM    3  O   UNL     1     -10.060   6.789  69.219  1.00  0.00    -0.161 OA 
HETATM    4  H   UNL     1     -10.969   6.551  69.357  1.00  0.00     0.000 HD 
ENDROOT
BRANCH   2   5
HETATM    5  C   UNL     1     -10.460   6.508  66.831  1.00  0.00    -0.277 C  
HETATM    6  O   UNL     1     -11.052   5.348  66.249  1.00  0.00    -0.707 OA 
HETATM    7  H   UNL     1     -11.592   5.576  65.500  1.00  0.00     0.000 HD 
ENDBRANCH   2   5
TORSDOF 1
ENDMDL
MODEL      132
REMARK 921   NORMALIZED FREE ENERGY PREDICTED BY IDOCK:   -1.30 KCAL/MOL
REMARK 922        TOTAL FREE ENERGY PREDICTED BY IDOCK:   -1.37 KCAL/MOL
REMARK 923 INTER-LIGAND FREE ENERGY PREDICTED BY IDOCK:   -1.37 KCAL/MOL
REMARK 924 INTRA-LIGAND FREE ENERGY PREDICTED BY IDOCK:    0.00 KCAL/MOL
REMARK 927      BINDING AFFINITY PREDICTED BY RF-SCORE:    0.00 PKD
ROOT
HETATM    1  C   UNL     1     -11.687  12.853  67.015  1.00  0.00    -0.447 C  
HETATM    2  C   UNL     1     -10.351  12.412  67.589  1.00  0.00    -0.216 C  
HETATM    3  O   UNL     1     -10.469  12.304  69.008  1.00  0.00    -0.392 OA 
HETATM    4  H   UNL     1      -9.634  12.028  69.366  1.00  0.00     0.000 HD 
ENDROOT
BRANCH   2   5
HETATM    5  C   UNL     1      -9.885  11.081  66.982  1.00  0.00    -0.182 C  
HETATM    6  O   UNL     1      -9.331  10.225  67.979  1.00  0.00    -0.137 OA 
HETATM    7  H   UNL     1      -9.042   9.401  67.603  1.00  0.00     0.000 HD 
ENDBRANCH   2   5
TORSDOF 1
ENDMDL
MODEL      133
REMARK 921   NORMALIZED FREE ENERGY PREDICTED BY IDOCK:   -1.29 KCAL/MOL
REMARK 922        TOTAL FREE ENERGY PREDICTED BY IDOCK:   -1.37 KCAL/MOL
REMARK 923 INTER-LIGAND FREE ENERGY PREDICTED BY IDOCK:   -1.37 KCAL/MOL
REMARK 924 INTRA-LIGAND FREE ENERGY PREDICTED BY IDOCK:    0.00 KCAL/MOL
REMARK 927      BINDING AFFINITY PREDICTED BY RF-SCORE:    0.00 PKD
ROOT
HETATM    1  C   UNL     1      -7.836  13.402  67.384  1.00  0.00    -0.154 C  
HETATM    2  C   UNL     1      -9.038  14.011  68.086  1.00  0.00    -0.192 C  
HETATM    3  O   UNL     1      -9.720  12.986  68.810  1.00  0.00    -0.404 OA 
HETATM    4  H   UNL     1     -10.471  13.368  69.249  1.00  0.00     0.000 HD 
ENDROOT
BRANCH   2   5
HETATM    5  C   UNL     1      -8.626  15.154  69.024  1.00  0.00    -0.219 C  
HETATM    6  O   UNL     1      -7.732  14.695  70.036  1.00  0.00    -0.398 OA 
HETATM    7  H   UNL     1      -7.477  15.403  70.617  1.00  0.00     0.000 HD 
ENDBRANCH   2   5
TORSDOF 1
ENDMDL
MODEL      134
REMARK 921   NORMALIZED FREE ENERGY PREDICTED BY IDOCK:   -1.29 KCAL/MOL
REMARK 922        TOTAL FREE ENERGY PREDICTED BY IDOCK:   -1.37 KCAL/MOL
REMARK 923 INTER-LIGAND FREE ENERGY PREDICTED BY IDOCK:   -1.37 KCAL/MOL
REMARK 924 INTRA-LIGAND FREE ENERGY PREDICTED BY IDOCK:    0.00 KCAL/MOL
REMARK 927      BINDING AFFINITY PREDICTED BY RF-SCORE:    0.00 PKD
ROOT
HETATM    1  C   UNL     1      -8.925   9.273  70.376  1.00  0.00    -0.278 C  
HETATM    2  C   UNL     1      -9.384   7.870  70.017  1.00  0.00    -0.157 C  
HETATM    3  O   UNL     1      -9.801   7.200  71.207  1.00  0.00    -0.178 OA 
HETATM    4  H   UNL     1     -10.088   6.324  70.982  1.00  0.00     0.000 HD 
ENDROOT
BRANCH   2   5
HETATM    5  C   UNL     1     -10.518   7.892  68.982  1.00  0.00    -0.198 C  
HETATM    6  O   UNL     1     -11.445   6.833  69.210  1.00  0.00    -0.556 OA 
HETATM    7  H   UNL     1     -12.147   6.846  68.569  1.00  0.00     0.000 HD 
ENDBRANCH   2   5
TORSDOF 1
ENDMDL
MODEL      135
REMARK 921   NORMALIZED FREE ENERGY PREDICTED BY IDOCK:   -1.27 KCAL/MOL
REMARK 922        TOTAL FREE ENERGY PREDICTED BY IDOCK:   -1.34 KCAL/MOL
REMARK 923 INTER-LIGAND FREE ENERGY PREDICTED BY IDOCK:   -1.34 KCAL/MOL
REMARK 924 INTRA-LIGAND FREE ENERGY PREDICTED BY IDOCK:    0.00 KCAL/MOL
REMARK 927      BINDING AFFINITY PREDICTED BY RF-SCORE:    0.00 PKD
ROOT
HETATM    1  C   UNL     1      -6.836  17.073  66.593  1.00  0.00    -0.279 C  
HETATM    2  C   UNL     1      -7.304  18.464  66.988  1.00  0.00    -0.208 C  
HETATM    3  O   UNL     1      -8.730  18.468  67.067  1.00  0.00    -0.264 OA 
HETATM    4  H   UNL     1      -9.022  19.337  67.313  1.00  0.00     0.000 HD 
ENDROOT
BRANCH   2   5
HETATM    5  C   UNL     1      -6.686  18.914  68.319  1.00  0.00    -0.239 C  
HETATM    6  O   UNL     1      -7.616  19.674  69.088  1.00  0.00    -0.350 OA 
HETATM    7  H   UNL     1      -7.233  19.953  69.912  1.00  0.00     0.000 HD 
ENDBRANCH   2   5
TORSDOF 1
ENDMDL
MODEL      136
REMARK 921   NORMALIZED FREE ENERGY PREDICTED BY IDOCK:   -1.24 KCAL/MOL
REMARK 922        TOTAL FREE ENERGY PREDICTED BY IDOCK:   -1.31 KCAL/MOL
REMARK 923 INTER-LIGAND FREE ENERGY PREDICTED BY IDOCK:   -1.31 KCAL/MOL
REMARK 924 INTRA-LIGAND FREE ENERGY PREDICTED BY IDOCK:    0.00 KCAL/MOL
REMARK 927      BINDING AFFINITY PREDICTED BY RF-SCORE:    0.00 PKD
ROOT
HETATM    1  C   UNL     1      -7.645   7.022  72.669  1.00  0.00    -0.089 C  
HETATM    2  C   UNL     1      -9.095   7.332  73.005  1.00  0.00    -0.142 C  
HETATM    3  O   UNL     1      -9.189   7.652  74.394  1.00  0.00    -0.427 OA 
HETATM    4  H   UNL     1     -10.095   7.845  74.603  1.00  0.00     0.000 HD 
ENDROOT
BRANCH   2   5
HETATM    5  C   UNL     1      -9.644   8.478  72.146  1.00  0.00    -0.312 C  
HETATM    6  O   UNL     1      -8.594   9.165  71.469  1.00  0.00    -0.339 OA 
HETATM    7  H   UNL     1      -8.934   9.876  70.937  1.00  0.00     0.000 HD 
ENDBRANCH   2   5
TORSDOF 1
ENDMDL
MODEL      137
REMARK 921   NORMALIZED FREE ENERGY PREDICTED BY IDOCK:   -1.20 KCAL/MOL
REMARK 922        TOTAL FREE ENERGY PREDICTED BY IDOCK:   -1.27 KCAL/MOL
REMARK 923 INTER-LIGAND FREE ENERGY PREDICTED BY IDOCK:   -1.27 KCAL/MOL
REMARK 924 INTRA-LIGAND FREE ENERGY PREDICTED BY IDOCK:    0.00 KCAL/MOL
REMARK 927      BINDING AFFINITY PREDICTED BY RF-SCORE:    0.00 PKD
ROOT
HETATM    1  C   UNL     1      -5.952  13.681  68.025  1.00  0.00    -0.133 C  
HETATM    2  C   UNL     1      -6.802  13.631  69.284  1.00  0.00    -0.063 C  
HETATM    3  O   UNL     1      -6.979  12.267  69.669  1.00  0.00    -0.335 OA 
HETATM    4  H   UNL     1      -7.511  12.237  70.455  1.00  0.00     0.000 HD 
ENDROOT
BRANCH   2   5
HETATM    5  C   UNL     1      -6.172  14.439  70.426  1.00  0.00    -0.173 C  
HETATM    6  O   UNL     1      -6.137  13.683  71.635  1.00  0.00    -0.568 OA 
HETATM    7  H   UNL     1      -5.747  14.184  72.343  1.00  0.00     0.000 HD 
ENDBRANCH   2   5
TORSDOF 1
ENDMDL
MODEL      138
REMARK 921   NORMALIZED FREE ENERGY PREDICTED BY IDOCK:   -1.20 KCAL/MOL
REMARK 922        TOTAL FREE ENERGY PREDICTED BY IDOCK:   -1.27 KCAL/MOL
REMARK 923 INTER-LIGAND FREE ENERGY PREDICTED BY IDOCK:   -1.27 KCAL/MOL
REMARK 924 INTRA-LIGAND FREE ENERGY PREDICTED BY IDOCK:    0.00 KCAL/MOL
REMARK 927      BINDING AFFINITY PREDICTED BY RF-SCORE:    0.00 PKD
ROOT
HETATM    1  C   UNL     1     -11.243  17.172  68.043  1.00  0.00     0.037 C  
HETATM    2  C   UNL     1     -10.434  18.394  67.643  1.00  0.00    -0.419 C  
HETATM    3  O   UNL     1      -9.476  18.670  68.665  1.00  0.00    -0.342 OA 
HETATM    4  H   UNL     1      -8.970  19.433  68.415  1.00  0.00     0.000 HD 
ENDROOT
BRANCH   2   5
HETATM    5  C   UNL     1      -9.738  18.195  66.289  1.00  0.00    -0.276 C  
HETATM    6  O   UNL     1     -10.302  19.043  65.290  1.00  0.00    -0.269 OA 
HETATM    7  H   UNL     1      -9.871  18.920  64.451  1.00  0.00     0.000 HD 
ENDBRANCH   2   5
TORSDOF 1
ENDMDL
MODEL      139
REMARK 921   NORMALIZED FREE ENERGY PREDICTED BY IDOCK:   -1.18 KCAL/MOL
REMARK 922        TOTAL FREE ENERGY PREDICTED BY IDOCK:   -1.25 KCAL/MOL
REMARK 923 INTER-LIGAND FREE ENERGY PREDICTED BY IDOCK:   -1.25 KCAL/MOL
REMARK 924 INTRA-LIGAND FREE ENERGY PREDICTED BY IDOCK:    0.00 KCAL/MOL
REMARK 927      BINDING AFFINITY PREDICTED BY RF-SCORE:    0.00 PKD
ROOT
HETATM    1  C   UNL     1     -10.805   6.047  66.975  1.00  0.00    -0.413 C  
HETATM    2  C   UNL     1      -9.613   5.469  66.230  1.00  0.00    -0.156 C  
HETATM    3  O   UNL     1      -8.435   6.174  66.624  1.00  0.00    -0.113 OA 
HETATM    4  H   UNL     1      -7.690   5.813  66.158  1.00  0.00     0.000 HD 
ENDROOT
BRANCH   2   5
HETATM    5  C   UNL     1      -9.457   3.965  66.489  1.00  0.00    -0.195 C  
HETATM    6  O   UNL     1      -9.835   3.202  65.345  1.00  0.00    -0.373 OA 
HETATM    7  H   UNL     1      -9.738   2.270  65.505  1.00  0.00     0.000 HD 
ENDBRANCH   2   5
TORSDOF 1
ENDMDL
MODEL      140
REMARK 921   NORMALIZED FREE ENERGY PREDICTED BY IDOCK:   -1.17 KCAL/MOL
REMARK 922        TOTAL FREE ENERGY PREDICTED BY IDOCK:   -1.24 KCAL/MOL
REMARK 923 INTER-LIGAND FREE ENERGY PREDICTED BY IDOCK:   -1.24 KCAL/MOL
REMARK 924 INTRA-LIGAND FREE ENERGY PREDICTED BY IDOCK:    0.00 KCAL/MOL
REMARK 927      BINDING AFFINITY PREDICTED BY RF-SCORE:    0.00 PKD
ROOT
HETATM    1  C   UNL     1      -9.378   9.986  64.548  1.00  0.00    -0.345 C  
HETATM    2  C   UNL     1      -9.782  11.283  65.230  1.00  0.00    -0.239 C  
HETATM    3  O   UNL     1     -11.098  11.639  64.802  1.00  0.00    -0.304 OA 
HETATM    4  H   UNL     1     -11.350  12.450  65.228  1.00  0.00     0.000 HD 
ENDROOT
BRANCH   2   5
HETATM    5  C   UNL     1      -9.723  11.162  66.758  1.00  0.00    -0.193 C  
HETATM    6  O   UNL     1      -9.765   9.798  67.171  1.00  0.00    -0.163 OA 
HETATM    7  H   UNL     1      -9.729   9.723  68.118  1.00  0.00     0.000 HD 
ENDBRANCH   2   5
TORSDOF 1
ENDMDL
MODEL      141
REMARK 921   NORMALIZED FREE ENERGY PREDICTED BY IDOCK:   -1.17 KCAL/MOL
REMARK 922        TOTAL FREE ENERGY PREDICTED BY IDOCK:   -1.24 KCAL/MOL
REMARK 923 INTER-LIGAND FREE ENERGY PREDICTED BY IDOCK:   -1.24 KCAL/MOL
REMARK 924 INTRA-LIGAND FREE ENERGY PREDICTED BY IDOCK:    0.00 KCAL/MOL
REMARK 927      BINDING AFFINITY PREDICTED BY RF-SCORE:    0.00 PKD
ROOT
HETATM    1  C   UNL     1      -7.379  11.174  66.732  1.00  0.00    -0.146 C  
HETATM    2  C   UNL     1      -8.778  11.108  66.143  1.00  0.00    -0.186 C  
HETATM    3  O   UNL     1      -9.486  10.028  66.752  1.00  0.00    -0.159 OA 
HETATM    4  H   UNL     1     -10.360   9.987  66.384  1.00  0.00     0.000 HD 
ENDROOT
BRANCH   2   5
HETATM    5  C   UNL     1      -9.536  12.429  66.332  1.00  0.00    -0.246 C  
HETATM    6  O   UNL     1      -9.849  13.029  65.077  1.00  0.00    -0.499 OA 
HETATM    7  H   UNL     1     -10.319  13.847  65.194  1.00  0.00     0.000 HD 
ENDBRANCH   2   5
TORSDOF 1
ENDMDL
MODEL      142
REMARK 921   NORMALIZED FREE ENERGY PREDICTED BY IDOCK:   -1.16 KCAL/MOL
REMARK 922        TOTAL FREE ENERGY PREDICTED BY IDOCK:   -1.23 KCAL/MOL
REMARK 923 INTER-LIGAND FREE ENERGY PREDICTED BY IDOCK:   -1.23 KCAL/MOL
REMARK 924 INTRA-LIGAND FREE ENERGY PREDICTED BY IDOCK:    0.00 KCAL/MOL
REMARK 927      BINDING AFFINITY PREDICTED BY RF-SCORE:    0.00 PKD
ROOT
HETATM    1  C   UNL     1     -10.247   4.440  65.515  1.00  0.00    -0.260 C  
HETATM    2  C   UNL     1      -9.968   3.478  64.372  1.00  0.00    -0.185 C  
HETATM    3  O   UNL     1     -11.209   2.976  63.875  1.00  0.00    -0.576 OA 
HETATM    4  H   UNL     1     -11.034   2.376  63.161  1.00  0.00     0.000 HD 
ENDROOT
BRANCH   2   5
HETATM    5  C   UNL     1      -9.167   4.150  63.248  1.00  0.00    -0.133 C  
HETATM    6  O   UNL     1      -7.828   4.418  63.658  1.00  0.00    -0.076 OA 
HETATM    7  H   UNL     1      -7.331   4.835  62.962  1.00  0.00     0.000 HD 
ENDBRANCH   2   5
TORSDOF 1
ENDMDL
MODEL      143
REMARK 921   NORMALIZED FREE ENERGY PREDICTED BY IDOCK:   -1.16 KCAL/MOL
REMARK 922        TOTAL FREE ENERGY PREDICTED BY IDOCK:   -1.23 KCAL/MOL
REMARK 923 INTER-LIGAND FREE ENERGY PREDICTED BY IDOCK:   -1.23 KCAL/MOL
REMARK 924 INTRA-LIGAND FREE ENERGY PREDICTED BY IDOCK:    0.00 KCAL/MOL
REMARK 927      BINDING AFFINITY PREDICTED BY RF-SCORE:    0.00 PKD
ROOT
HETATM    1  C   UNL     1      -9.483   6.385  70.940  1.00  0.00    -0.185 C  
HETATM    2  C   UNL     1      -9.676   6.423  69.433  1.00  0.00    -0.145 C  
HETATM    3  O   UNL     1      -9.297   5.160  68.885  1.00  0.00    -0.113 OA 
HETATM    4  H   UNL     1      -9.418   5.184  67.944  1.00  0.00     0.000 HD 
ENDROOT
BRANCH   2   5
HETATM    5  C   UNL     1     -11.124   6.765  69.055  1.00  0.00    -0.197 C  
HETATM    6  O   UNL     1     -11.304   6.755  67.640  1.00  0.00    -0.589 OA 
HETATM    7  H   UNL     1     -12.201   6.967  67.406  1.00  0.00     0.000 HD 
ENDBRANCH   2   5
TORSDOF 1
ENDMDL
MODEL      144
REMARK 921   NORMALIZED FREE ENERGY PREDICTED BY IDOCK:   -1.14 KCAL/MOL
REMARK 922        TOTAL FREE ENERGY PREDICTED BY IDOCK:   -1.21 KCAL/MOL
REMARK 923 INTER-LIGAND FREE ENERGY PREDICTED BY IDOCK:   -1.21 KCAL/MOL
REMARK 924 INTRA-LIGAND FREE ENERGY PREDICTED BY IDOCK:    0.00 KCAL/MOL
REMARK 927      BINDING AFFINITY PREDICTED BY RF-SCORE:    0.00 PKD
ROOT
HETATM    1  C   UNL     1      -6.955   9.292  65.585  1.00  0.00    -0.082 C  
HETATM    2  C   UNL     1      -8.202   8.874  64.824  1.00  0.00    -0.163 C  
HETATM    3  O   UNL     1      -8.871   7.849  65.560  1.00  0.00    -0.306 OA 
HETATM    4  H   UNL     1      -9.651   7.588  65.084  1.00  0.00     0.000 HD 
ENDROOT
BRANCH   2   5
HETATM    5  C   UNL     1      -9.140  10.063  64.576  1.00  0.00    -0.243 C  
HETATM    6  O   UNL     1      -9.643  10.054  63.242  1.00  0.00    -0.414 OA 
HETATM    7  H   UNL     1     -10.224  10.791  63.088  1.00  0.00     0.000 HD 
ENDBRANCH   2   5
TORSDOF 1
ENDMDL
MODEL      145
REMARK 921   NORMALIZED FREE ENERGY PREDICTED BY IDOCK:   -1.12 KCAL/MOL
REMARK 922        TOTAL FREE ENERGY PREDICTED BY IDOCK:   -1.19 KCAL/MOL
REMARK 923 INTER-LIGAND FREE ENERGY PREDICTED BY IDOCK:   -1.19 KCAL/MOL
REMARK 924 INTRA-LIGAND FREE ENERGY PREDICTED BY IDOCK:    0.00 KCAL/MOL
REMARK 927      BINDING AFFINITY PREDICTED BY RF-SCORE:    0.00 PKD
ROOT
HETATM    1  C   UNL     1     -10.686   6.066  72.144  1.00  0.00    -0.270 C  
HETATM    2  C   UNL     1     -10.272   7.410  72.722  1.00  0.00    -0.238 C  
HETATM    3  O   UNL     1     -10.164   7.289  74.141  1.00  0.00    -0.424 OA 
HETATM    4  H   UNL     1      -9.906   8.129  74.501  1.00  0.00     0.000 HD 
ENDROOT
BRANCH   2   5
HETATM    5  C   UNL     1      -8.951   7.904  72.118  1.00  0.00    -0.146 C  
HETATM    6  O   UNL     1      -8.213   6.828  71.540  1.00  0.00    -0.110 OA 
HETATM    7  H   UNL     1      -7.395   7.134  71.166  1.00  0.00     0.000 HD 
ENDBRANCH   2   5
TORSDOF 1
ENDMDL
MODEL      146
REMARK 921   NORMALIZED FREE ENERGY PREDICTED BY IDOCK:   -1.11 KCAL/MOL
REMARK 922        TOTAL FREE ENERGY PREDICTED BY IDOCK:   -1.17 KCAL/MOL
REMARK 923 INTER-LIGAND FREE ENERGY PREDICTED BY IDOCK:   -1.17 KCAL/MOL
REMARK 924 INTRA-LIGAND FREE ENERGY PREDICTED BY IDOCK:    0.00 KCAL/MOL
REMARK 927      BINDING AFFINITY PREDICTED BY RF-SCORE:    0.00 PKD
ROOT
HETATM    1  C   UNL     1      -8.097   7.097  66.848  1.00  0.00    -0.116 C  
HETATM    2  C   UNL     1      -9.601   7.018  67.053  1.00  0.00    -0.157 C  
HETATM    3  O   UNL     1      -9.864   6.503  68.359  1.00  0.00    -0.134 OA 
HETATM    4  H   UNL     1     -10.803   6.454  68.486  1.00  0.00     0.000 HD 
ENDROOT
BRANCH   2   5
HETATM    5  C   UNL     1     -10.272   8.385  66.863  1.00  0.00    -0.313 C  
HETATM    6  O   UNL     1      -9.957   8.942  65.589  1.00  0.00    -0.451 OA 
HETATM    7  H   UNL     1     -10.372   9.789  65.472  1.00  0.00     0.000 HD 
ENDBRANCH   2   5
TORSDOF 1
ENDMDL
MODEL      147
REMARK 921   NORMALIZED FREE ENERGY PREDICTED BY IDOCK:   -1.08 KCAL/MOL
REMARK 922        TOTAL FREE ENERGY PREDICTED BY IDOCK:   -1.14 KCAL/MOL
REMARK 923 INTER-LIGAND FREE ENERGY PREDICTED BY IDOCK:   -1.14 KCAL/MOL
REMARK 924 INTRA-LIGAND FREE ENERGY PREDICTED BY IDOCK:    0.00 KCAL/MOL
REMARK 927      BINDING AFFINITY PREDICTED BY RF-SCORE:    0.00 PKD
ROOT
HETATM    1  C   UNL     1      -9.781   4.363  69.718  1.00  0.00    -0.291 C  
HETATM    2  C   UNL     1     -10.631   5.558  70.115  1.00  0.00    -0.297 C  
HETATM    3  O   UNL     1     -10.807   5.552  71.532  1.00  0.00    -0.244 OA 
HETATM    4  H   UNL     1     -11.339   6.299  71.779  1.00  0.00     0.000 HD 
ENDROOT
BRANCH   2   5
HETATM    5  C   UNL     1     -10.001   6.880  69.653  1.00  0.00    -0.171 C  
HETATM    6  O   UNL     1      -8.649   6.988  70.092  1.00  0.00    -0.138 OA 
HETATM    7  H   UNL     1      -8.259   7.806  69.807  1.00  0.00     0.000 HD 
ENDBRANCH   2   5
TORSDOF 1
ENDMDL
MODEL      148
REMARK 921   NORMALIZED FREE ENERGY PREDICTED BY IDOCK:   -1.07 KCAL/MOL
REMARK 922        TOTAL FREE ENERGY PREDICTED BY IDOCK:   -1.14 KCAL/MOL
REMARK 923 INTER-LIGAND FREE ENERGY PREDICTED BY IDOCK:   -1.14 KCAL/MOL
REMARK 924 INTRA-LIGAND FREE ENERGY PREDICTED BY IDOCK:    0.00 KCAL/MOL
REMARK 927      BINDING AFFINITY PREDICTED BY RF-SCORE:    0.00 PKD
ROOT
HETATM    1  C   UNL     1      -9.653   2.665  72.755  1.00  0.00    -0.159 C  
HETATM    2  C   UNL     1      -9.633   4.173  72.570  1.00  0.00    -0.139 C  
HETATM    3  O   UNL     1     -10.230   4.493  71.313  1.00  0.00    -0.173 OA 
HETATM    4  H   UNL     1     -10.217   5.436  71.198  1.00  0.00     0.000 HD 
ENDROOT
BRANCH   2   5
HETATM    5  C   UNL     1     -10.358   4.894  73.714  1.00  0.00    -0.229 C  
HETATM    6  O   UNL     1     -11.758   4.989  73.459  1.00  0.00    -0.437 OA 
HETATM    7  H   UNL     1     -12.208   5.436  74.167  1.00  0.00     0.000 HD 
ENDBRANCH   2   5
TORSDOF 1
ENDMDL
MODEL      149
REMARK 921   NORMALIZED FREE ENERGY PREDICTED BY IDOCK:   -1.06 KCAL/MOL
REMARK 922        TOTAL FREE ENERGY PREDICTED BY IDOCK:   -1.12 KCAL/MOL
REMARK 923 INTER-LIGAND FREE ENERGY PREDICTED BY IDOCK:   -1.12 KCAL/MOL
REMARK 924 INTRA-LIGAND FREE ENERGY PREDICTED BY IDOCK:    0.00 KCAL/MOL
REMARK 927      BINDING AFFINITY PREDICTED BY RF-SCORE:    0.00 PKD
ROOT
HETATM    1  C   UNL     1      -7.860  15.741  66.803  1.00  0.00    -0.248 C  
HETATM    2  C   UNL     1      -7.158  15.266  68.064  1.00  0.00    -0.128 C  
HETATM    3  O   UNL     1      -5.870  15.878  68.135  1.00  0.00    -0.106 OA 
HETATM    4  H   UNL     1      -5.432  15.581  68.923  1.00  0.00     0.000 HD 
ENDROOT
BRANCH   2   5
HETATM    5  C   UNL     1      -7.978  15.581  69.322  1.00  0.00    -0.238 C  
HETATM    6  O   UNL     1      -9.080  14.686  69.457  1.00  0.00    -0.401 OA 
HETATM    7  H   UNL     1      -9.589  14.882  70.237  1.00  0.00     0.000 HD 
ENDBRANCH   2   5
TORSDOF 1
ENDMDL
MODEL      150
REMARK 921   NORMALIZED FREE ENERGY PREDICTED BY IDOCK:   -1.04 KCAL/MOL
REMARK 922        TOTAL FREE ENERGY PREDICTED BY IDOCK:   -1.10 KCAL/MOL
REMARK 923 INTER-LIGAND FREE ENERGY PREDICTED BY IDOCK:   -1.10 KCAL/MOL
REMARK 924 INTRA-LIGAND FREE ENERGY PREDICTED BY IDOCK:    0.00 KCAL/MOL
REMARK 927      BINDING AFFINITY PREDICTED BY RF-SCORE:    0.00 PKD
ROOT
HETATM    1  C   UNL     1      -7.538   6.174  66.393  1.00  0.00    -0.094 C  
HETATM    2  C   UNL     1      -7.731   6.461  64.913  1.00  0.00    -0.104 C  
HETATM    3  O   UNL     1      -8.924   5.813  64.468  1.00  0.00    -0.359 OA 
HETATM    4  H   UNL     1      -9.044   5.993  63.544  1.00  0.00     0.000 HD 
ENDROOT
BRANCH   2   5
HETATM    5  C   UNL     1      -7.797   7.968  64.632  1.00  0.00    -0.140 C  
HETATM    6  O   UNL     1      -8.572   8.242  63.467  1.00  0.00    -0.407 OA 
HETATM    7  H   UNL     1      -8.613   9.176  63.292  1.00  0.00     0.000 HD 
ENDBRANCH   2   5
TORSDOF 1
ENDMDL
MODEL      151
REMARK 921   NORMALIZED FREE ENERGY PREDICTED BY IDOCK:   -1.02 KCAL/MOL
REMARK 922        TOTAL FREE ENERGY PREDICTED BY IDOCK:   -1.08 KCAL/MOL
REMARK 923 INTER-LIGAND FREE ENERGY PREDICTED BY IDOCK:   -1.08 KCAL/MOL
REMARK 924 INTRA-LIGAND FREE ENERGY PREDICTED BY IDOCK:    0.00 KCAL/MOL
REMARK 927      BINDING AFFINITY PREDICTED BY RF-SCORE:    0.00 PKD
ROOT
HETATM    1  C   UNL     1      -7.100  13.207  67.515  1.00  0.00    -0.156 C  
HETATM    2  C   UNL     1      -8.370  14.040  67.449  1.00  0.00    -0.196 C  
HETATM    3  O   UNL     1      -8.054  15.322  66.906  1.00  0.00    -0.211 OA 
HETATM    4  H   UNL     1      -8.848  15.842  66.866  1.00  0.00     0.000 HD 
ENDROOT
BRANCH   2   5
HETATM    5  C   UNL     1      -9.458  13.351  66.615  1.00  0.00    -0.260 C  
HETATM    6  O   UNL     1     -10.713  13.365  67.291  1.00  0.00    -0.257 OA 
HETATM    7  H   UNL     1     -11.387  12.938  66.774  1.00  0.00     0.000 HD 
ENDBRANCH   2   5
TORSDOF 1
ENDMDL
MODEL      152
REMARK 921   NORMALIZED FREE ENERGY PREDICTED BY IDOCK:   -0.99 KCAL/MOL
REMARK 922        TOTAL FREE ENERGY PREDICTED BY IDOCK:   -1.05 KCAL/MOL
REMARK 923 INTER-LIGAND FREE ENERGY PREDICTED BY IDOCK:   -1.05 KCAL/MOL
REMARK 924 INTRA-LIGAND FREE ENERGY PREDICTED BY IDOCK:    0.00 KCAL/MOL
REMARK 927      BINDING AFFINITY PREDICTED BY RF-SCORE:    0.00 PKD
ROOT
HETATM    1  C   UNL     1      -5.677  13.078  67.516  1.00  0.00    -0.080 C  
HETATM    2  C   UNL     1      -7.086  13.591  67.765  1.00  0.00    -0.159 C  
HETATM    3  O   UNL     1      -7.438  13.336  69.125  1.00  0.00    -0.298 OA 
HETATM    4  H   UNL     1      -8.318  13.657  69.280  1.00  0.00     0.000 HD 
ENDROOT
BRANCH   2   5
HETATM    5  C   UNL     1      -7.209  15.087  67.445  1.00  0.00    -0.194 C  
HETATM    6  O   UNL     1      -5.926  15.695  67.315  1.00  0.00    -0.316 OA 
HETATM    7  H   UNL     1      -6.002  16.622  67.117  1.00  0.00     0.000 HD 
ENDBRANCH   2   5
TORSDOF 1
ENDMDL
MODEL      153
REMARK 921   NORMALIZED FREE ENERGY PREDICTED BY IDOCK:   -0.98 KCAL/MOL
REMARK 922        TOTAL FREE ENERGY PREDICTED BY IDOCK:   -1.03 KCAL/MOL
REMARK 923 INTER-LIGAND FREE ENERGY PREDICTED BY IDOCK:   -1.03 KCAL/MOL
REMARK 924 INTRA-LIGAND FREE ENERGY PREDICTED BY IDOCK:    0.00 KCAL/MOL
REMARK 927      BINDING AFFINITY PREDICTED BY RF-SCORE:    0.00 PKD
ROOT
HETATM    1  C   UNL     1      -7.877  10.639  67.435  1.00  0.00    -0.110 C  
HETATM    2  C   UNL     1      -8.376   9.427  66.665  1.00  0.00    -0.119 C  
HETATM    3  O   UNL     1      -8.177   8.259  67.463  1.00  0.00    -0.119 OA 
HETATM    4  H   UNL     1      -8.489   7.502  66.981  1.00  0.00     0.000 HD 
ENDROOT
BRANCH   2   5
HETATM    5  C   UNL     1      -9.853   9.572  66.275  1.00  0.00    -0.266 C  
HETATM    6  O   UNL     1     -10.005   9.670  64.861  1.00  0.00    -0.418 OA 
HETATM    7  H   UNL     1     -10.920   9.760  64.619  1.00  0.00     0.000 HD 
ENDBRANCH   2   5
TORSDOF 1
ENDMDL
MODEL      154
REMARK 921   NORMALIZED FREE ENERGY PREDICTED BY IDOCK:   -0.97 KCAL/MOL
REMARK 922        TOTAL FREE ENERGY PREDICTED BY IDOCK:   -1.03 KCAL/MOL
REMARK 923 INTER-LIGAND FREE ENERGY PREDICTED BY IDOCK:   -1.03 KCAL/MOL
REMARK 924 INTRA-LIGAND FREE ENERGY PREDICTED BY IDOCK:    0.00 KCAL/MOL
REMARK 927      BINDING AFFINITY PREDICTED BY RF-SCORE:    0.00 PKD
ROOT
HETATM    1  C   UNL     1      -8.778   8.130  72.619  1.00  0.00    -0.277 C  
HETATM    2  C   UNL     1      -9.288   7.543  71.313  1.00  0.00    -0.149 C  
HETATM    3  O   UNL     1      -9.768   6.220  71.557  1.00  0.00    -0.163 OA 
HETATM    4  H   UNL     1     -10.087   5.854  70.740  1.00  0.00     0.000 HD 
ENDROOT
BRANCH   2   5
HETATM    5  C   UNL     1     -10.389   8.413  70.692  1.00  0.00    -0.197 C  
HETATM    6  O   UNL     1      -9.878   9.682  70.290  1.00  0.00    -0.241 OA 
HETATM    7  H   UNL     1     -10.560  10.222  69.905  1.00  0.00     0.000 HD 
ENDBRANCH   2   5
TORSDOF 1
ENDMDL
MODEL      155
REMARK 921   NORMALIZED FREE ENERGY PREDICTED BY IDOCK:   -0.97 KCAL/MOL
REMARK 922        TOTAL FREE ENERGY PREDICTED BY IDOCK:   -1.03 KCAL/MOL
REMARK 923 INTER-LIGAND FREE ENERGY PREDICTED BY IDOCK:   -1.03 KCAL/MOL
REMARK 924 INTRA-LIGAND FREE ENERGY PREDICTED BY IDOCK:    0.00 KCAL/MOL
REMARK 927      BINDING AFFINITY PREDICTED BY RF-SCORE:    0.00 PKD
ROOT
HETATM    1  C   UNL     1      -8.627   4.056  71.375  1.00  0.00    -0.121 C  
HETATM    2  C   UNL     1     -10.020   4.608  71.627  1.00  0.00    -0.193 C  
HETATM    3  O   UNL     1     -10.247   4.667  73.036  1.00  0.00    -0.155 OA 
HETATM    4  H   UNL     1     -11.118   5.012  73.192  1.00  0.00     0.000 HD 
ENDROOT
BRANCH   2   5
HETATM    5  C   UNL     1     -10.205   5.992  70.990  1.00  0.00    -0.201 C  
HETATM    6  O   UNL     1     -11.512   6.135  70.439  1.00  0.00    -0.356 OA 
HETATM    7  H   UNL     1     -11.627   6.993  70.044  1.00  0.00     0.000 HD 
ENDBRANCH   2   5
TORSDOF 1
ENDMDL
MODEL      156
REMARK 921   NORMALIZED FREE ENERGY PREDICTED BY IDOCK:   -0.96 KCAL/MOL
REMARK 922        TOTAL FREE ENERGY PREDICTED BY IDOCK:   -1.02 KCAL/MOL
REMARK 923 INTER-LIGAND FREE ENERGY PREDICTED BY IDOCK:   -1.02 KCAL/MOL
REMARK 924 INTRA-LIGAND FREE ENERGY PREDICTED BY IDOCK:    0.00 KCAL/MOL
REMARK 927      BINDING AFFINITY PREDICTED BY RF-SCORE:    0.00 PKD
ROOT
HETATM    1  C   UNL     1      -8.559  10.745  67.251  1.00  0.00    -0.130 C  
HETATM    2  C   UNL     1      -9.933  10.098  67.329  1.00  0.00    -0.195 C  
HETATM    3  O   UNL     1     -10.929  11.120  67.270  1.00  0.00    -0.263 OA 
HETATM    4  H   UNL     1     -11.787  10.715  67.319  1.00  0.00     0.000 HD 
ENDROOT
BRANCH   2   5
HETATM    5  C   UNL     1     -10.142   9.073  66.206  1.00  0.00    -0.241 C  
HETATM    6  O   UNL     1      -9.495   7.838  66.508  1.00  0.00    -0.189 OA 
HETATM    7  H   UNL     1      -9.624   7.203  65.813  1.00  0.00     0.000 HD 
ENDBRANCH   2   5
TORSDOF 1
ENDMDL
MODEL      157
REMARK 921   NORMALIZED FREE ENERGY PREDICTED BY IDOCK:   -0.96 KCAL/MOL
REMARK 922        TOTAL FREE ENERGY PREDICTED BY IDOCK:   -1.02 KCAL/MOL
REMARK 923 INTER-LIGAND FREE ENERGY PREDICTED BY IDOCK:   -1.02 KCAL/MOL
REMARK 924 INTRA-LIGAND FREE ENERGY PREDICTED BY IDOCK:    0.00 KCAL/MOL
REMARK 927      BINDING AFFINITY PREDICTED BY RF-SCORE:    0.00 PKD
ROOT
HETATM    1  C   UNL     1      -6.382   8.109  63.826  1.00  0.00    -0.071 C  
HETATM    2  C   UNL     1      -7.679   8.048  63.035  1.00  0.00    -0.136 C  
HETATM    3  O   UNL     1      -8.514   7.033  63.593  1.00  0.00    -0.349 OA 
HETATM    4  H   UNL     1      -9.324   6.995  63.099  1.00  0.00     0.000 HD 
ENDROOT
BRANCH   2   5
HETATM    5  C   UNL     1      -8.403   9.401  63.028  1.00  0.00    -0.188 C  
HETATM    6  O   UNL     1      -7.476  10.482  63.112  1.00  0.00    -0.275 OA 
HETATM    7  H   UNL     1      -7.924  11.321  63.108  1.00  0.00     0.000 HD 
ENDBRANCH   2   5
TORSDOF 1
ENDMDL
MODEL      158
REMARK 921   NORMALIZED FREE ENERGY PREDICTED BY IDOCK:   -0.94 KCAL/MOL
REMARK 922        TOTAL FREE ENERGY PREDICTED BY IDOCK:   -0.99 KCAL/MOL
REMARK 923 INTER-LIGAND FREE ENERGY PREDICTED BY IDOCK:   -0.99 KCAL/MOL
REMARK 924 INTRA-LIGAND FREE ENERGY PREDICTED BY IDOCK:    0.00 KCAL/MOL
REMARK 927      BINDING AFFINITY PREDICTED BY RF-SCORE:    0.00 PKD
ROOT
HETATM    1  C   UNL     1      -7.570   7.520  65.167  1.00  0.00    -0.096 C  
HETATM    2  C   UNL     1      -8.505   8.519  65.827  1.00  0.00    -0.154 C  
HETATM    3  O   UNL     1      -9.308   9.137  64.821  1.00  0.00    -0.441 OA 
HETATM    4  H   UNL     1      -9.892   9.761  65.234  1.00  0.00     0.000 HD 
ENDROOT
BRANCH   2   5
HETATM    5  C   UNL     1      -9.388   7.852  66.891  1.00  0.00    -0.164 C  
HETATM    6  O   UNL     1      -9.129   8.389  68.187  1.00  0.00    -0.138 OA 
HETATM    7  H   UNL     1      -9.676   7.976  68.846  1.00  0.00     0.000 HD 
ENDBRANCH   2   5
TORSDOF 1
ENDMDL
MODEL      159
REMARK 921   NORMALIZED FREE ENERGY PREDICTED BY IDOCK:   -0.89 KCAL/MOL
REMARK 922        TOTAL FREE ENERGY PREDICTED BY IDOCK:   -0.95 KCAL/MOL
REMARK 923 INTER-LIGAND FREE ENERGY PREDICTED BY IDOCK:   -0.95 KCAL/MOL
REMARK 924 INTRA-LIGAND FREE ENERGY PREDICTED BY IDOCK:    0.00 KCAL/MOL
REMARK 927      BINDING AFFINITY PREDICTED BY RF-SCORE:    0.00 PKD
ROOT
HETATM    1  C   UNL     1      -7.435   9.128  68.103  1.00  0.00    -0.083 C  
HETATM    2  C   UNL     1      -8.547   8.460  68.894  1.00  0.00    -0.135 C  
HETATM    3  O   UNL     1      -8.352   7.045  68.863  1.00  0.00    -0.124 OA 
HETATM    4  H   UNL     1      -9.047   6.629  69.357  1.00  0.00     0.000 HD 
ENDROOT
BRANCH   2   5
HETATM    5  C   UNL     1      -8.597   8.968  70.342  1.00  0.00    -0.193 C  
HETATM    6  O   UNL     1      -8.060  10.284  70.446  1.00  0.00    -0.410 OA 
HETATM    7  H   UNL     1      -8.091  10.599  71.342  1.00  0.00     0.000 HD 
ENDBRANCH   2   5
TORSDOF 1
ENDMDL
MODEL      160
REMARK 921   NORMALIZED FREE ENERGY PREDICTED BY IDOCK:   -0.87 KCAL/MOL
REMARK 922        TOTAL FREE ENERGY PREDICTED BY IDOCK:   -0.92 KCAL/MOL
REMARK 923 INTER-LIGAND FREE ENERGY PREDICTED BY IDOCK:   -0.92 KCAL/MOL
REMARK 924 INTRA-LIGAND FREE ENERGY PREDICTED BY IDOCK:    0.00 KCAL/MOL
REMARK 927      BINDING AFFINITY PREDICTED BY RF-SCORE:    0.00 PKD
ROOT
HETATM    1  C   UNL     1     -10.299   9.544  67.854  1.00  0.00    -0.276 C  
HETATM    2  C   UNL     1      -9.402  10.686  68.302  1.00  0.00    -0.156 C  
HETATM    3  O   UNL     1      -8.231  10.142  68.913  1.00  0.00    -0.107 OA 
HETATM    4  H   UNL     1      -7.671  10.855  69.193  1.00  0.00     0.000 HD 
ENDROOT
BRANCH   2   5
HETATM    5  C   UNL     1      -9.025  11.604  67.132  1.00  0.00    -0.173 C  
HETATM    6  O   UNL     1     -10.122  11.776  66.237  1.00  0.00    -0.207 OA 
HETATM    7  H   UNL     1      -9.888  12.344  65.512  1.00  0.00     0.000 HD 
ENDBRANCH   2   5
TORSDOF 1
ENDMDL
MODEL      161
REMARK 921   NORMALIZED FREE ENERGY PREDICTED BY IDOCK:   -0.82 KCAL/MOL
REMARK 922        TOTAL FREE ENERGY PREDICTED BY IDOCK:   -0.86 KCAL/MOL
REMARK 923 INTER-LIGAND FREE ENERGY PREDICTED BY IDOCK:   -0.86 KCAL/MOL
REMARK 924 INTRA-LIGAND FREE ENERGY PREDICTED BY IDOCK:    0.00 KCAL/MOL
REMARK 927      BINDING AFFINITY PREDICTED BY RF-SCORE:    0.00 PKD
ROOT
HETATM    1  C   UNL     1      -9.034   6.622  71.656  1.00  0.00    -0.141 C  
HETATM    2  C   UNL     1      -8.864   8.106  71.375  1.00  0.00    -0.149 C  
HETATM    3  O   UNL     1      -8.757   8.803  72.616  1.00  0.00    -0.408 OA 
HETATM    4  H   UNL     1      -8.651   9.730  72.440  1.00  0.00     0.000 HD 
ENDROOT
BRANCH   2   5
HETATM    5  C   UNL     1      -7.638   8.378  70.493  1.00  0.00    -0.074 C  
HETATM    6  O   UNL     1      -7.845   9.516  69.659  1.00  0.00    -0.091 OA 
HETATM    7  H   UNL     1      -7.086   9.686  69.112  1.00  0.00     0.000 HD 
ENDBRANCH   2   5
TORSDOF 1
ENDMDL
MODEL      162
REMARK 921   NORMALIZED FREE ENERGY PREDICTED BY IDOCK:   -0.81 KCAL/MOL
REMARK 922        TOTAL FREE ENERGY PREDICTED BY IDOCK:   -0.85 KCAL/MOL
REMARK 923 INTER-LIGAND FREE ENERGY PREDICTED BY IDOCK:   -0.85 KCAL/MOL
REMARK 924 INTRA-LIGAND FREE ENERGY PREDICTED BY IDOCK:    0.00 KCAL/MOL
REMARK 927      BINDING AFFINITY PREDICTED BY RF-SCORE:    0.00 PKD
ROOT
HETATM    1  C   UNL     1      -6.797  10.662  68.066  1.00  0.00    -0.072 C  
HETATM    2  C   UNL     1      -8.070  10.648  67.236  1.00  0.00    -0.116 C  
HETATM    3  O   UNL     1      -8.172   9.390  66.566  1.00  0.00    -0.113 OA 
HETATM    4  H   UNL     1      -8.968   9.382  66.048  1.00  0.00     0.000 HD 
ENDROOT
BRANCH   2   5
HETATM    5  C   UNL     1      -9.313  10.904  68.099  1.00  0.00    -0.165 C  
HETATM    6  O   UNL     1      -8.971  11.001  69.480  1.00  0.00    -0.386 OA 
HETATM    7  H   UNL     1      -9.741  11.160  70.015  1.00  0.00     0.000 HD 
ENDBRANCH   2   5
TORSDOF 1
ENDMDL
MODEL      163
REMARK 921   NORMALIZED FREE ENERGY PREDICTED BY IDOCK:   -0.80 KCAL/MOL
REMARK 922        TOTAL FREE ENERGY PREDICTED BY IDOCK:   -0.84 KCAL/MOL
REMARK 923 INTER-LIGAND FREE ENERGY PREDICTED BY IDOCK:   -0.84 KCAL/MOL
REMARK 924 INTRA-LIGAND FREE ENERGY PREDICTED BY IDOCK:    0.00 KCAL/MOL
REMARK 927      BINDING AFFINITY PREDICTED BY RF-SCORE:    0.00 PKD
ROOT
HETATM    1  C   UNL     1     -10.560   4.168  72.750  1.00  0.00    -0.226 C  
HETATM    2  C   UNL     1     -10.045   4.976  71.570  1.00  0.00    -0.196 C  
HETATM    3  O   UNL     1      -9.415   6.160  72.061  1.00  0.00    -0.153 OA 
HETATM    4  H   UNL     1      -9.094   6.665  71.323  1.00  0.00     0.000 HD 
ENDROOT
BRANCH   2   5
HETATM    5  C   UNL     1      -9.072   4.162  70.707  1.00  0.00    -0.111 C  
HETATM    6  O   UNL     1      -9.572   2.850  70.463  1.00  0.00    -0.157 OA 
HETATM    7  H   UNL     1      -8.969   2.345  69.929  1.00  0.00     0.000 HD 
ENDBRANCH   2   5
TORSDOF 1
ENDMDL
MODEL      164
REMARK 921   NORMALIZED FREE ENERGY PREDICTED BY IDOCK:   -0.79 KCAL/MOL
REMARK 922        TOTAL FREE ENERGY PREDICTED BY IDOCK:   -0.84 KCAL/MOL
REMARK 923 INTER-LIGAND FREE ENERGY PREDICTED BY IDOCK:   -0.84 KCAL/MOL
REMARK 924 INTRA-LIGAND FREE ENERGY PREDICTED BY IDOCK:    0.00 KCAL/MOL
REMARK 927      BINDING AFFINITY PREDICTED BY RF-SCORE:    0.00 PKD
ROOT
HETATM    1  C   UNL     1      -8.807   2.641  64.080  1.00  0.00    -0.092 C  
HETATM    2  C   UNL     1      -9.351   4.038  63.832  1.00  0.00    -0.151 C  
HETATM    3  O   UNL     1      -8.884   4.907  64.865  1.00  0.00    -0.150 OA 
HETATM    4  H   UNL     1      -9.224   5.779  64.709  1.00  0.00     0.000 HD 
ENDROOT
BRANCH   2   5
HETATM    5  C   UNL     1      -8.942   4.569  62.451  1.00  0.00    -0.122 C  
HETATM    6  O   UNL     1      -8.681   5.970  62.494  1.00  0.00    -0.326 OA 
HETATM    7  H   UNL     1      -8.428   6.300  61.639  1.00  0.00     0.000 HD 
ENDBRANCH   2   5
TORSDOF 1
ENDMDL
MODEL      165
REMARK 921   NORMALIZED FREE ENERGY PREDICTED BY IDOCK:   -0.77 KCAL/MOL
REMARK 922        TOTAL FREE ENERGY PREDICTED BY IDOCK:   -0.82 KCAL/MOL
REMARK 923 INTER-LIGAND FREE ENERGY PREDICTED BY IDOCK:   -0.82 KCAL/MOL
REMARK 924 INTRA-LIGAND FREE ENERGY PREDICTED BY IDOCK:    0.00 KCAL/MOL
REMARK 927      BINDING AFFINITY PREDICTED BY RF-SCORE:    0.00 PKD
ROOT
HETATM    1  C   UNL     1      -7.991  10.366  67.629  1.00  0.00    -0.106 C  
HETATM    2  C   UNL     1      -7.321  10.619  66.289  1.00  0.00    -0.137 C  
HETATM    3  O   UNL     1      -6.038   9.992  66.288  1.00  0.00    -0.062 OA 
HETATM    4  H   UNL     1      -5.619  10.150  65.450  1.00  0.00     0.000 HD 
ENDROOT
BRANCH   2   5
HETATM    5  C   UNL     1      -8.176  10.106  65.122  1.00  0.00    -0.151 C  
HETATM    6  O   UNL     1      -7.800  10.728  63.895  1.00  0.00    -0.359 OA 
HETATM    7  H   UNL     1      -8.330  10.411  63.172  1.00  0.00     0.000 HD 
ENDBRANCH   2   5
TORSDOF 1
ENDMDL
MODEL      166
REMARK 921   NORMALIZED FREE ENERGY PREDICTED BY IDOCK:   -0.76 KCAL/MOL
REMARK 922        TOTAL FREE ENERGY PREDICTED BY IDOCK:   -0.81 KCAL/MOL
REMARK 923 INTER-LIGAND FREE ENERGY PREDICTED BY IDOCK:   -0.81 KCAL/MOL
REMARK 924 INTRA-LIGAND FREE ENERGY PREDICTED BY IDOCK:    0.00 KCAL/MOL
REMARK 927      BINDING AFFINITY PREDICTED BY RF-SCORE:    0.00 PKD
ROOT
HETATM    1  C   UNL     1      -8.079   9.591  68.459  1.00  0.00    -0.101 C  
HETATM    2  C   UNL     1      -7.614  11.037  68.406  1.00  0.00    -0.108 C  
HETATM    3  O   UNL     1      -6.225  11.089  68.735  1.00  0.00    -0.043 OA 
HETATM    4  H   UNL     1      -5.935  11.992  68.702  1.00  0.00     0.000 HD 
ENDROOT
BRANCH   2   5
HETATM    5  C   UNL     1      -7.867  11.665  67.028  1.00  0.00    -0.164 C  
HETATM    6  O   UNL     1      -6.705  12.334  66.545  1.00  0.00    -0.394 OA 
HETATM    7  H   UNL     1      -6.863  12.724  65.691  1.00  0.00     0.000 HD 
ENDBRANCH   2   5
TORSDOF 1
ENDMDL
MODEL      167
REMARK 921   NORMALIZED FREE ENERGY PREDICTED BY IDOCK:   -0.74 KCAL/MOL
REMARK 922        TOTAL FREE ENERGY PREDICTED BY IDOCK:   -0.79 KCAL/MOL
REMARK 923 INTER-LIGAND FREE ENERGY PREDICTED BY IDOCK:   -0.79 KCAL/MOL
REMARK 924 INTRA-LIGAND FREE ENERGY PREDICTED BY IDOCK:    0.00 KCAL/MOL
REMARK 927      BINDING AFFINITY PREDICTED BY RF-SCORE:    0.00 PKD
ROOT
HETATM    1  C   UNL     1      -9.479   4.326  68.611  1.00  0.00    -0.221 C  
HETATM    2  C   UNL     1      -8.406   3.605  67.812  1.00  0.00    -0.093 C  
HETATM    3  O   UNL     1      -7.127   4.121  68.184  1.00  0.00    -0.057 OA 
HETATM    4  H   UNL     1      -6.457   3.671  67.685  1.00  0.00     0.000 HD 
ENDROOT
BRANCH   2   5
HETATM    5  C   UNL     1      -8.461   2.087  68.029  1.00  0.00    -0.069 C  
HETATM    6  O   UNL     1      -9.806   1.635  68.170  1.00  0.00    -0.348 OA 
HETATM    7  H   UNL     1      -9.841   0.694  68.305  1.00  0.00     0.000 HD 
ENDBRANCH   2   5
TORSDOF 1
ENDMDL
MODEL      168
REMARK 921   NORMALIZED FREE ENERGY PREDICTED BY IDOCK:   -0.72 KCAL/MOL
REMARK 922        TOTAL FREE ENERGY PREDICTED BY IDOCK:   -0.76 KCAL/MOL
REMARK 923 INTER-LIGAND FREE ENERGY PREDICTED BY IDOCK:   -0.76 KCAL/MOL
REMARK 924 INTRA-LIGAND FREE ENERGY PREDICTED BY IDOCK:    0.00 KCAL/MOL
REMARK 927      BINDING AFFINITY PREDICTED BY RF-SCORE:    0.00 PKD
ROOT
HETATM    1  C   UNL     1     -10.523   5.057  65.863  1.00  0.00    -0.233 C  
HETATM    2  C   UNL     1      -9.191   4.547  65.340  1.00  0.00    -0.154 C  
HETATM    3  O   UNL     1      -9.426   3.723  64.198  1.00  0.00    -0.138 OA 
HETATM    4  H   UNL     1      -8.593   3.405  63.872  1.00  0.00     0.000 HD 
ENDROOT
BRANCH   2   5
HETATM    5  C   UNL     1      -8.241   5.701  64.989  1.00  0.00    -0.137 C  
HETATM    6  O   UNL     1      -7.845   6.417  66.157  1.00  0.00    -0.097 OA 
HETATM    7  H   UNL     1      -7.257   7.132  65.940  1.00  0.00     0.000 HD 
ENDBRANCH   2   5
TORSDOF 1
ENDMDL
MODEL      169
REMARK 921   NORMALIZED FREE ENERGY PREDICTED BY IDOCK:   -0.71 KCAL/MOL
REMARK 922        TOTAL FREE ENERGY PREDICTED BY IDOCK:   -0.75 KCAL/MOL
REMARK 923 INTER-LIGAND FREE ENERGY PREDICTED BY IDOCK:   -0.75 KCAL/MOL
REMARK 924 INTRA-LIGAND FREE ENERGY PREDICTED BY IDOCK:    0.00 KCAL/MOL
REMARK 927      BINDING AFFINITY PREDICTED BY RF-SCORE:    0.00 PKD
ROOT
HETATM    1  C   UNL     1      -9.232   3.236  70.596  1.00  0.00    -0.207 C  
HETATM    2  C   UNL     1      -9.473   4.664  71.058  1.00  0.00    -0.161 C  
HETATM    3  O   UNL     1      -9.504   4.690  72.486  1.00  0.00    -0.133 OA 
HETATM    4  H   UNL     1      -9.654   5.582  72.774  1.00  0.00     0.000 HD 
ENDROOT
BRANCH   2   5
HETATM    5  C   UNL     1      -8.401   5.622  70.522  1.00  0.00    -0.117 C  
HETATM    6  O   UNL     1      -8.919   6.443  69.477  1.00  0.00    -0.135 OA 
HETATM    7  H   UNL     1      -8.255   7.037  69.145  1.00  0.00     0.000 HD 
ENDBRANCH   2   5
TORSDOF 1
ENDMDL
MODEL      170
REMARK 921   NORMALIZED FREE ENERGY PREDICTED BY IDOCK:   -0.71 KCAL/MOL
REMARK 922        TOTAL FREE ENERGY PREDICTED BY IDOCK:   -0.75 KCAL/MOL
REMARK 923 INTER-LIGAND FREE ENERGY PREDICTED BY IDOCK:   -0.75 KCAL/MOL
REMARK 924 INTRA-LIGAND FREE ENERGY PREDICTED BY IDOCK:    0.00 KCAL/MOL
REMARK 927      BINDING AFFINITY PREDICTED BY RF-SCORE:    0.00 PKD
ROOT
HETATM    1  C   UNL     1      -6.267   8.700  74.005  1.00  0.00    -0.132 C  
HETATM    2  C   UNL     1      -6.369   7.983  72.669  1.00  0.00    -0.073 C  
HETATM    3  O   UNL     1      -5.613   6.773  72.734  1.00  0.00    -0.037 OA 
HETATM    4  H   UNL     1      -5.677   6.325  71.899  1.00  0.00     0.000 HD 
ENDROOT
BRANCH   2   5
HETATM    5  C   UNL     1      -7.827   7.690  72.292  1.00  0.00    -0.102 C  
HETATM    6  O   UNL     1      -8.681   8.773  72.654  1.00  0.00    -0.408 OA 
HETATM    7  H   UNL     1      -9.585   8.592  72.421  1.00  0.00     0.000 HD 
ENDBRANCH   2   5
TORSDOF 1
ENDMDL
MODEL      171
REMARK 921   NORMALIZED FREE ENERGY PREDICTED BY IDOCK:   -0.68 KCAL/MOL
REMARK 922        TOTAL FREE ENERGY PREDICTED BY IDOCK:   -0.72 KCAL/MOL
REMARK 923 INTER-LIGAND FREE ENERGY PREDICTED BY IDOCK:   -0.72 KCAL/MOL
REMARK 924 INTRA-LIGAND FREE ENERGY PREDICTED BY IDOCK:    0.00 KCAL/MOL
REMARK 927      BINDING AFFINITY PREDICTED BY RF-SCORE:    0.00 PKD
ROOT
HETATM    1  C   UNL     1      -7.477  10.786  68.930  1.00  0.00    -0.116 C  
HETATM    2  C   UNL     1      -8.778  10.003  68.998  1.00  0.00    -0.158 C  
HETATM    3  O   UNL     1      -9.872  10.915  68.894  1.00  0.00    -0.191 OA 
HETATM    4  H   UNL     1     -10.685  10.426  68.936  1.00  0.00     0.000 HD 
ENDROOT
BRANCH   2   5
HETATM    5  C   UNL     1      -8.856   8.936  67.898  1.00  0.00    -0.133 C  
HETATM    6  O   UNL     1      -8.088   7.784  68.242  1.00  0.00    -0.120 OA 
HETATM    7  H   UNL     1      -8.135   7.123  67.561  1.00  0.00     0.000 HD 
ENDBRANCH   2   5
TORSDOF 1
ENDMDL
MODEL      172
REMARK 921   NORMALIZED FREE ENERGY PREDICTED BY IDOCK:   -0.68 KCAL/MOL
REMARK 922        TOTAL FREE ENERGY PREDICTED BY IDOCK:   -0.72 KCAL/MOL
REMARK 923 INTER-LIGAND FREE ENERGY PREDICTED BY IDOCK:   -0.72 KCAL/MOL
REMARK 924 INTRA-LIGAND FREE ENERGY PREDICTED BY IDOCK:    0.00 KCAL/MOL
REMARK 927      BINDING AFFINITY PREDICTED BY RF-SCORE:    0.00 PKD
ROOT
HETATM    1  C   UNL     1     -10.089   5.746  68.036  1.00  0.00    -0.198 C  
HETATM    2  C   UNL     1      -9.140   4.572  68.212  1.00  0.00    -0.124 C  
HETATM    3  O   UNL     1      -7.813   4.999  67.902  1.00  0.00    -0.089 OA 
HETATM    4  H   UNL     1      -7.221   4.265  68.012  1.00  0.00     0.000 HD 
ENDROOT
BRANCH   2   5
HETATM    5  C   UNL     1      -9.206   3.999  69.635  1.00  0.00    -0.147 C  
HETATM    6  O   UNL     1      -9.640   4.985  70.569  1.00  0.00    -0.160 OA 
HETATM    7  H   UNL     1      -9.681   4.630  71.450  1.00  0.00     0.000 HD 
ENDBRANCH   2   5
TORSDOF 1
ENDMDL
MODEL      173
REMARK 921   NORMALIZED FREE ENERGY PREDICTED BY IDOCK:   -0.67 KCAL/MOL
REMARK 922        TOTAL FREE ENERGY PREDICTED BY IDOCK:   -0.71 KCAL/MOL
REMARK 923 INTER-LIGAND FREE ENERGY PREDICTED BY IDOCK:   -0.71 KCAL/MOL
REMARK 924 INTRA-LIGAND FREE ENERGY PREDICTED BY IDOCK:    0.00 KCAL/MOL
REMARK 927      BINDING AFFINITY PREDICTED BY RF-SCORE:    0.00 PKD
ROOT
HETATM    1  C   UNL     1      -9.480   6.395  73.998  1.00  0.00    -0.197 C  
HETATM    2  C   UNL     1      -8.351   6.674  73.019  1.00  0.00    -0.117 C  
HETATM    3  O   UNL     1      -8.111   5.500  72.242  1.00  0.00    -0.106 OA 
HETATM    4  H   UNL     1      -7.406   5.676  71.631  1.00  0.00     0.000 HD 
ENDROOT
BRANCH   2   5
HETATM    5  C   UNL     1      -8.671   7.869  72.111  1.00  0.00    -0.142 C  
HETATM    6  O   UNL     1      -8.971   7.443  70.784  1.00  0.00    -0.149 OA 
HETATM    7  H   UNL     1      -9.169   8.183  70.221  1.00  0.00     0.000 HD 
ENDBRANCH   2   5
TORSDOF 1
ENDMDL
MODEL      174
REMARK 921   NORMALIZED FREE ENERGY PREDICTED BY IDOCK:   -0.66 KCAL/MOL
REMARK 922        TOTAL FREE ENERGY PREDICTED BY IDOCK:   -0.70 KCAL/MOL
REMARK 923 INTER-LIGAND FREE ENERGY PREDICTED BY IDOCK:   -0.70 KCAL/MOL
REMARK 924 INTRA-LIGAND FREE ENERGY PREDICTED BY IDOCK:    0.00 KCAL/MOL
REMARK 927      BINDING AFFINITY PREDICTED BY RF-SCORE:    0.00 PKD
ROOT
HETATM    1  C   UNL     1      -8.068   9.203  70.248  1.00  0.00    -0.156 C  
HETATM    2  C   UNL     1      -8.333   7.806  69.712  1.00  0.00    -0.131 C  
HETATM    3  O   UNL     1      -8.880   7.005  70.759  1.00  0.00    -0.147 OA 
HETATM    4  H   UNL     1      -9.046   6.132  70.424  1.00  0.00     0.000 HD 
ENDROOT
BRANCH   2   5
HETATM    5  C   UNL     1      -9.275   7.833  68.501  1.00  0.00    -0.137 C  
HETATM    6  O   UNL     1      -8.731   8.615  67.440  1.00  0.00    -0.132 OA 
HETATM    7  H   UNL     1      -9.315   8.632  66.690  1.00  0.00     0.000 HD 
ENDBRANCH   2   5
TORSDOF 1
ENDMDL
MODEL      175
REMARK 921   NORMALIZED FREE ENERGY PREDICTED BY IDOCK:   -0.64 KCAL/MOL
REMARK 922        TOTAL FREE ENERGY PREDICTED BY IDOCK:   -0.68 KCAL/MOL
REMARK 923 INTER-LIGAND FREE ENERGY PREDICTED BY IDOCK:   -0.68 KCAL/MOL
REMARK 924 INTRA-LIGAND FREE ENERGY PREDICTED BY IDOCK:    0.00 KCAL/MOL
REMARK 927      BINDING AFFINITY PREDICTED BY RF-SCORE:    0.00 PKD
ROOT
HETATM    1  C   UNL     1     -10.167   6.890  69.872  1.00  0.00    -0.214 C  
HETATM    2  C   UNL     1      -8.725   6.892  69.391  1.00  0.00    -0.133 C  
HETATM    3  O   UNL     1      -8.708   6.668  67.980  1.00  0.00    -0.118 OA 
HETATM    4  H   UNL     1      -7.807   6.669  67.680  1.00  0.00     0.000 HD 
ENDROOT
BRANCH   2   5
HETATM    5  C   UNL     1      -8.013   8.205  69.740  1.00  0.00    -0.111 C  
HETATM    6  O   UNL     1      -7.803   9.003  68.577  1.00  0.00    -0.099 OA 
HETATM    7  H   UNL     1      -7.361   9.817  68.793  1.00  0.00     0.000 HD 
ENDBRANCH   2   5
TORSDOF 1
ENDMDL
MODEL      176
REMARK 921   NORMALIZED FREE ENERGY PREDICTED BY IDOCK:   -0.63 KCAL/MOL
REMARK 922        TOTAL FREE ENERGY PREDICTED BY IDOCK:   -0.66 KCAL/MOL
REMARK 923 INTER-LIGAND FREE ENERGY PREDICTED BY IDOCK:   -0.66 KCAL/MOL
REMARK 924 INTRA-LIGAND FREE ENERGY PREDICTED BY IDOCK:    0.00 KCAL/MOL
REMARK 927      BINDING AFFINITY PREDICTED BY RF-SCORE:    0.00 PKD
ROOT
HETATM    1  C   UNL     1      -7.755   7.674  71.816  1.00  0.00    -0.089 C  
HETATM    2  C   UNL     1      -8.680   6.533  71.428  1.00  0.00    -0.130 C  
HETATM    3  O   UNL     1      -7.957   5.605  70.619  1.00  0.00    -0.100 OA 
HETATM    4  H   UNL     1      -8.535   4.892  70.377  1.00  0.00     0.000 HD 
ENDROOT
BRANCH   2   5
HETATM    5  C   UNL     1      -9.267   5.833  72.662  1.00  0.00    -0.137 C  
HETATM    6  O   UNL     1     -10.594   5.376  72.414  1.00  0.00    -0.208 OA 
HETATM    7  H   UNL     1     -10.958   4.943  73.178  1.00  0.00     0.000 HD 
ENDBRANCH   2   5
TORSDOF 1
ENDMDL
MODEL      177
REMARK 921   NORMALIZED FREE ENERGY PREDICTED BY IDOCK:   -0.58 KCAL/MOL
REMARK 922        TOTAL FREE ENERGY PREDICTED BY IDOCK:   -0.62 KCAL/MOL
REMARK 923 INTER-LIGAND FREE ENERGY PREDICTED BY IDOCK:   -0.62 KCAL/MOL
REMARK 924 INTRA-LIGAND FREE ENERGY PREDICTED BY IDOCK:    0.00 KCAL/MOL
REMARK 927      BINDING AFFINITY PREDICTED BY RF-SCORE:    0.00 PKD
ROOT
HETATM    1  C   UNL     1      -7.349   5.048  71.242  1.00  0.00    -0.073 C  
HETATM    2  C   UNL     1      -8.295   5.445  72.363  1.00  0.00    -0.118 C  
HETATM    3  O   UNL     1      -7.529   5.958  73.454  1.00  0.00    -0.092 OA 
HETATM    4  H   UNL     1      -8.121   6.206  74.154  1.00  0.00     0.000 HD 
ENDROOT
BRANCH   2   5
HETATM    5  C   UNL     1      -9.328   6.478  71.893  1.00  0.00    -0.148 C  
HETATM    6  O   UNL     1     -10.155   5.948  70.860  1.00  0.00    -0.184 OA 
HETATM    7  H   UNL     1     -10.795   6.588  70.569  1.00  0.00     0.000 HD 
ENDBRANCH   2   5
TORSDOF 1
ENDMDL
MODEL      178
REMARK 921   NORMALIZED FREE ENERGY PREDICTED BY IDOCK:   -0.56 KCAL/MOL
REMARK 922        TOTAL FREE ENERGY PREDICTED BY IDOCK:   -0.60 KCAL/MOL
REMARK 923 INTER-LIGAND FREE ENERGY PREDICTED BY IDOCK:   -0.60 KCAL/MOL
REMARK 924 INTRA-LIGAND FREE ENERGY PREDICTED BY IDOCK:    0.00 KCAL/MOL
REMARK 927      BINDING AFFINITY PREDICTED BY RF-SCORE:    0.00 PKD
ROOT
HETATM    1  C   UNL     1      -7.360   3.861  70.280  1.00  0.00    -0.042 C  
HETATM    2  C   UNL     1      -8.874   3.734  70.245  1.00  0.00    -0.086 C  
HETATM    3  O   UNL     1      -9.452   4.961  70.693  1.00  0.00    -0.151 OA 
HETATM    4  H   UNL     1     -10.398   4.881  70.671  1.00  0.00     0.000 HD 
ENDROOT
BRANCH   2   5
HETATM    5  C   UNL     1      -9.381   3.377  68.840  1.00  0.00    -0.168 C  
HETATM    6  O   UNL     1      -9.541   4.545  68.038  1.00  0.00    -0.150 OA 
HETATM    7  H   UNL     1      -9.855   4.324  67.168  1.00  0.00     0.000 HD 
ENDBRANCH   2   5
TORSDOF 1
ENDMDL
MODEL      179
REMARK 921   NORMALIZED FREE ENERGY PREDICTED BY IDOCK:   -0.56 KCAL/MOL
REMARK 922        TOTAL FREE ENERGY PREDICTED BY IDOCK:   -0.59 KCAL/MOL
REMARK 923 INTER-LIGAND FREE ENERGY PREDICTED BY IDOCK:   -0.59 KCAL/MOL
REMARK 924 INTRA-LIGAND FREE ENERGY PREDICTED BY IDOCK:    0.00 KCAL/MOL
REMARK 927      BINDING AFFINITY PREDICTED BY RF-SCORE:    0.00 PKD
ROOT
HETATM    1  C   UNL     1      -7.658   6.990  71.289  1.00  0.00    -0.086 C  
HETATM    2  C   UNL     1      -8.164   6.406  69.981  1.00  0.00    -0.125 C  
HETATM    3  O   UNL     1      -8.647   5.083  70.222  1.00  0.00    -0.099 OA 
HETATM    4  H   UNL     1      -8.963   4.718  69.404  1.00  0.00     0.000 HD 
ENDROOT
BRANCH   2   5
HETATM    5  C   UNL     1      -9.261   7.278  69.357  1.00  0.00    -0.148 C  
HETATM    6  O   UNL     1      -8.747   8.547  68.958  1.00  0.00    -0.132 OA 
HETATM    7  H   UNL     1      -9.427   9.088  68.571  1.00  0.00     0.000 HD 
ENDBRANCH   2   5
TORSDOF 1
ENDMDL
MODEL      180
REMARK 921   NORMALIZED FREE ENERGY PREDICTED BY IDOCK:   -0.55 KCAL/MOL
REMARK 922        TOTAL FREE ENERGY PREDICTED BY IDOCK:   -0.59 KCAL/MOL
REMARK 923 INTER-LIGAND FREE ENERGY PREDICTED BY IDOCK:   -0.59 KCAL/MOL
REMARK 924 INTRA-LIGAND FREE ENERGY PREDICTED BY IDOCK:    0.00 KCAL/MOL
REMARK 927      BINDING AFFINITY PREDICTED BY RF-SCORE:    0.00 PKD
ROOT
HETATM    1  C   UNL     1      -9.180   7.337  69.126  1.00  0.00    -0.139 C  
HETATM    2  C   UNL     1      -8.358   6.467  68.190  1.00  0.00    -0.116 C  
HETATM    3  O   UNL     1      -7.550   5.584  68.969  1.00  0.00    -0.083 OA 
HETATM    4  H   UNL     1      -7.037   5.041  68.384  1.00  0.00     0.000 HD 
ENDROOT
BRANCH   2   5
HETATM    5  C   UNL     1      -9.249   5.675  67.224  1.00  0.00    -0.110 C  
HETATM    6  O   UNL     1      -9.318   4.300  67.595  1.00  0.00    -0.139 OA 
HETATM    7  H   UNL     1      -9.870   3.808  66.996  1.00  0.00     0.000 HD 
ENDBRANCH   2   5
TORSDOF 1
ENDMDL
MODEL      181
REMARK 921   NORMALIZED FREE ENERGY PREDICTED BY IDOCK:   -0.55 KCAL/MOL
REMARK 922        TOTAL FREE ENERGY PREDICTED BY IDOCK:   -0.58 KCAL/MOL
REMARK 923 INTER-LIGAND FREE ENERGY PREDICTED BY IDOCK:   -0.58 KCAL/MOL
REMARK 924 INTRA-LIGAND FREE ENERGY PREDICTED BY IDOCK:    0.00 KCAL/MOL
REMARK 927      BINDING AFFINITY PREDICTED BY RF-SCORE:    0.00 PKD
ROOT
HETATM    1  C   UNL     1      -6.952   5.983  67.802  1.00  0.00    -0.069 C  
HETATM    2  C   UNL     1      -8.386   6.109  68.288  1.00  0.00    -0.114 C  
HETATM    3  O   UNL     1      -8.379   6.601  69.629  1.00  0.00    -0.128 OA 
HETATM    4  H   UNL     1      -9.275   6.680  69.933  1.00  0.00     0.000 HD 
ENDROOT
BRANCH   2   5
HETATM    5  C   UNL     1      -9.215   7.028  67.380  1.00  0.00    -0.126 C  
HETATM    6  O   UNL     1      -9.543   8.248  68.041  1.00  0.00    -0.148 OA 
HETATM    7  H   UNL     1     -10.056   8.817  67.478  1.00  0.00     0.000 HD 
ENDBRANCH   2   5
TORSDOF 1
ENDMDL
MODEL      182
REMARK 921   NORMALIZED FREE ENERGY PREDICTED BY IDOCK:   -0.52 KCAL/MOL
REMARK 922        TOTAL FREE ENERGY PREDICTED BY IDOCK:   -0.55 KCAL/MOL
REMARK 923 INTER-LIGAND FREE ENERGY PREDICTED BY IDOCK:   -0.55 KCAL/MOL
REMARK 924 INTRA-LIGAND FREE ENERGY PREDICTED BY IDOCK:    0.00 KCAL/MOL
REMARK 927      BINDING AFFINITY PREDICTED BY RF-SCORE:    0.00 PKD
ROOT
HETATM    1  C   UNL     1      -9.568   3.601  67.313  1.00  0.00    -0.194 C  
HETATM    2  C   UNL     1      -8.244   3.103  66.759  1.00  0.00    -0.089 C  
HETATM    3  O   UNL     1      -8.499   2.280  65.621  1.00  0.00    -0.089 OA 
HETATM    4  H   UNL     1      -7.671   1.969  65.275  1.00  0.00     0.000 HD 
ENDROOT
BRANCH   2   5
HETATM    5  C   UNL     1      -7.311   4.265  66.390  1.00  0.00    -0.080 C  
HETATM    6  O   UNL     1      -7.702   5.469  67.046  1.00  0.00    -0.098 OA 
HETATM    7  H   UNL     1      -7.124   6.189  66.817  1.00  0.00     0.000 HD 
ENDBRANCH   2   5
TORSDOF 1
ENDMDL
MODEL      183
REMARK 921   NORMALIZED FREE ENERGY PREDICTED BY IDOCK:   -0.52 KCAL/MOL
REMARK 922        TOTAL FREE ENERGY PREDICTED BY IDOCK:   -0.55 KCAL/MOL
REMARK 923 INTER-LIGAND FREE ENERGY PREDICTED BY IDOCK:   -0.55 KCAL/MOL
REMARK 924 INTRA-LIGAND FREE ENERGY PREDICTED BY IDOCK:    0.00 KCAL/MOL
REMARK 927      BINDING AFFINITY PREDICTED BY RF-SCORE:    0.00 PKD
ROOT
HETATM    1  C   UNL     1     -10.192   4.702  67.183  1.00  0.00    -0.147 C  
HETATM    2  C   UNL     1      -8.894   4.313  66.496  1.00  0.00    -0.116 C  
HETATM    3  O   UNL     1      -8.569   5.307  65.523  1.00  0.00    -0.135 OA 
HETATM    4  H   UNL     1      -7.758   5.063  65.094  1.00  0.00     0.000 HD 
ENDROOT
BRANCH   2   5
HETATM    5  C   UNL     1      -7.748   4.143  67.502  1.00  0.00    -0.080 C  
HETATM    6  O   UNL     1      -8.245   3.842  68.804  1.00  0.00    -0.072 OA 
HETATM    7  H   UNL     1      -7.535   3.737  69.428  1.00  0.00     0.000 HD 
ENDBRANCH   2   5
TORSDOF 1
ENDMDL
MODEL      184
REMARK 921   NORMALIZED FREE ENERGY PREDICTED BY IDOCK:   -0.50 KCAL/MOL
REMARK 922        TOTAL FREE ENERGY PREDICTED BY IDOCK:   -0.53 KCAL/MOL
REMARK 923 INTER-LIGAND FREE ENERGY PREDICTED BY IDOCK:   -0.53 KCAL/MOL
REMARK 924 INTRA-LIGAND FREE ENERGY PREDICTED BY IDOCK:    0.00 KCAL/MOL
REMARK 927      BINDING AFFINITY PREDICTED BY RF-SCORE:    0.00 PKD
ROOT
HETATM    1  C   UNL     1      -9.439   3.942  68.824  1.00  0.00    -0.224 C  
HETATM    2  C   UNL     1      -8.356   4.509  67.921  1.00  0.00    -0.098 C  
HETATM    3  O   UNL     1      -8.103   5.864  68.297  1.00  0.00    -0.107 OA 
HETATM    4  H   UNL     1      -7.427   6.217  67.733  1.00  0.00     0.000 HD 
ENDROOT
BRANCH   2   5
HETATM    5  C   UNL     1      -7.068   3.678  67.990  1.00  0.00    -0.051 C  
HETATM    6  O   UNL     1      -6.932   2.842  66.842  1.00  0.00    -0.048 OA 
HETATM    7  H   UNL     1      -6.134   2.327  66.884  1.00  0.00     0.000 HD 
ENDBRANCH   2   5
TORSDOF 1
ENDMDL
MODEL      185
REMARK 921   NORMALIZED FREE ENERGY PREDICTED BY IDOCK:   -0.47 KCAL/MOL
REMARK 922        TOTAL FREE ENERGY PREDICTED BY IDOCK:   -0.50 KCAL/MOL
REMARK 923 INTER-LIGAND FREE ENERGY PREDICTED BY IDOCK:   -0.50 KCAL/MOL
REMARK 924 INTRA-LIGAND FREE ENERGY PREDICTED BY IDOCK:    0.00 KCAL/MOL
REMARK 927      BINDING AFFINITY PREDICTED BY RF-SCORE:    0.00 PKD
ROOT
HETATM    1  C   UNL     1      -9.385   4.296  66.483  1.00  0.00    -0.174 C  
HETATM    2  C   UNL     1      -8.365   3.998  65.396  1.00  0.00    -0.109 C  
HETATM    3  O   UNL     1      -8.415   5.036  64.417  1.00  0.00    -0.134 OA 
HETATM    4  H   UNL     1      -7.778   4.850  63.739  1.00  0.00     0.000 HD 
ENDROOT
BRANCH   2   5
HETATM    5  C   UNL     1      -6.949   3.862  65.970  1.00  0.00    -0.062 C  
HETATM    6  O   UNL     1      -6.399   2.576  65.689  1.00  0.00    -0.023 OA 
HETATM    7  H   UNL     1      -5.521   2.492  66.045  1.00  0.00     0.000 HD 
ENDBRANCH   2   5
TORSDOF 1
ENDMDL
MODEL      186
REMARK 921   NORMALIZED FREE ENERGY PREDICTED BY IDOCK:   -0.45 KCAL/MOL
REMARK 922        TOTAL FREE ENERGY PREDICTED BY IDOCK:   -0.47 KCAL/MOL
REMARK 923 INTER-LIGAND FREE ENERGY PREDICTED BY IDOCK:   -0.47 KCAL/MOL
REMARK 924 INTRA-LIGAND FREE ENERGY PREDICTED BY IDOCK:    0.00 KCAL/MOL
REMARK 927      BINDING AFFINITY PREDICTED BY RF-SCORE:    0.00 PKD
ROOT
HETATM    1  C   UNL     1      -8.825   4.359  72.644  1.00  0.00    -0.117 C  
HETATM    2  C   UNL     1      -8.309   4.960  71.347  1.00  0.00    -0.116 C  
HETATM    3  O   UNL     1      -9.301   5.841  70.818  1.00  0.00    -0.159 OA 
HETATM    4  H   UNL     1      -8.978   6.216  70.008  1.00  0.00     0.000 HD 
ENDROOT
BRANCH   2   5
HETATM    5  C   UNL     1      -6.981   5.701  71.555  1.00  0.00    -0.068 C  
HETATM    6  O   UNL     1      -5.869   4.864  71.244  1.00  0.00    -0.015 OA 
HETATM    7  H   UNL     1      -5.047   5.323  71.372  1.00  0.00     0.000 HD 
ENDBRANCH   2   5
TORSDOF 1
ENDMDL
MODEL      187
REMARK 921   NORMALIZED FREE ENERGY PREDICTED BY IDOCK:   -0.43 KCAL/MOL
REMARK 922        TOTAL FREE ENERGY PREDICTED BY IDOCK:   -0.45 KCAL/MOL
REMARK 923 INTER-LIGAND FREE ENERGY PREDICTED BY IDOCK:   -0.45 KCAL/MOL
REMARK 924 INTRA-LIGAND FREE ENERGY PREDICTED BY IDOCK:    0.00 KCAL/MOL
REMARK 927      BINDING AFFINITY PREDICTED BY RF-SCORE:    0.00 PKD
ROOT
HETATM    1  C   UNL     1      -9.394   4.095  70.103  1.00  0.00    -0.234 C  
HETATM    2  C   UNL     1      -8.046   4.793  70.037  1.00  0.00    -0.069 C  
HETATM    3  O   UNL     1      -7.172   4.203  71.001  1.00  0.00    -0.036 OA 
HETATM    4  H   UNL     1      -6.330   4.639  70.959  1.00  0.00     0.000 HD 
ENDROOT
BRANCH   2   5
HETATM    5  C   UNL     1      -7.434   4.714  68.632  1.00  0.00    -0.065 C  
HETATM    6  O   UNL     1      -7.382   3.367  68.167  1.00  0.00    -0.050 OA 
HETATM    7  H   UNL     1      -7.003   3.317  67.296  1.00  0.00     0.000 HD 
ENDBRANCH   2   5
TORSDOF 1
ENDMDL
MODEL      188
REMARK 921   NORMALIZED FREE ENERGY PREDICTED BY IDOCK:   -0.40 KCAL/MOL
REMARK 922        TOTAL FREE ENERGY PREDICTED BY IDOCK:   -0.42 KCAL/MOL
REMARK 923 INTER-LIGAND FREE ENERGY PREDICTED BY IDOCK:   -0.42 KCAL/MOL
REMARK 924 INTRA-LIGAND FREE ENERGY PREDICTED BY IDOCK:    0.00 KCAL/MOL
REMARK 927      BINDING AFFINITY PREDICTED BY RF-SCORE:    0.00 PKD
ROOT
HETATM    1  C   UNL     1      -8.641   6.985  66.644  1.00  0.00    -0.124 C  
HETATM    2  C   UNL     1      -7.456   6.400  65.893  1.00  0.00    -0.082 C  
HETATM    3  O   UNL     1      -6.272   7.096  66.282  1.00  0.00    -0.038 OA 
HETATM    4  H   UNL     1      -5.532   6.730  65.813  1.00  0.00     0.000 HD 
ENDROOT
BRANCH   2   5
HETATM    5  C   UNL     1      -7.309   4.894  66.152  1.00  0.00    -0.078 C  
HETATM    6  O   UNL     1      -8.347   4.413  67.004  1.00  0.00    -0.101 OA 
HETATM    7  H   UNL     1      -8.256   3.481  67.165  1.00  0.00     0.000 HD 
ENDBRANCH   2   5
TORSDOF 1
ENDMDL
MODEL      189
REMARK 921   NORMALIZED FREE ENERGY PREDICTED BY IDOCK:   -0.33 KCAL/MOL
REMARK 922        TOTAL FREE ENERGY PREDICTED BY IDOCK:   -0.35 KCAL/MOL
REMARK 923 INTER-LIGAND FREE ENERGY PREDICTED BY IDOCK:   -0.35 KCAL/MOL
REMARK 924 INTRA-LIGAND FREE ENERGY PREDICTED BY IDOCK:    0.00 KCAL/MOL
REMARK 927      BINDING AFFINITY PREDICTED BY RF-SCORE:    0.00 PKD
ROOT
HETATM    1  C   UNL     1      -8.142   4.478  69.835  1.00  0.00    -0.067 C  
HETATM    2  C   UNL     1      -7.904   5.843  70.459  1.00  0.00    -0.101 C  
HETATM    3  O   UNL     1      -7.870   5.702  71.880  1.00  0.00    -0.103 OA 
HETATM    4  H   UNL     1      -7.722   6.555  72.270  1.00  0.00     0.000 HD 
ENDROOT
BRANCH   2   5
HETATM    5  C   UNL     1      -6.606   6.482  69.948  1.00  0.00    -0.048 C  
HETATM    6  O   UNL     1      -6.281   7.656  70.690  1.00  0.00    -0.034 OA 
HETATM    7  H   UNL     1      -5.477   8.052  70.373  1.00  0.00     0.000 HD 
ENDBRANCH   2   5
TORSDOF 1
ENDMDL
MODEL      190
REMARK 921   NORMALIZED FREE ENERGY PREDICTED BY IDOCK:   -0.32 KCAL/MOL
REMARK 922        TOTAL FREE ENERGY PREDICTED BY IDOCK:   -0.34 KCAL/MOL
REMARK 923 INTER-LIGAND FREE ENERGY PREDICTED BY IDOCK:   -0.34 KCAL/MOL
REMARK 924 INTRA-LIGAND FREE ENERGY PREDICTED BY IDOCK:    0.00 KCAL/MOL
REMARK 927      BINDING AFFINITY PREDICTED BY RF-SCORE:    0.00 PKD
ROOT
HETATM    1  C   UNL     1      -7.264   4.617  66.501  1.00  0.00    -0.080 C  
HETATM    2  C   UNL     1      -6.737   4.417  65.090  1.00  0.00    -0.049 C  
HETATM    3  O   UNL     1      -7.624   3.549  64.383  1.00  0.00    -0.074 OA 
HETATM    4  H   UNL     1      -7.295   3.424  63.502  1.00  0.00     0.000 HD 
ENDROOT
BRANCH   2   5
HETATM    5  C   UNL     1      -6.580   5.751  64.348  1.00  0.00    -0.041 C  
HETATM    6  O   UNL     1      -7.760   6.544  64.459  1.00  0.00    -0.095 OA 
HETATM    7  H   UNL     1      -7.663   7.371  63.999  1.00  0.00     0.000 HD 
ENDBRANCH   2   5
TORSDOF 1
ENDMDL
MODEL      191
REMARK 921   NORMALIZED FREE ENERGY PREDICTED BY IDOCK:   -0.31 KCAL/MOL
REMARK 922        TOTAL FREE ENERGY PREDICTED BY IDOCK:   -0.33 KCAL/MOL
REMARK 923 INTER-LIGAND FREE ENERGY PREDICTED BY IDOCK:   -0.33 KCAL/MOL
REMARK 924 INTRA-LIGAND FREE ENERGY PREDICTED BY IDOCK:    0.00 KCAL/MOL
REMARK 927      BINDING AFFINITY PREDICTED BY RF-SCORE:    0.00 PKD
ROOT
HETATM    1  C   UNL     1      -8.006   3.304  73.079  1.00  0.00    -0.069 C  
HETATM    2  C   UNL     1      -7.956   3.051  71.581  1.00  0.00    -0.057 C  
HETATM    3  O   UNL     1      -9.278   2.780  71.113  1.00  0.00    -0.102 OA 
HETATM    4  H   UNL     1      -9.246   2.622  70.178  1.00  0.00     0.000 HD 
ENDROOT
BRANCH   2   5
HETATM    5  C   UNL     1      -7.348   4.241  70.826  1.00  0.00    -0.044 C  
HETATM    6  O   UNL     1      -8.060   4.504  69.619  1.00  0.00    -0.061 OA 
HETATM    7  H   UNL     1      -7.684   5.241  69.151  1.00  0.00     0.000 HD 
ENDBRANCH   2   5
TORSDOF 1
ENDMDL
MODEL      192
REMARK 921   NORMALIZED FREE ENERGY PREDICTED BY IDOCK:   -0.28 KCAL/MOL
REMARK 922        TOTAL FREE ENERGY PREDICTED BY IDOCK:   -0.30 KCAL/MOL
REMARK 923 INTER-LIGAND FREE ENERGY PREDICTED BY IDOCK:   -0.30 KCAL/MOL
REMARK 924 INTRA-LIGAND FREE ENERGY PREDICTED BY IDOCK:    0.00 KCAL/MOL
REMARK 927      BINDING AFFINITY PREDICTED BY RF-SCORE:    0.00 PKD
ROOT
HETATM    1  C   UNL     1      -8.338   4.942  66.778  1.00  0.00    -0.107 C  
HETATM    2  C   UNL     1      -7.340   3.808  66.948  1.00  0.00    -0.071 C  
HETATM    3  O   UNL     1      -6.038   4.281  66.598  1.00  0.00    -0.029 OA 
HETATM    4  H   UNL     1      -5.415   3.573  66.705  1.00  0.00     0.000 HD 
ENDROOT
BRANCH   2   5
HETATM    5  C   UNL     1      -7.349   3.255  68.379  1.00  0.00    -0.050 C  
HETATM    6  O   UNL     1      -7.039   1.863  68.396  1.00  0.00    -0.039 OA 
HETATM    7  H   UNL     1      -7.044   1.520  69.283  1.00  0.00     0.000 HD 
ENDBRANCH   2   5
TORSDOF 1
ENDMDL
