MODEL        1
REMARK 921   NORMALIZED FREE ENERGY PREDICTED BY IDOCK:   -4.99 KCAL/MOL
REMARK 922        TOTAL FREE ENERGY PREDICTED BY IDOCK:   -6.58 KCAL/MOL
REMARK 923 INTER-LIGAND FREE ENERGY PREDICTED BY IDOCK:   -6.15 KCAL/MOL
REMARK 924 INTRA-LIGAND FREE ENERGY PREDICTED BY IDOCK:   -0.43 KCAL/MOL
REMARK 927      BINDING AFFINITY PREDICTED BY RF-SCORE:    0.00 PKD
ROOT
HETATM    1  C   UNL     1     -11.888  15.523  69.611  1.00  0.00    -0.384 C  
HETATM    2  C   UNL     1     -11.947  14.332  70.555  1.00  0.00    -0.402 C  
ENDROOT
BRANCH   2   3
HETATM    3  C   UNL     1     -12.088  13.036  69.767  1.00  0.00    -0.258 C  
BRANCH   3   4
HETATM    4  O   UNL     1     -11.039  12.880  68.802  1.00  0.00    -0.243 OA 
BRANCH   4   5
HETATM    5  C   UNL     1     -11.413  12.393  67.592  1.00  0.00    -0.337 C  
HETATM    6  O   UNL     1     -11.826  11.268  67.363  1.00  0.00    -0.590 OA 
BRANCH   5   7
HETATM    7  C   UNL     1     -11.328  13.465  66.561  1.00  0.00    -0.346 A  
HETATM    8  C   UNL     1     -10.384  14.500  66.648  1.00  0.00    -0.274 A  
HETATM    9  C   UNL     1     -10.398  15.547  65.722  1.00  0.00    -0.384 A  
HETATM   10  C   UNL     1     -11.352  15.553  64.709  1.00  0.00    -0.357 A  
HETATM   11  O   UNL     1     -11.417  16.568  63.801  1.00  0.00    -1.615 OA 
HETATM   12  C   UNL     1     -12.283  14.524  64.599  1.00  0.00    -0.474 A  
HETATM   13  C   UNL     1     -12.279  13.482  65.531  1.00  0.00    -0.490 A  
HETATM   14  H   UNL     1     -12.069  16.572  63.110  1.00  0.00     0.000 HD 
ENDBRANCH   5   7
ENDBRANCH   4   5
ENDBRANCH   3   4
ENDBRANCH   2   3
TORSDOF 4
ENDMDL
MODEL        2
REMARK 921   NORMALIZED FREE ENERGY PREDICTED BY IDOCK:   -4.97 KCAL/MOL
REMARK 922        TOTAL FREE ENERGY PREDICTED BY IDOCK:   -6.56 KCAL/MOL
REMARK 923 INTER-LIGAND FREE ENERGY PREDICTED BY IDOCK:   -6.29 KCAL/MOL
REMARK 924 INTRA-LIGAND FREE ENERGY PREDICTED BY IDOCK:   -0.27 KCAL/MOL
REMARK 927      BINDING AFFINITY PREDICTED BY RF-SCORE:    0.00 PKD
ROOT
HETATM    1  C   UNL     1     -10.056  19.921  67.808  1.00  0.00    -0.565 C  
HETATM    2  C   UNL     1     -10.395  18.475  67.474  1.00  0.00    -0.440 C  
ENDROOT
BRANCH   2   3
HETATM    3  C   UNL     1     -10.519  18.294  65.967  1.00  0.00    -0.361 C  
BRANCH   3   4
HETATM    4  O   UNL     1     -10.144  16.973  65.554  1.00  0.00    -0.577 OA 
BRANCH   4   5
HETATM    5  C   UNL     1     -11.087  16.272  64.876  1.00  0.00    -0.290 C  
HETATM    6  O   UNL     1     -11.644  16.618  63.848  1.00  0.00    -1.204 OA 
BRANCH   5   7
HETATM    7  C   UNL     1     -11.303  14.947  65.524  1.00  0.00    -0.339 A  
HETATM    8  C   UNL     1     -11.852  13.863  64.822  1.00  0.00    -0.414 A  
HETATM    9  C   UNL     1     -12.139  12.666  65.484  1.00  0.00    -0.515 A  
HETATM   10  C   UNL     1     -11.870  12.555  66.844  1.00  0.00    -0.334 A  
HETATM   11  O   UNL     1     -12.158  11.415  67.534  1.00  0.00    -0.592 OA 
HETATM   12  C   UNL     1     -11.308  13.615  67.550  1.00  0.00    -0.335 A  
HETATM   13  C   UNL     1     -11.032  14.817  66.892  1.00  0.00    -0.328 A  
HETATM   14  H   UNL     1     -11.975  11.339  68.463  1.00  0.00     0.000 HD 
ENDBRANCH   5   7
ENDBRANCH   4   5
ENDBRANCH   3   4
ENDBRANCH   2   3
TORSDOF 4
ENDMDL
MODEL        3
REMARK 921   NORMALIZED FREE ENERGY PREDICTED BY IDOCK:   -4.88 KCAL/MOL
REMARK 922        TOTAL FREE ENERGY PREDICTED BY IDOCK:   -6.45 KCAL/MOL
REMARK 923 INTER-LIGAND FREE ENERGY PREDICTED BY IDOCK:   -6.28 KCAL/MOL
REMARK 924 INTRA-LIGAND FREE ENERGY PREDICTED BY IDOCK:   -0.17 KCAL/MOL
REMARK 927      BINDING AFFINITY PREDICTED BY RF-SCORE:    0.00 PKD
ROOT
HETATM    1  C   UNL     1     -12.856  10.650  71.448  1.00  0.00    -0.556 C  
HETATM    2  C   UNL     1     -12.123  11.600  70.512  1.00  0.00    -0.458 C  
ENDROOT
BRANCH   2   3
HETATM    3  C   UNL     1     -11.825  10.914  69.185  1.00  0.00    -0.317 C  
BRANCH   3   4
HETATM    4  O   UNL     1     -12.164  11.743  68.066  1.00  0.00    -0.518 OA 
BRANCH   4   5
HETATM    5  C   UNL     1     -11.288  11.730  67.029  1.00  0.00    -0.321 C  
HETATM    6  O   UNL     1     -10.544  10.814  66.724  1.00  0.00    -0.246 OA 
BRANCH   5   7
HETATM    7  C   UNL     1     -11.414  12.987  66.239  1.00  0.00    -0.379 A  
HETATM    8  C   UNL     1     -12.271  13.080  65.131  1.00  0.00    -0.507 A  
HETATM    9  C   UNL     1     -12.289  14.237  64.348  1.00  0.00    -0.417 A  
HETATM   10  C   UNL     1     -11.454  15.300  64.678  1.00  0.00    -0.354 A  
HETATM   11  O   UNL     1     -11.422  16.437  63.926  1.00  0.00    -1.569 OA 
HETATM   12  C   UNL     1     -10.612  15.230  65.783  1.00  0.00    -0.359 A  
HETATM   13  C   UNL     1     -10.583  14.069  66.561  1.00  0.00    -0.279 A  
HETATM   14  H   UNL     1     -10.851  17.162  64.151  1.00  0.00     0.000 HD 
ENDBRANCH   5   7
ENDBRANCH   4   5
ENDBRANCH   3   4
ENDBRANCH   2   3
TORSDOF 4
ENDMDL
MODEL        4
REMARK 921   NORMALIZED FREE ENERGY PREDICTED BY IDOCK:   -4.83 KCAL/MOL
REMARK 922        TOTAL FREE ENERGY PREDICTED BY IDOCK:   -6.38 KCAL/MOL
REMARK 923 INTER-LIGAND FREE ENERGY PREDICTED BY IDOCK:   -6.23 KCAL/MOL
REMARK 924 INTRA-LIGAND FREE ENERGY PREDICTED BY IDOCK:   -0.15 KCAL/MOL
REMARK 927      BINDING AFFINITY PREDICTED BY RF-SCORE:    0.00 PKD
ROOT
HETATM    1  C   UNL     1     -12.299  12.773  64.955  1.00  0.00    -0.559 C  
HETATM    2  C   UNL     1     -12.334  13.741  66.129  1.00  0.00    -0.496 C  
ENDROOT
BRANCH   2   3
HETATM    3  C   UNL     1     -11.771  13.080  67.380  1.00  0.00    -0.374 C  
BRANCH   3   4
HETATM    4  O   UNL     1     -12.111  13.807  68.568  1.00  0.00    -0.363 OA 
BRANCH   4   5
HETATM    5  C   UNL     1     -11.980  13.131  69.737  1.00  0.00    -0.314 C  
HETATM    6  O   UNL     1     -11.619  11.973  69.865  1.00  0.00    -0.291 OA 
BRANCH   5   7
HETATM    7  C   UNL     1     -12.265  14.036  70.886  1.00  0.00    -0.436 A  
HETATM    8  C   UNL     1     -11.590  15.256  71.050  1.00  0.00    -0.399 A  
HETATM    9  C   UNL     1     -11.804  16.033  72.191  1.00  0.00    -0.623 A  
HETATM   10  C   UNL     1     -12.697  15.591  73.163  1.00  0.00    -0.478 A  
HETATM   11  O   UNL     1     -12.915  16.305  74.303  1.00  0.00    -0.919 OA 
HETATM   12  C   UNL     1     -13.387  14.393  73.006  1.00  0.00    -0.484 A  
HETATM   13  C   UNL     1     -13.165  13.608  71.871  1.00  0.00    -0.497 A  
HETATM   14  H   UNL     1     -13.525  16.003  74.966  1.00  0.00     0.000 HD 
ENDBRANCH   5   7
ENDBRANCH   4   5
ENDBRANCH   3   4
ENDBRANCH   2   3
TORSDOF 4
ENDMDL
MODEL        5
REMARK 921   NORMALIZED FREE ENERGY PREDICTED BY IDOCK:   -4.80 KCAL/MOL
REMARK 922        TOTAL FREE ENERGY PREDICTED BY IDOCK:   -6.35 KCAL/MOL
REMARK 923 INTER-LIGAND FREE ENERGY PREDICTED BY IDOCK:   -6.12 KCAL/MOL
REMARK 924 INTRA-LIGAND FREE ENERGY PREDICTED BY IDOCK:   -0.23 KCAL/MOL
REMARK 927      BINDING AFFINITY PREDICTED BY RF-SCORE:    0.00 PKD
ROOT
HETATM    1  C   UNL     1     -11.791  12.403  65.521  1.00  0.00    -0.469 C  
HETATM    2  C   UNL     1     -12.288  13.654  66.232  1.00  0.00    -0.464 C  
ENDROOT
BRANCH   2   3
HETATM    3  C   UNL     1     -11.263  14.128  67.253  1.00  0.00    -0.316 C  
BRANCH   3   4
HETATM    4  O   UNL     1     -11.876  14.503  68.494  1.00  0.00    -0.323 OA 
BRANCH   4   5
HETATM    5  C   UNL     1     -11.804  13.588  69.493  1.00  0.00    -0.334 C  
HETATM    6  O   UNL     1     -11.446  12.427  69.385  1.00  0.00    -0.272 OA 
BRANCH   5   7
HETATM    7  C   UNL     1     -12.150  14.225  70.795  1.00  0.00    -0.418 A  
HETATM    8  C   UNL     1     -13.137  13.692  71.639  1.00  0.00    -0.455 A  
HETATM    9  C   UNL     1     -13.512  14.369  72.803  1.00  0.00    -0.582 A  
HETATM   10  C   UNL     1     -12.894  15.574  73.122  1.00  0.00    -0.497 A  
HETATM   11  O   UNL     1     -13.247  16.280  74.234  1.00  0.00    -0.934 OA 
HETATM   12  C   UNL     1     -11.901  16.107  72.305  1.00  0.00    -0.631 A  
HETATM   13  C   UNL     1     -11.533  15.437  71.135  1.00  0.00    -0.425 A  
HETATM   14  H   UNL     1     -12.826  17.103  74.452  1.00  0.00     0.000 HD 
ENDBRANCH   5   7
ENDBRANCH   4   5
ENDBRANCH   3   4
ENDBRANCH   2   3
TORSDOF 4
ENDMDL
MODEL        6
REMARK 921   NORMALIZED FREE ENERGY PREDICTED BY IDOCK:   -4.79 KCAL/MOL
REMARK 922        TOTAL FREE ENERGY PREDICTED BY IDOCK:   -6.33 KCAL/MOL
REMARK 923 INTER-LIGAND FREE ENERGY PREDICTED BY IDOCK:   -6.06 KCAL/MOL
REMARK 924 INTRA-LIGAND FREE ENERGY PREDICTED BY IDOCK:   -0.28 KCAL/MOL
REMARK 927      BINDING AFFINITY PREDICTED BY RF-SCORE:    0.00 PKD
ROOT
HETATM    1  C   UNL     1     -14.220  15.092  71.617  1.00  0.00    -0.664 C  
HETATM    2  C   UNL     1     -13.031  14.520  70.859  1.00  0.00    -0.424 C  
ENDROOT
BRANCH   2   3
HETATM    3  C   UNL     1     -12.035  15.621  70.523  1.00  0.00    -0.385 C  
BRANCH   3   4
HETATM    4  O   UNL     1     -11.923  15.828  69.109  1.00  0.00    -0.387 OA 
BRANCH   4   5
HETATM    5  C   UNL     1     -10.863  15.237  68.503  1.00  0.00    -0.253 C  
HETATM    6  O   UNL     1      -9.804  14.940  69.029  1.00  0.00    -0.219 OA 
BRANCH   5   7
HETATM    7  C   UNL     1     -11.199  14.912  67.088  1.00  0.00    -0.345 A  
HETATM    8  C   UNL     1     -10.650  15.632  66.015  1.00  0.00    -0.336 A  
HETATM    9  C   UNL     1     -11.064  15.373  64.705  1.00  0.00    -0.416 A  
HETATM   10  C   UNL     1     -12.020  14.390  64.472  1.00  0.00    -0.472 A  
HETATM   11  O   UNL     1     -12.470  14.122  63.213  1.00  0.00    -1.146 OA 
HETATM   12  C   UNL     1     -12.560  13.655  65.523  1.00  0.00    -0.541 A  
HETATM   13  C   UNL     1     -12.157  13.921  66.835  1.00  0.00    -0.467 A  
HETATM   14  H   UNL     1     -13.124  13.451  63.055  1.00  0.00     0.000 HD 
ENDBRANCH   5   7
ENDBRANCH   4   5
ENDBRANCH   3   4
ENDBRANCH   2   3
TORSDOF 4
ENDMDL
MODEL        7
REMARK 921   NORMALIZED FREE ENERGY PREDICTED BY IDOCK:   -4.71 KCAL/MOL
REMARK 922        TOTAL FREE ENERGY PREDICTED BY IDOCK:   -6.24 KCAL/MOL
REMARK 923 INTER-LIGAND FREE ENERGY PREDICTED BY IDOCK:   -5.90 KCAL/MOL
REMARK 924 INTRA-LIGAND FREE ENERGY PREDICTED BY IDOCK:   -0.34 KCAL/MOL
REMARK 927      BINDING AFFINITY PREDICTED BY RF-SCORE:    0.00 PKD
ROOT
HETATM    1  C   UNL     1     -12.952  10.599  71.301  1.00  0.00    -0.513 C  
HETATM    2  C   UNL     1     -11.726  10.750  70.413  1.00  0.00    -0.445 C  
ENDROOT
BRANCH   2   3
HETATM    3  C   UNL     1     -12.018  11.706  69.263  1.00  0.00    -0.317 C  
BRANCH   3   4
HETATM    4  O   UNL     1     -11.189  12.875  69.315  1.00  0.00    -0.243 OA 
BRANCH   4   5
HETATM    5  C   UNL     1     -11.830  14.064  69.188  1.00  0.00    -0.350 C  
HETATM    6  O   UNL     1     -12.096  14.632  68.142  1.00  0.00    -0.273 OA 
BRANCH   5   7
HETATM    7  C   UNL     1     -12.251  14.564  70.526  1.00  0.00    -0.399 A  
HETATM    8  C   UNL     1     -13.478  14.194  71.100  1.00  0.00    -0.293 A  
HETATM    9  C   UNL     1     -13.891  14.761  72.309  1.00  0.00    -0.590 A  
HETATM   10  C   UNL     1     -13.073  15.692  72.943  1.00  0.00    -0.520 A  
HETATM   11  O   UNL     1     -13.450  16.288  74.110  1.00  0.00    -0.871 OA 
HETATM   12  C   UNL     1     -11.846  16.055  72.396  1.00  0.00    -0.639 A  
HETATM   13  C   UNL     1     -11.437  15.498  71.181  1.00  0.00    -0.442 A  
HETATM   14  H   UNL     1     -12.892  16.923  74.543  1.00  0.00     0.000 HD 
ENDBRANCH   5   7
ENDBRANCH   4   5
ENDBRANCH   3   4
ENDBRANCH   2   3
TORSDOF 4
ENDMDL
MODEL        8
REMARK 921   NORMALIZED FREE ENERGY PREDICTED BY IDOCK:   -4.70 KCAL/MOL
REMARK 922        TOTAL FREE ENERGY PREDICTED BY IDOCK:   -6.23 KCAL/MOL
REMARK 923 INTER-LIGAND FREE ENERGY PREDICTED BY IDOCK:   -6.02 KCAL/MOL
REMARK 924 INTRA-LIGAND FREE ENERGY PREDICTED BY IDOCK:   -0.21 KCAL/MOL
REMARK 927      BINDING AFFINITY PREDICTED BY RF-SCORE:    0.00 PKD
ROOT
HETATM    1  C   UNL     1     -10.573   7.830  67.193  1.00  0.00    -0.401 C  
HETATM    2  C   UNL     1     -10.283   9.300  66.929  1.00  0.00    -0.327 C  
ENDROOT
BRANCH   2   3
HETATM    3  C   UNL     1     -11.074  10.178  67.890  1.00  0.00    -0.238 C  
BRANCH   3   4
HETATM    4  O   UNL     1     -11.745  11.247  67.209  1.00  0.00    -0.566 OA 
BRANCH   4   5
HETATM    5  C   UNL     1     -11.663  12.469  67.792  1.00  0.00    -0.359 C  
HETATM    6  O   UNL     1     -11.636  12.697  68.990  1.00  0.00    -0.276 OA 
BRANCH   5   7
HETATM    7  C   UNL     1     -11.522  13.524  66.750  1.00  0.00    -0.374 A  
HETATM    8  C   UNL     1     -10.815  14.713  66.993  1.00  0.00    -0.304 A  
HETATM    9  C   UNL     1     -10.789  15.728  66.033  1.00  0.00    -0.256 A  
HETATM   10  C   UNL     1     -11.465  15.549  64.830  1.00  0.00    -0.313 A  
HETATM   11  O   UNL     1     -11.486  16.523  63.877  1.00  0.00    -1.608 OA 
HETATM   12  C   UNL     1     -12.155  14.369  64.567  1.00  0.00    -0.498 A  
HETATM   13  C   UNL     1     -12.192  13.358  65.531  1.00  0.00    -0.499 A  
HETATM   14  H   UNL     1     -11.948  16.401  63.056  1.00  0.00     0.000 HD 
ENDBRANCH   5   7
ENDBRANCH   4   5
ENDBRANCH   3   4
ENDBRANCH   2   3
TORSDOF 4
ENDMDL
MODEL        9
REMARK 921   NORMALIZED FREE ENERGY PREDICTED BY IDOCK:   -4.70 KCAL/MOL
REMARK 922        TOTAL FREE ENERGY PREDICTED BY IDOCK:   -6.23 KCAL/MOL
REMARK 923 INTER-LIGAND FREE ENERGY PREDICTED BY IDOCK:   -6.07 KCAL/MOL
REMARK 924 INTRA-LIGAND FREE ENERGY PREDICTED BY IDOCK:   -0.15 KCAL/MOL
REMARK 927      BINDING AFFINITY PREDICTED BY RF-SCORE:    0.00 PKD
ROOT
HETATM    1  C   UNL     1      -9.534  20.260  67.210  1.00  0.00    -0.557 C  
HETATM    2  C   UNL     1      -9.436  18.742  67.159  1.00  0.00    -0.328 C  
ENDROOT
BRANCH   2   3
HETATM    3  C   UNL     1     -10.448  18.177  66.172  1.00  0.00    -0.364 C  
BRANCH   3   4
HETATM    4  O   UNL     1     -10.033  16.909  65.647  1.00  0.00    -0.552 OA 
BRANCH   4   5
HETATM    5  C   UNL     1     -10.978  16.207  64.972  1.00  0.00    -0.344 C  
HETATM    6  O   UNL     1     -11.436  16.481  63.875  1.00  0.00    -1.145 OA 
BRANCH   5   7
HETATM    7  C   UNL     1     -11.338  14.976  65.730  1.00  0.00    -0.279 A  
HETATM    8  C   UNL     1     -11.104  14.862  67.109  1.00  0.00    -0.332 A  
HETATM    9  C   UNL     1     -11.356  13.657  67.771  1.00  0.00    -0.336 A  
HETATM   10  C   UNL     1     -11.847  12.572  67.053  1.00  0.00    -0.323 A  
HETATM   11  O   UNL     1     -12.082  11.371  67.655  1.00  0.00    -0.630 OA 
HETATM   12  C   UNL     1     -12.101  12.674  65.689  1.00  0.00    -0.502 A  
HETATM   13  C   UNL     1     -11.838  13.874  65.022  1.00  0.00    -0.383 A  
HETATM   14  H   UNL     1     -12.417  10.630  67.164  1.00  0.00     0.000 HD 
ENDBRANCH   5   7
ENDBRANCH   4   5
ENDBRANCH   3   4
ENDBRANCH   2   3
TORSDOF 4
ENDMDL
MODEL       10
REMARK 921   NORMALIZED FREE ENERGY PREDICTED BY IDOCK:   -4.69 KCAL/MOL
REMARK 922        TOTAL FREE ENERGY PREDICTED BY IDOCK:   -6.21 KCAL/MOL
REMARK 923 INTER-LIGAND FREE ENERGY PREDICTED BY IDOCK:   -5.71 KCAL/MOL
REMARK 924 INTRA-LIGAND FREE ENERGY PREDICTED BY IDOCK:   -0.50 KCAL/MOL
REMARK 927      BINDING AFFINITY PREDICTED BY RF-SCORE:    0.00 PKD
ROOT
HETATM    1  C   UNL     1     -10.576  10.908  64.610  1.00  0.00    -0.332 C  
HETATM    2  C   UNL     1     -10.985  11.869  63.503  1.00  0.00    -0.505 C  
ENDROOT
BRANCH   2   3
HETATM    3  C   UNL     1     -12.488  12.111  63.537  1.00  0.00    -0.555 C  
BRANCH   3   4
HETATM    4  O   UNL     1     -12.900  12.748  64.754  1.00  0.00    -0.707 OA 
BRANCH   4   5
HETATM    5  C   UNL     1     -12.452  14.015  64.942  1.00  0.00    -0.396 C  
HETATM    6  O   UNL     1     -12.605  14.956  64.182  1.00  0.00    -0.785 OA 
BRANCH   5   7
HETATM    7  C   UNL     1     -11.799  14.133  66.276  1.00  0.00    -0.427 A  
HETATM    8  C   UNL     1     -12.032  13.199  67.298  1.00  0.00    -0.389 A  
HETATM    9  C   UNL     1     -11.487  13.394  68.570  1.00  0.00    -0.345 A  
HETATM   10  C   UNL     1     -10.706  14.519  68.815  1.00  0.00    -0.253 A  
HETATM   11  O   UNL     1     -10.177  14.760  70.048  1.00  0.00    -0.452 OA 
HETATM   12  C   UNL     1     -10.450  15.444  67.808  1.00  0.00    -0.266 A  
HETATM   13  C   UNL     1     -11.004  15.258  66.538  1.00  0.00    -0.295 A  
HETATM   14  H   UNL     1      -9.644  15.528  70.215  1.00  0.00     0.000 HD 
ENDBRANCH   5   7
ENDBRANCH   4   5
ENDBRANCH   3   4
ENDBRANCH   2   3
TORSDOF 4
ENDMDL
MODEL       11
REMARK 921   NORMALIZED FREE ENERGY PREDICTED BY IDOCK:   -4.67 KCAL/MOL
REMARK 922        TOTAL FREE ENERGY PREDICTED BY IDOCK:   -6.19 KCAL/MOL
REMARK 923 INTER-LIGAND FREE ENERGY PREDICTED BY IDOCK:   -5.99 KCAL/MOL
REMARK 924 INTRA-LIGAND FREE ENERGY PREDICTED BY IDOCK:   -0.21 KCAL/MOL
REMARK 927      BINDING AFFINITY PREDICTED BY RF-SCORE:    0.00 PKD
ROOT
HETATM    1  C   UNL     1     -12.255  13.141  65.582  1.00  0.00    -0.521 C  
HETATM    2  C   UNL     1     -11.779  12.395  66.820  1.00  0.00    -0.430 C  
ENDROOT
BRANCH   2   3
HETATM    3  C   UNL     1     -11.223  13.372  67.848  1.00  0.00    -0.275 C  
BRANCH   3   4
HETATM    4  O   UNL     1     -12.263  13.987  68.620  1.00  0.00    -0.332 OA 
BRANCH   4   5
HETATM    5  C   UNL     1     -11.999  15.233  69.088  1.00  0.00    -0.280 C  
HETATM    6  O   UNL     1     -11.630  16.189  68.427  1.00  0.00    -0.355 OA 
BRANCH   5   7
HETATM    7  C   UNL     1     -12.304  15.307  70.544  1.00  0.00    -0.434 A  
HETATM    8  C   UNL     1     -13.376  14.600  71.111  1.00  0.00    -0.433 A  
HETATM    9  C   UNL     1     -13.701  14.771  72.459  1.00  0.00    -0.572 A  
HETATM   10  C   UNL     1     -12.949  15.646  73.238  1.00  0.00    -0.550 A  
HETATM   11  O   UNL     1     -13.248  15.862  74.551  1.00  0.00    -0.712 OA 
HETATM   12  C   UNL     1     -11.873  16.340  72.696  1.00  0.00    -0.596 A  
HETATM   13  C   UNL     1     -11.554  16.179  71.344  1.00  0.00    -0.495 A  
HETATM   14  H   UNL     1     -12.735  16.459  75.082  1.00  0.00     0.000 HD 
ENDBRANCH   5   7
ENDBRANCH   4   5
ENDBRANCH   3   4
ENDBRANCH   2   3
TORSDOF 4
ENDMDL
MODEL       12
REMARK 921   NORMALIZED FREE ENERGY PREDICTED BY IDOCK:   -4.65 KCAL/MOL
REMARK 922        TOTAL FREE ENERGY PREDICTED BY IDOCK:   -6.16 KCAL/MOL
REMARK 923 INTER-LIGAND FREE ENERGY PREDICTED BY IDOCK:   -5.62 KCAL/MOL
REMARK 924 INTRA-LIGAND FREE ENERGY PREDICTED BY IDOCK:   -0.54 KCAL/MOL
REMARK 927      BINDING AFFINITY PREDICTED BY RF-SCORE:    0.00 PKD
ROOT
HETATM    1  C   UNL     1     -10.421  11.187  64.949  1.00  0.00    -0.372 C  
HETATM    2  C   UNL     1     -10.773  12.072  63.761  1.00  0.00    -0.478 C  
ENDROOT
BRANCH   2   3
HETATM    3  C   UNL     1     -12.282  12.246  63.656  1.00  0.00    -0.567 C  
BRANCH   3   4
HETATM    4  O   UNL     1     -12.810  13.006  64.752  1.00  0.00    -0.708 OA 
BRANCH   4   5
HETATM    5  C   UNL     1     -12.398  14.296  64.834  1.00  0.00    -0.425 C  
HETATM    6  O   UNL     1     -12.574  15.165  63.997  1.00  0.00    -0.791 OA 
BRANCH   5   7
HETATM    7  C   UNL     1     -11.755  14.543  66.155  1.00  0.00    -0.355 A  
HETATM    8  C   UNL     1     -10.631  15.375  66.285  1.00  0.00    -0.311 A  
HETATM    9  C   UNL     1      -9.988  15.505  67.519  1.00  0.00    -0.230 A  
HETATM   10  C   UNL     1     -10.473  14.806  68.620  1.00  0.00    -0.250 A  
HETATM   11  O   UNL     1      -9.860  14.884  69.835  1.00  0.00    -0.451 OA 
HETATM   12  C   UNL     1     -11.596  13.992  68.512  1.00  0.00    -0.357 A  
HETATM   13  C   UNL     1     -12.234  13.852  67.276  1.00  0.00    -0.324 A  
HETATM   14  H   UNL     1     -10.191  14.407  70.587  1.00  0.00     0.000 HD 
ENDBRANCH   5   7
ENDBRANCH   4   5
ENDBRANCH   3   4
ENDBRANCH   2   3
TORSDOF 4
ENDMDL
MODEL       13
REMARK 921   NORMALIZED FREE ENERGY PREDICTED BY IDOCK:   -4.62 KCAL/MOL
REMARK 922        TOTAL FREE ENERGY PREDICTED BY IDOCK:   -6.13 KCAL/MOL
REMARK 923 INTER-LIGAND FREE ENERGY PREDICTED BY IDOCK:   -5.91 KCAL/MOL
REMARK 924 INTRA-LIGAND FREE ENERGY PREDICTED BY IDOCK:   -0.22 KCAL/MOL
REMARK 927      BINDING AFFINITY PREDICTED BY RF-SCORE:    0.00 PKD
ROOT
HETATM    1  C   UNL     1     -12.496  13.896  65.532  1.00  0.00    -0.541 C  
HETATM    2  C   UNL     1     -11.791  13.432  66.798  1.00  0.00    -0.452 C  
ENDROOT
BRANCH   2   3
HETATM    3  C   UNL     1     -11.444  11.953  66.702  1.00  0.00    -0.314 C  
BRANCH   3   4
HETATM    4  O   UNL     1     -11.926  11.215  67.833  1.00  0.00    -0.624 OA 
BRANCH   4   5
HETATM    5  C   UNL     1     -11.015  10.953  68.804  1.00  0.00    -0.237 C  
HETATM    6  O   UNL     1      -9.816  11.167  68.746  1.00  0.00    -0.197 OA 
BRANCH   5   7
HETATM    7  C   UNL     1     -11.700  10.428  70.018  1.00  0.00    -0.366 A  
HETATM    8  C   UNL     1     -11.602   9.080  70.397  1.00  0.00    -0.145 A  
HETATM    9  C   UNL     1     -12.339   8.596  71.482  1.00  0.00    -0.370 A  
HETATM   10  C   UNL     1     -13.168   9.463  72.187  1.00  0.00    -0.460 A  
HETATM   11  O   UNL     1     -13.923   9.027  73.235  1.00  0.00    -1.205 OA 
HETATM   12  C   UNL     1     -13.262  10.806  71.835  1.00  0.00    -0.524 A  
HETATM   13  C   UNL     1     -12.535  11.289  70.743  1.00  0.00    -0.471 A  
HETATM   14  H   UNL     1     -14.489   9.618  73.716  1.00  0.00     0.000 HD 
ENDBRANCH   5   7
ENDBRANCH   4   5
ENDBRANCH   3   4
ENDBRANCH   2   3
TORSDOF 4
ENDMDL
MODEL       14
REMARK 921   NORMALIZED FREE ENERGY PREDICTED BY IDOCK:   -4.56 KCAL/MOL
REMARK 922        TOTAL FREE ENERGY PREDICTED BY IDOCK:   -6.05 KCAL/MOL
REMARK 923 INTER-LIGAND FREE ENERGY PREDICTED BY IDOCK:   -5.79 KCAL/MOL
REMARK 924 INTRA-LIGAND FREE ENERGY PREDICTED BY IDOCK:   -0.26 KCAL/MOL
REMARK 927      BINDING AFFINITY PREDICTED BY RF-SCORE:    0.00 PKD
ROOT
HETATM    1  C   UNL     1     -10.785  11.956  63.514  1.00  0.00    -0.504 C  
HETATM    2  C   UNL     1     -12.023  12.840  63.571  1.00  0.00    -0.633 C  
ENDROOT
BRANCH   2   3
HETATM    3  C   UNL     1     -12.646  12.792  64.959  1.00  0.00    -0.468 C  
BRANCH   3   4
HETATM    4  O   UNL     1     -11.719  13.196  65.976  1.00  0.00    -0.343 OA 
BRANCH   4   5
HETATM    5  C   UNL     1     -11.841  12.570  67.174  1.00  0.00    -0.316 C  
HETATM    6  O   UNL     1     -11.926  11.367  67.355  1.00  0.00    -0.606 OA 
BRANCH   5   7
HETATM    7  C   UNL     1     -11.775  13.566  68.280  1.00  0.00    -0.394 A  
HETATM    8  C   UNL     1     -12.022  13.206  69.614  1.00  0.00    -0.370 A  
HETATM    9  C   UNL     1     -12.055  14.182  70.614  1.00  0.00    -0.421 A  
HETATM   10  C   UNL     1     -11.835  15.514  70.278  1.00  0.00    -0.357 A  
HETATM   11  O   UNL     1     -11.884  16.501  71.218  1.00  0.00    -0.626 OA 
HETATM   12  C   UNL     1     -11.571  15.885  68.963  1.00  0.00    -0.392 A  
HETATM   13  C   UNL     1     -11.550  14.912  67.959  1.00  0.00    -0.363 A  
HETATM   14  H   UNL     1     -11.734  17.410  70.988  1.00  0.00     0.000 HD 
ENDBRANCH   5   7
ENDBRANCH   4   5
ENDBRANCH   3   4
ENDBRANCH   2   3
TORSDOF 4
ENDMDL
MODEL       15
REMARK 921   NORMALIZED FREE ENERGY PREDICTED BY IDOCK:   -4.54 KCAL/MOL
REMARK 922        TOTAL FREE ENERGY PREDICTED BY IDOCK:   -6.03 KCAL/MOL
REMARK 923 INTER-LIGAND FREE ENERGY PREDICTED BY IDOCK:   -5.86 KCAL/MOL
REMARK 924 INTRA-LIGAND FREE ENERGY PREDICTED BY IDOCK:   -0.17 KCAL/MOL
REMARK 927      BINDING AFFINITY PREDICTED BY RF-SCORE:    0.00 PKD
ROOT
HETATM    1  C   UNL     1     -13.200   9.843  71.658  1.00  0.00    -0.519 C  
HETATM    2  C   UNL     1     -12.690  11.074  70.924  1.00  0.00    -0.452 C  
ENDROOT
BRANCH   2   3
HETATM    3  C   UNL     1     -11.626  10.682  69.907  1.00  0.00    -0.316 C  
BRANCH   3   4
HETATM    4  O   UNL     1     -11.982  11.087  68.578  1.00  0.00    -0.535 OA 
BRANCH   4   5
HETATM    5  C   UNL     1     -10.954  11.230  67.704  1.00  0.00    -0.259 C  
HETATM    6  O   UNL     1      -9.829  10.778  67.833  1.00  0.00    -0.163 OA 
BRANCH   5   7
HETATM    7  C   UNL     1     -11.413  11.963  66.491  1.00  0.00    -0.381 A  
HETATM    8  C   UNL     1     -11.158  11.483  65.197  1.00  0.00    -0.260 A  
HETATM    9  C   UNL     1     -11.509  12.245  64.079  1.00  0.00    -0.483 A  
HETATM   10  C   UNL     1     -12.119  13.482  64.259  1.00  0.00    -0.431 A  
HETATM   11  O   UNL     1     -12.454  14.268  63.196  1.00  0.00    -1.102 OA 
HETATM   12  C   UNL     1     -12.394  13.964  65.535  1.00  0.00    -0.506 A  
HETATM   13  C   UNL     1     -12.033  13.209  66.654  1.00  0.00    -0.451 A  
HETATM   14  H   UNL     1     -12.870  15.114  63.319  1.00  0.00     0.000 HD 
ENDBRANCH   5   7
ENDBRANCH   4   5
ENDBRANCH   3   4
ENDBRANCH   2   3
TORSDOF 4
ENDMDL
MODEL       16
REMARK 921   NORMALIZED FREE ENERGY PREDICTED BY IDOCK:   -4.54 KCAL/MOL
REMARK 922        TOTAL FREE ENERGY PREDICTED BY IDOCK:   -6.03 KCAL/MOL
REMARK 923 INTER-LIGAND FREE ENERGY PREDICTED BY IDOCK:   -5.58 KCAL/MOL
REMARK 924 INTRA-LIGAND FREE ENERGY PREDICTED BY IDOCK:   -0.45 KCAL/MOL
REMARK 927      BINDING AFFINITY PREDICTED BY RF-SCORE:    0.00 PKD
ROOT
HETATM    1  C   UNL     1      -8.867  10.673  64.463  1.00  0.00    -0.189 C  
HETATM    2  C   UNL     1      -9.735   9.562  65.033  1.00  0.00    -0.138 C  
ENDROOT
BRANCH   2   3
HETATM    3  C   UNL     1      -9.957   9.774  66.525  1.00  0.00    -0.239 C  
BRANCH   3   4
HETATM    4  O   UNL     1      -9.947  11.165  66.875  1.00  0.00    -0.190 OA 
BRANCH   4   5
HETATM    5  C   UNL     1     -11.162  11.764  66.963  1.00  0.00    -0.322 C  
HETATM    6  O   UNL     1     -12.068  11.452  67.716  1.00  0.00    -0.637 OA 
BRANCH   5   7
HETATM    7  C   UNL     1     -11.218  12.940  66.050  1.00  0.00    -0.325 A  
HETATM    8  C   UNL     1     -10.154  13.850  65.952  1.00  0.00    -0.331 A  
HETATM    9  C   UNL     1     -10.278  15.000  65.166  1.00  0.00    -0.399 A  
HETATM   10  C   UNL     1     -11.464  15.232  64.476  1.00  0.00    -0.315 A  
HETATM   11  O   UNL     1     -11.637  16.353  63.719  1.00  0.00    -1.605 OA 
HETATM   12  C   UNL     1     -12.521  14.330  64.549  1.00  0.00    -0.357 A  
HETATM   13  C   UNL     1     -12.403  13.186  65.344  1.00  0.00    -0.532 A  
HETATM   14  H   UNL     1     -12.446  16.511  63.249  1.00  0.00     0.000 HD 
ENDBRANCH   5   7
ENDBRANCH   4   5
ENDBRANCH   3   4
ENDBRANCH   2   3
TORSDOF 4
ENDMDL
MODEL       17
REMARK 921   NORMALIZED FREE ENERGY PREDICTED BY IDOCK:   -4.54 KCAL/MOL
REMARK 922        TOTAL FREE ENERGY PREDICTED BY IDOCK:   -6.02 KCAL/MOL
REMARK 923 INTER-LIGAND FREE ENERGY PREDICTED BY IDOCK:   -5.67 KCAL/MOL
REMARK 924 INTRA-LIGAND FREE ENERGY PREDICTED BY IDOCK:   -0.36 KCAL/MOL
REMARK 927      BINDING AFFINITY PREDICTED BY RF-SCORE:    0.00 PKD
ROOT
HETATM    1  C   UNL     1     -12.573  15.159  74.058  1.00  0.00    -0.652 C  
HETATM    2  C   UNL     1     -12.285  16.445  73.298  1.00  0.00    -0.558 C  
ENDROOT
BRANCH   2   3
HETATM    3  C   UNL     1     -11.790  16.132  71.892  1.00  0.00    -0.525 C  
BRANCH   3   4
HETATM    4  O   UNL     1     -12.736  15.346  71.154  1.00  0.00    -0.370 OA 
BRANCH   4   5
HETATM    5  C   UNL     1     -12.259  14.729  70.044  1.00  0.00    -0.333 C  
HETATM    6  O   UNL     1     -11.855  15.275  69.032  1.00  0.00    -0.325 OA 
BRANCH   5   7
HETATM    7  C   UNL     1     -12.214  13.255  70.258  1.00  0.00    -0.391 A  
HETATM    8  C   UNL     1     -11.633  12.390  69.318  1.00  0.00    -0.379 A  
HETATM    9  C   UNL     1     -11.700  11.005  69.498  1.00  0.00    -0.400 A  
HETATM   10  C   UNL     1     -12.341  10.491  70.621  1.00  0.00    -0.356 A  
HETATM   11  O   UNL     1     -12.451   9.147  70.821  1.00  0.00    -0.490 OA 
HETATM   12  C   UNL     1     -12.906  11.336  71.571  1.00  0.00    -0.519 A  
HETATM   13  C   UNL     1     -12.852  12.721  71.386  1.00  0.00    -0.371 A  
HETATM   14  H   UNL     1     -12.889   8.796  71.588  1.00  0.00     0.000 HD 
ENDBRANCH   5   7
ENDBRANCH   4   5
ENDBRANCH   3   4
ENDBRANCH   2   3
TORSDOF 4
ENDMDL
MODEL       18
REMARK 921   NORMALIZED FREE ENERGY PREDICTED BY IDOCK:   -4.54 KCAL/MOL
REMARK 922        TOTAL FREE ENERGY PREDICTED BY IDOCK:   -6.02 KCAL/MOL
REMARK 923 INTER-LIGAND FREE ENERGY PREDICTED BY IDOCK:   -5.69 KCAL/MOL
REMARK 924 INTRA-LIGAND FREE ENERGY PREDICTED BY IDOCK:   -0.33 KCAL/MOL
REMARK 927      BINDING AFFINITY PREDICTED BY RF-SCORE:    0.00 PKD
ROOT
HETATM    1  C   UNL     1     -12.661  15.318  73.550  1.00  0.00    -0.690 C  
HETATM    2  C   UNL     1     -13.705  15.535  72.464  1.00  0.00    -0.668 C  
ENDROOT
BRANCH   2   3
HETATM    3  C   UNL     1     -13.171  15.076  71.114  1.00  0.00    -0.434 C  
BRANCH   3   4
HETATM    4  O   UNL     1     -12.226  14.005  71.248  1.00  0.00    -0.350 OA 
BRANCH   4   5
HETATM    5  C   UNL     1     -12.185  13.117  70.223  1.00  0.00    -0.306 C  
HETATM    6  O   UNL     1     -12.078  13.386  69.039  1.00  0.00    -0.325 OA 
BRANCH   5   7
HETATM    7  C   UNL     1     -12.205  11.725  70.753  1.00  0.00    -0.424 A  
HETATM    8  C   UNL     1     -11.359  10.728  70.242  1.00  0.00    -0.374 A  
HETATM    9  C   UNL     1     -11.474   9.408  70.687  1.00  0.00    -0.344 A  
HETATM   10  C   UNL     1     -12.430   9.090  71.646  1.00  0.00    -0.351 A  
HETATM   11  O   UNL     1     -12.593   7.811  72.089  1.00  0.00    -0.413 OA 
HETATM   12  C   UNL     1     -13.264  10.070  72.176  1.00  0.00    -0.489 A  
HETATM   13  C   UNL     1     -13.158  11.389  71.723  1.00  0.00    -0.523 A  
HETATM   14  H   UNL     1     -13.246   7.594  72.744  1.00  0.00     0.000 HD 
ENDBRANCH   5   7
ENDBRANCH   4   5
ENDBRANCH   3   4
ENDBRANCH   2   3
TORSDOF 4
ENDMDL
MODEL       19
REMARK 921   NORMALIZED FREE ENERGY PREDICTED BY IDOCK:   -4.53 KCAL/MOL
REMARK 922        TOTAL FREE ENERGY PREDICTED BY IDOCK:   -6.02 KCAL/MOL
REMARK 923 INTER-LIGAND FREE ENERGY PREDICTED BY IDOCK:   -5.76 KCAL/MOL
REMARK 924 INTRA-LIGAND FREE ENERGY PREDICTED BY IDOCK:   -0.25 KCAL/MOL
REMARK 927      BINDING AFFINITY PREDICTED BY RF-SCORE:    0.00 PKD
ROOT
HETATM    1  C   UNL     1      -9.684  19.454  69.072  1.00  0.00    -0.468 C  
HETATM    2  C   UNL     1     -10.109  19.967  67.704  1.00  0.00    -0.562 C  
ENDROOT
BRANCH   2   3
HETATM    3  C   UNL     1     -10.731  18.844  66.885  1.00  0.00    -0.370 C  
BRANCH   3   4
HETATM    4  O   UNL     1     -10.266  17.554  67.307  1.00  0.00    -0.313 OA 
BRANCH   4   5
HETATM    5  C   UNL     1      -9.766  16.755  66.331  1.00  0.00    -0.290 C  
HETATM    6  O   UNL     1      -8.651  16.825  65.841  1.00  0.00    -0.500 OA 
BRANCH   5   7
HETATM    7  C   UNL     1     -10.754  15.696  65.981  1.00  0.00    -0.322 A  
HETATM    8  C   UNL     1     -11.144  14.715  66.907  1.00  0.00    -0.333 A  
HETATM    9  C   UNL     1     -11.992  13.675  66.517  1.00  0.00    -0.465 A  
HETATM   10  C   UNL     1     -12.452  13.622  65.205  1.00  0.00    -0.479 A  
HETATM   11  O   UNL     1     -13.260  12.611  64.777  1.00  0.00    -0.846 OA 
HETATM   12  C   UNL     1     -12.089  14.597  64.281  1.00  0.00    -0.437 A  
HETATM   13  C   UNL     1     -11.231  15.631  64.665  1.00  0.00    -0.380 A  
HETATM   14  H   UNL     1     -13.574  12.575  63.881  1.00  0.00     0.000 HD 
ENDBRANCH   5   7
ENDBRANCH   4   5
ENDBRANCH   3   4
ENDBRANCH   2   3
TORSDOF 4
ENDMDL
MODEL       20
REMARK 921   NORMALIZED FREE ENERGY PREDICTED BY IDOCK:   -4.52 KCAL/MOL
REMARK 922        TOTAL FREE ENERGY PREDICTED BY IDOCK:   -6.00 KCAL/MOL
REMARK 923 INTER-LIGAND FREE ENERGY PREDICTED BY IDOCK:   -5.69 KCAL/MOL
REMARK 924 INTRA-LIGAND FREE ENERGY PREDICTED BY IDOCK:   -0.31 KCAL/MOL
REMARK 927      BINDING AFFINITY PREDICTED BY RF-SCORE:    0.00 PKD
ROOT
HETATM    1  C   UNL     1      -7.667   9.727  65.405  1.00  0.00    -0.123 C  
HETATM    2  C   UNL     1      -8.980   9.688  64.636  1.00  0.00    -0.274 C  
ENDROOT
BRANCH   2   3
HETATM    3  C   UNL     1     -10.157   9.865  65.585  1.00  0.00    -0.237 C  
BRANCH   3   4
HETATM    4  O   UNL     1     -10.004  11.022  66.418  1.00  0.00    -0.208 OA 
BRANCH   4   5
HETATM    5  C   UNL     1     -11.152  11.642  66.792  1.00  0.00    -0.309 C  
HETATM    6  O   UNL     1     -11.929  11.264  67.652  1.00  0.00    -0.634 OA 
BRANCH   5   7
HETATM    7  C   UNL     1     -11.304  12.925  66.051  1.00  0.00    -0.354 A  
HETATM    8  C   UNL     1     -12.455  13.213  65.301  1.00  0.00    -0.550 A  
HETATM    9  C   UNL     1     -12.524  14.379  64.533  1.00  0.00    -0.362 A  
HETATM   10  C   UNL     1     -11.444  15.256  64.523  1.00  0.00    -0.315 A  
HETATM   11  O   UNL     1     -11.460  16.392  63.768  1.00  0.00    -1.590 OA 
HETATM   12  C   UNL     1     -10.303  14.994  65.275  1.00  0.00    -0.424 A  
HETATM   13  C   UNL     1     -10.227  13.822  66.033  1.00  0.00    -0.315 A  
HETATM   14  H   UNL     1     -10.722  16.990  63.760  1.00  0.00     0.000 HD 
ENDBRANCH   5   7
ENDBRANCH   4   5
ENDBRANCH   3   4
ENDBRANCH   2   3
TORSDOF 4
ENDMDL
MODEL       21
REMARK 921   NORMALIZED FREE ENERGY PREDICTED BY IDOCK:   -4.50 KCAL/MOL
REMARK 922        TOTAL FREE ENERGY PREDICTED BY IDOCK:   -5.98 KCAL/MOL
REMARK 923 INTER-LIGAND FREE ENERGY PREDICTED BY IDOCK:   -5.75 KCAL/MOL
REMARK 924 INTRA-LIGAND FREE ENERGY PREDICTED BY IDOCK:   -0.24 KCAL/MOL
REMARK 927      BINDING AFFINITY PREDICTED BY RF-SCORE:    0.00 PKD
ROOT
HETATM    1  C   UNL     1     -12.267   9.413  71.283  1.00  0.00    -0.425 C  
HETATM    2  C   UNL     1     -12.851  10.819  71.267  1.00  0.00    -0.540 C  
ENDROOT
BRANCH   2   3
HETATM    3  C   UNL     1     -12.086  11.701  70.290  1.00  0.00    -0.358 C  
BRANCH   3   4
HETATM    4  O   UNL     1     -12.236  11.254  68.936  1.00  0.00    -0.494 OA 
BRANCH   4   5
HETATM    5  C   UNL     1     -11.130  11.340  68.155  1.00  0.00    -0.259 C  
HETATM    6  O   UNL     1     -10.065  10.777  68.347  1.00  0.00    -0.158 OA 
BRANCH   5   7
HETATM    7  C   UNL     1     -11.416  12.171  66.952  1.00  0.00    -0.414 A  
HETATM    8  C   UNL     1     -11.918  13.477  67.059  1.00  0.00    -0.440 A  
HETATM    9  C   UNL     1     -12.275  14.193  65.913  1.00  0.00    -0.458 A  
HETATM   10  C   UNL     1     -12.123  13.602  64.662  1.00  0.00    -0.412 A  
HETATM   11  O   UNL     1     -12.483  14.255  63.521  1.00  0.00    -1.095 OA 
HETATM   12  C   UNL     1     -11.610  12.314  64.538  1.00  0.00    -0.418 A  
HETATM   13  C   UNL     1     -11.264  11.593  65.684  1.00  0.00    -0.275 A  
HETATM   14  H   UNL     1     -12.379  13.851  62.667  1.00  0.00     0.000 HD 
ENDBRANCH   5   7
ENDBRANCH   4   5
ENDBRANCH   3   4
ENDBRANCH   2   3
TORSDOF 4
ENDMDL
MODEL       22
REMARK 921   NORMALIZED FREE ENERGY PREDICTED BY IDOCK:   -4.49 KCAL/MOL
REMARK 922        TOTAL FREE ENERGY PREDICTED BY IDOCK:   -5.96 KCAL/MOL
REMARK 923 INTER-LIGAND FREE ENERGY PREDICTED BY IDOCK:   -5.53 KCAL/MOL
REMARK 924 INTRA-LIGAND FREE ENERGY PREDICTED BY IDOCK:   -0.43 KCAL/MOL
REMARK 927      BINDING AFFINITY PREDICTED BY RF-SCORE:    0.00 PKD
ROOT
HETATM    1  C   UNL     1     -10.691  11.534  63.531  1.00  0.00    -0.483 C  
HETATM    2  C   UNL     1     -12.143  11.947  63.342  1.00  0.00    -0.539 C  
ENDROOT
BRANCH   2   3
HETATM    3  C   UNL     1     -12.286  13.458  63.467  1.00  0.00    -0.400 C  
BRANCH   3   4
HETATM    4  O   UNL     1     -12.736  13.848  64.771  1.00  0.00    -0.650 OA 
BRANCH   4   5
HETATM    5  C   UNL     1     -11.786  14.337  65.607  1.00  0.00    -0.373 C  
HETATM    6  O   UNL     1     -11.017  15.253  65.369  1.00  0.00    -0.338 OA 
BRANCH   5   7
HETATM    7  C   UNL     1     -11.858  13.644  66.924  1.00  0.00    -0.451 A  
HETATM    8  C   UNL     1     -12.022  14.354  68.124  1.00  0.00    -0.320 A  
HETATM    9  C   UNL     1     -11.982  13.685  69.351  1.00  0.00    -0.394 A  
HETATM   10  C   UNL     1     -11.783  12.308  69.373  1.00  0.00    -0.330 A  
HETATM   11  O   UNL     1     -11.711  11.621  70.549  1.00  0.00    -0.477 OA 
HETATM   12  C   UNL     1     -11.637  11.588  68.191  1.00  0.00    -0.378 A  
HETATM   13  C   UNL     1     -11.665  12.256  66.964  1.00  0.00    -0.399 A  
HETATM   14  H   UNL     1     -11.575  10.681  70.564  1.00  0.00     0.000 HD 
ENDBRANCH   5   7
ENDBRANCH   4   5
ENDBRANCH   3   4
ENDBRANCH   2   3
TORSDOF 4
ENDMDL
MODEL       23
REMARK 921   NORMALIZED FREE ENERGY PREDICTED BY IDOCK:   -4.44 KCAL/MOL
REMARK 922        TOTAL FREE ENERGY PREDICTED BY IDOCK:   -5.90 KCAL/MOL
REMARK 923 INTER-LIGAND FREE ENERGY PREDICTED BY IDOCK:   -5.56 KCAL/MOL
REMARK 924 INTRA-LIGAND FREE ENERGY PREDICTED BY IDOCK:   -0.35 KCAL/MOL
REMARK 927      BINDING AFFINITY PREDICTED BY RF-SCORE:    0.00 PKD
ROOT
HETATM    1  C   UNL     1     -10.180  10.989  63.367  1.00  0.00    -0.404 C  
HETATM    2  C   UNL     1     -10.911  12.324  63.353  1.00  0.00    -0.457 C  
ENDROOT
BRANCH   2   3
HETATM    3  C   UNL     1     -12.382  12.128  63.694  1.00  0.00    -0.568 C  
BRANCH   3   4
HETATM    4  O   UNL     1     -12.822  13.043  64.707  1.00  0.00    -0.708 OA 
BRANCH   4   5
HETATM    5  C   UNL     1     -12.249  12.899  65.928  1.00  0.00    -0.407 C  
HETATM    6  O   UNL     1     -12.098  11.853  66.536  1.00  0.00    -0.568 OA 
BRANCH   5   7
HETATM    7  C   UNL     1     -11.739  14.213  66.411  1.00  0.00    -0.404 A  
HETATM    8  C   UNL     1     -11.080  15.109  65.555  1.00  0.00    -0.347 A  
HETATM    9  C   UNL     1     -10.522  16.287  66.061  1.00  0.00    -0.342 A  
HETATM   10  C   UNL     1     -10.630  16.567  67.419  1.00  0.00    -0.300 A  
HETATM   11  O   UNL     1     -10.078  17.692  67.957  1.00  0.00    -0.307 OA 
HETATM   12  C   UNL     1     -11.296  15.697  68.277  1.00  0.00    -0.357 A  
HETATM   13  C   UNL     1     -11.844  14.513  67.776  1.00  0.00    -0.390 A  
HETATM   14  H   UNL     1     -10.151  17.882  68.885  1.00  0.00     0.000 HD 
ENDBRANCH   5   7
ENDBRANCH   4   5
ENDBRANCH   3   4
ENDBRANCH   2   3
TORSDOF 4
ENDMDL
MODEL       24
REMARK 921   NORMALIZED FREE ENERGY PREDICTED BY IDOCK:   -4.44 KCAL/MOL
REMARK 922        TOTAL FREE ENERGY PREDICTED BY IDOCK:   -5.90 KCAL/MOL
REMARK 923 INTER-LIGAND FREE ENERGY PREDICTED BY IDOCK:   -5.83 KCAL/MOL
REMARK 924 INTRA-LIGAND FREE ENERGY PREDICTED BY IDOCK:   -0.07 KCAL/MOL
REMARK 927      BINDING AFFINITY PREDICTED BY RF-SCORE:    0.00 PKD
ROOT
HETATM    1  C   UNL     1     -10.850  11.708  64.271  1.00  0.00    -0.418 C  
HETATM    2  C   UNL     1     -11.768  12.918  64.172  1.00  0.00    -0.468 C  
ENDROOT
BRANCH   2   3
HETATM    3  C   UNL     1     -11.554  13.846  65.360  1.00  0.00    -0.325 C  
BRANCH   3   4
HETATM    4  O   UNL     1     -10.525  14.813  65.105  1.00  0.00    -0.369 OA 
BRANCH   4   5
HETATM    5  C   UNL     1     -10.946  16.083  64.880  1.00  0.00    -0.384 C  
HETATM    6  O   UNL     1     -11.545  16.481  63.896  1.00  0.00    -1.175 OA 
BRANCH   5   7
HETATM    7  C   UNL     1     -10.644  16.939  66.062  1.00  0.00    -0.221 A  
HETATM    8  C   UNL     1     -10.580  16.409  67.360  1.00  0.00    -0.306 A  
HETATM    9  C   UNL     1     -10.397  17.254  68.459  1.00  0.00    -0.371 A  
HETATM   10  C   UNL     1     -10.274  18.624  68.255  1.00  0.00    -0.380 A  
HETATM   11  O   UNL     1     -10.121  19.486  69.300  1.00  0.00    -0.585 OA 
HETATM   12  C   UNL     1     -10.317  19.163  66.972  1.00  0.00    -0.503 A  
HETATM   13  C   UNL     1     -10.511  18.321  65.873  1.00  0.00    -0.324 A  
HETATM   14  H   UNL     1     -10.037  20.422  69.161  1.00  0.00     0.000 HD 
ENDBRANCH   5   7
ENDBRANCH   4   5
ENDBRANCH   3   4
ENDBRANCH   2   3
TORSDOF 4
ENDMDL
MODEL       25
REMARK 921   NORMALIZED FREE ENERGY PREDICTED BY IDOCK:   -4.43 KCAL/MOL
REMARK 922        TOTAL FREE ENERGY PREDICTED BY IDOCK:   -5.90 KCAL/MOL
REMARK 923 INTER-LIGAND FREE ENERGY PREDICTED BY IDOCK:   -5.67 KCAL/MOL
REMARK 924 INTRA-LIGAND FREE ENERGY PREDICTED BY IDOCK:   -0.23 KCAL/MOL
REMARK 927      BINDING AFFINITY PREDICTED BY RF-SCORE:    0.00 PKD
ROOT
HETATM    1  C   UNL     1     -10.856  18.926  67.240  1.00  0.00    -0.448 C  
HETATM    2  C   UNL     1     -10.118  17.699  66.725  1.00  0.00    -0.334 C  
ENDROOT
BRANCH   2   3
HETATM    3  C   UNL     1     -10.207  16.563  67.735  1.00  0.00    -0.278 C  
BRANCH   3   4
HETATM    4  O   UNL     1     -11.491  16.512  68.371  1.00  0.00    -0.301 OA 
BRANCH   4   5
HETATM    5  C   UNL     1     -11.867  15.301  68.854  1.00  0.00    -0.320 C  
HETATM    6  O   UNL     1     -11.830  14.240  68.253  1.00  0.00    -0.322 OA 
BRANCH   5   7
HETATM    7  C   UNL     1     -12.268  15.423  70.284  1.00  0.00    -0.414 A  
HETATM    8  C   UNL     1     -13.574  15.139  70.712  1.00  0.00    -0.299 A  
HETATM    9  C   UNL     1     -13.946  15.363  72.040  1.00  0.00    -0.640 A  
HETATM   10  C   UNL     1     -13.009  15.864  72.938  1.00  0.00    -0.499 A  
HETATM   11  O   UNL     1     -13.337  16.121  74.236  1.00  0.00    -0.854 OA 
HETATM   12  C   UNL     1     -11.705  16.133  72.534  1.00  0.00    -0.525 A  
HETATM   13  C   UNL     1     -11.335  15.922  71.203  1.00  0.00    -0.435 A  
HETATM   14  H   UNL     1     -12.698  16.464  74.849  1.00  0.00     0.000 HD 
ENDBRANCH   5   7
ENDBRANCH   4   5
ENDBRANCH   3   4
ENDBRANCH   2   3
TORSDOF 4
ENDMDL
MODEL       26
REMARK 921   NORMALIZED FREE ENERGY PREDICTED BY IDOCK:   -4.40 KCAL/MOL
REMARK 922        TOTAL FREE ENERGY PREDICTED BY IDOCK:   -5.86 KCAL/MOL
REMARK 923 INTER-LIGAND FREE ENERGY PREDICTED BY IDOCK:   -5.50 KCAL/MOL
REMARK 924 INTRA-LIGAND FREE ENERGY PREDICTED BY IDOCK:   -0.36 KCAL/MOL
REMARK 927      BINDING AFFINITY PREDICTED BY RF-SCORE:    0.00 PKD
ROOT
HETATM    1  C   UNL     1     -12.009  10.858  69.592  1.00  0.00    -0.414 C  
HETATM    2  C   UNL     1     -12.346  11.839  70.706  1.00  0.00    -0.433 C  
ENDROOT
BRANCH   2   3
HETATM    3  C   UNL     1     -12.119  13.271  70.240  1.00  0.00    -0.335 C  
BRANCH   3   4
HETATM    4  O   UNL     1     -11.195  13.337  69.146  1.00  0.00    -0.262 OA 
BRANCH   4   5
HETATM    5  C   UNL     1     -11.100  14.536  68.519  1.00  0.00    -0.256 C  
HETATM    6  O   UNL     1     -10.792  15.598  69.034  1.00  0.00    -0.228 OA 
BRANCH   5   7
HETATM    7  C   UNL     1     -11.349  14.371  67.059  1.00  0.00    -0.357 A  
HETATM    8  C   UNL     1     -11.021  15.377  66.136  1.00  0.00    -0.279 A  
HETATM    9  C   UNL     1     -11.361  15.235  64.788  1.00  0.00    -0.396 A  
HETATM   10  C   UNL     1     -12.024  14.086  64.366  1.00  0.00    -0.454 A  
HETATM   11  O   UNL     1     -12.397  13.920  63.065  1.00  0.00    -1.101 OA 
HETATM   12  C   UNL     1     -12.340  13.073  65.266  1.00  0.00    -0.537 A  
HETATM   13  C   UNL     1     -12.011  13.218  66.617  1.00  0.00    -0.446 A  
HETATM   14  H   UNL     1     -12.850  13.136  62.778  1.00  0.00     0.000 HD 
ENDBRANCH   5   7
ENDBRANCH   4   5
ENDBRANCH   3   4
ENDBRANCH   2   3
TORSDOF 4
ENDMDL
MODEL       27
REMARK 921   NORMALIZED FREE ENERGY PREDICTED BY IDOCK:   -4.39 KCAL/MOL
REMARK 922        TOTAL FREE ENERGY PREDICTED BY IDOCK:   -5.84 KCAL/MOL
REMARK 923 INTER-LIGAND FREE ENERGY PREDICTED BY IDOCK:   -5.56 KCAL/MOL
REMARK 924 INTRA-LIGAND FREE ENERGY PREDICTED BY IDOCK:   -0.28 KCAL/MOL
REMARK 927      BINDING AFFINITY PREDICTED BY RF-SCORE:    0.00 PKD
ROOT
HETATM    1  C   UNL     1     -12.380  14.198  65.304  1.00  0.00    -0.469 C  
HETATM    2  C   UNL     1     -12.349  12.679  65.227  1.00  0.00    -0.528 C  
ENDROOT
BRANCH   2   3
HETATM    3  C   UNL     1     -11.260  12.123  66.135  1.00  0.00    -0.338 C  
BRANCH   3   4
HETATM    4  O   UNL     1     -11.798  11.598  67.356  1.00  0.00    -0.603 OA 
BRANCH   4   5
HETATM    5  C   UNL     1     -10.964  11.606  68.426  1.00  0.00    -0.220 C  
HETATM    6  O   UNL     1      -9.787  11.290  68.426  1.00  0.00    -0.185 OA 
BRANCH   5   7
HETATM    7  C   UNL     1     -11.672  12.146  69.621  1.00  0.00    -0.396 A  
HETATM    8  C   UNL     1     -12.144  11.306  70.642  1.00  0.00    -0.480 A  
HETATM    9  C   UNL     1     -12.894  11.831  71.698  1.00  0.00    -0.433 A  
HETATM   10  C   UNL     1     -13.165  13.195  71.733  1.00  0.00    -0.403 A  
HETATM   11  O   UNL     1     -13.914  13.745  72.730  1.00  0.00    -0.714 OA 
HETATM   12  C   UNL     1     -12.689  14.044  70.738  1.00  0.00    -0.396 A  
HETATM   13  C   UNL     1     -11.949  13.519  69.675  1.00  0.00    -0.397 A  
HETATM   14  H   UNL     1     -14.100  14.676  72.754  1.00  0.00     0.000 HD 
ENDBRANCH   5   7
ENDBRANCH   4   5
ENDBRANCH   3   4
ENDBRANCH   2   3
TORSDOF 4
ENDMDL
MODEL       28
REMARK 921   NORMALIZED FREE ENERGY PREDICTED BY IDOCK:   -4.38 KCAL/MOL
REMARK 922        TOTAL FREE ENERGY PREDICTED BY IDOCK:   -5.83 KCAL/MOL
REMARK 923 INTER-LIGAND FREE ENERGY PREDICTED BY IDOCK:   -5.41 KCAL/MOL
REMARK 924 INTRA-LIGAND FREE ENERGY PREDICTED BY IDOCK:   -0.42 KCAL/MOL
REMARK 927      BINDING AFFINITY PREDICTED BY RF-SCORE:    0.00 PKD
ROOT
HETATM    1  C   UNL     1     -11.905  13.770  69.039  1.00  0.00    -0.397 C  
HETATM    2  C   UNL     1     -11.337  15.135  69.398  1.00  0.00    -0.307 C  
ENDROOT
BRANCH   2   3
HETATM    3  C   UNL     1     -11.332  16.046  68.178  1.00  0.00    -0.289 C  
BRANCH   3   4
HETATM    4  O   UNL     1     -10.328  15.663  67.229  1.00  0.00    -0.265 OA 
BRANCH   4   5
HETATM    5  C   UNL     1     -10.602  15.941  65.929  1.00  0.00    -0.337 C  
HETATM    6  O   UNL     1     -10.540  17.035  65.396  1.00  0.00    -0.601 OA 
BRANCH   5   7
HETATM    7  C   UNL     1     -10.920  14.684  65.194  1.00  0.00    -0.395 A  
HETATM    8  C   UNL     1     -10.169  13.512  65.376  1.00  0.00    -0.316 A  
HETATM    9  C   UNL     1     -10.426  12.381  64.596  1.00  0.00    -0.338 A  
HETATM   10  C   UNL     1     -11.437  12.423  63.642  1.00  0.00    -0.489 A  
HETATM   11  O   UNL     1     -11.704  11.351  62.843  1.00  0.00    -0.856 OA 
HETATM   12  C   UNL     1     -12.202  13.572  63.462  1.00  0.00    -0.410 A  
HETATM   13  C   UNL     1     -11.939  14.708  64.232  1.00  0.00    -0.406 A  
HETATM   14  H   UNL     1     -12.394  11.380  62.191  1.00  0.00     0.000 HD 
ENDBRANCH   5   7
ENDBRANCH   4   5
ENDBRANCH   3   4
ENDBRANCH   2   3
TORSDOF 4
ENDMDL
MODEL       29
REMARK 921   NORMALIZED FREE ENERGY PREDICTED BY IDOCK:   -4.37 KCAL/MOL
REMARK 922        TOTAL FREE ENERGY PREDICTED BY IDOCK:   -5.81 KCAL/MOL
REMARK 923 INTER-LIGAND FREE ENERGY PREDICTED BY IDOCK:   -5.59 KCAL/MOL
REMARK 924 INTRA-LIGAND FREE ENERGY PREDICTED BY IDOCK:   -0.23 KCAL/MOL
REMARK 927      BINDING AFFINITY PREDICTED BY RF-SCORE:    0.00 PKD
ROOT
HETATM    1  C   UNL     1     -11.924   6.427  71.987  1.00  0.00    -0.375 C  
HETATM    2  C   UNL     1     -11.271   7.510  71.141  1.00  0.00    -0.277 C  
ENDROOT
BRANCH   2   3
HETATM    3  C   UNL     1     -11.066   8.775  71.963  1.00  0.00    -0.371 C  
BRANCH   3   4
HETATM    4  O   UNL     1     -11.535   9.942  71.275  1.00  0.00    -0.365 OA 
BRANCH   4   5
HETATM    5  C   UNL     1     -12.755  10.403  71.649  1.00  0.00    -0.455 C  
HETATM    6  O   UNL     1     -13.650   9.748  72.157  1.00  0.00    -0.419 OA 
BRANCH   5   7
HETATM    7  C   UNL     1     -12.836  11.875  71.429  1.00  0.00    -0.411 A  
HETATM    8  C   UNL     1     -13.659  12.696  72.215  1.00  0.00    -0.508 A  
HETATM    9  C   UNL     1     -13.792  14.055  71.917  1.00  0.00    -0.533 A  
HETATM   10  C   UNL     1     -13.097  14.589  70.837  1.00  0.00    -0.345 A  
HETATM   11  O   UNL     1     -13.219  15.904  70.496  1.00  0.00    -0.739 OA 
HETATM   12  C   UNL     1     -12.263  13.793  70.059  1.00  0.00    -0.407 A  
HETATM   13  C   UNL     1     -12.138  12.431  70.348  1.00  0.00    -0.381 A  
HETATM   14  H   UNL     1     -12.744  16.269  69.759  1.00  0.00     0.000 HD 
ENDBRANCH   5   7
ENDBRANCH   4   5
ENDBRANCH   3   4
ENDBRANCH   2   3
TORSDOF 4
ENDMDL
MODEL       30
REMARK 921   NORMALIZED FREE ENERGY PREDICTED BY IDOCK:   -4.34 KCAL/MOL
REMARK 922        TOTAL FREE ENERGY PREDICTED BY IDOCK:   -5.78 KCAL/MOL
REMARK 923 INTER-LIGAND FREE ENERGY PREDICTED BY IDOCK:   -5.60 KCAL/MOL
REMARK 924 INTRA-LIGAND FREE ENERGY PREDICTED BY IDOCK:   -0.18 KCAL/MOL
REMARK 927      BINDING AFFINITY PREDICTED BY RF-SCORE:    0.00 PKD
ROOT
HETATM    1  C   UNL     1     -10.488  19.808  66.889  1.00  0.00    -0.596 C  
HETATM    2  C   UNL     1     -10.226  18.450  67.524  1.00  0.00    -0.393 C  
ENDROOT
BRANCH   2   3
HETATM    3  C   UNL     1     -10.199  17.362  66.460  1.00  0.00    -0.329 C  
BRANCH   3   4
HETATM    4  O   UNL     1      -9.902  16.075  67.017  1.00  0.00    -0.229 OA 
BRANCH   4   5
HETATM    5  C   UNL     1     -10.972  15.300  67.328  1.00  0.00    -0.327 C  
HETATM    6  O   UNL     1     -11.702  15.431  68.296  1.00  0.00    -0.360 OA 
BRANCH   5   7
HETATM    7  C   UNL     1     -11.196  14.287  66.259  1.00  0.00    -0.337 A  
HETATM    8  C   UNL     1     -10.185  13.933  65.352  1.00  0.00    -0.356 A  
HETATM    9  C   UNL     1     -10.457  13.058  64.297  1.00  0.00    -0.424 A  
HETATM   10  C   UNL     1     -11.738  12.533  64.156  1.00  0.00    -0.399 A  
HETATM   11  O   UNL     1     -12.052  11.696  63.127  1.00  0.00    -0.905 OA 
HETATM   12  C   UNL     1     -12.747  12.860  65.058  1.00  0.00    -0.474 A  
HETATM   13  C   UNL     1     -12.480  13.745  66.106  1.00  0.00    -0.466 A  
HETATM   14  H   UNL     1     -12.927  11.339  63.031  1.00  0.00     0.000 HD 
ENDBRANCH   5   7
ENDBRANCH   4   5
ENDBRANCH   3   4
ENDBRANCH   2   3
TORSDOF 4
ENDMDL
MODEL       31
REMARK 921   NORMALIZED FREE ENERGY PREDICTED BY IDOCK:   -4.33 KCAL/MOL
REMARK 922        TOTAL FREE ENERGY PREDICTED BY IDOCK:   -5.77 KCAL/MOL
REMARK 923 INTER-LIGAND FREE ENERGY PREDICTED BY IDOCK:   -5.12 KCAL/MOL
REMARK 924 INTRA-LIGAND FREE ENERGY PREDICTED BY IDOCK:   -0.65 KCAL/MOL
REMARK 927      BINDING AFFINITY PREDICTED BY RF-SCORE:    0.00 PKD
ROOT
HETATM    1  C   UNL     1      -9.049  15.145  66.253  1.00  0.00    -0.313 C  
HETATM    2  C   UNL     1     -10.307  15.824  65.731  1.00  0.00    -0.390 C  
ENDROOT
BRANCH   2   3
HETATM    3  C   UNL     1     -11.049  14.904  64.771  1.00  0.00    -0.383 C  
BRANCH   3   4
HETATM    4  O   UNL     1     -12.303  14.466  65.311  1.00  0.00    -0.404 OA 
BRANCH   4   5
HETATM    5  C   UNL     1     -12.508  13.125  65.326  1.00  0.00    -0.495 C  
HETATM    6  O   UNL     1     -13.161  12.485  64.519  1.00  0.00    -0.816 OA 
BRANCH   5   7
HETATM    7  C   UNL     1     -11.742  12.503  66.443  1.00  0.00    -0.458 A  
HETATM    8  C   UNL     1     -11.889  12.937  67.770  1.00  0.00    -0.391 A  
HETATM    9  C   UNL     1     -11.081  12.406  68.780  1.00  0.00    -0.307 A  
HETATM   10  C   UNL     1     -10.134  11.438  68.460  1.00  0.00    -0.206 A  
HETATM   11  O   UNL     1      -9.309  10.913  69.410  1.00  0.00    -0.404 OA 
HETATM   12  C   UNL     1      -9.989  10.984  67.153  1.00  0.00    -0.218 A  
HETATM   13  C   UNL     1     -10.787  11.523  66.140  1.00  0.00    -0.330 A  
HETATM   14  H   UNL     1      -8.662  10.252  69.192  1.00  0.00     0.000 HD 
ENDBRANCH   5   7
ENDBRANCH   4   5
ENDBRANCH   3   4
ENDBRANCH   2   3
TORSDOF 4
ENDMDL
MODEL       32
REMARK 921   NORMALIZED FREE ENERGY PREDICTED BY IDOCK:   -4.31 KCAL/MOL
REMARK 922        TOTAL FREE ENERGY PREDICTED BY IDOCK:   -5.74 KCAL/MOL
REMARK 923 INTER-LIGAND FREE ENERGY PREDICTED BY IDOCK:   -5.19 KCAL/MOL
REMARK 924 INTRA-LIGAND FREE ENERGY PREDICTED BY IDOCK:   -0.56 KCAL/MOL
REMARK 927      BINDING AFFINITY PREDICTED BY RF-SCORE:    0.00 PKD
ROOT
HETATM    1  C   UNL     1      -9.041  15.228  66.376  1.00  0.00    -0.347 C  
HETATM    2  C   UNL     1     -10.328  15.858  65.864  1.00  0.00    -0.383 C  
ENDROOT
BRANCH   2   3
HETATM    3  C   UNL     1     -11.001  14.942  64.851  1.00  0.00    -0.408 C  
BRANCH   3   4
HETATM    4  O   UNL     1     -12.308  14.537  65.281  1.00  0.00    -0.370 OA 
BRANCH   4   5
HETATM    5  C   UNL     1     -12.525  13.199  65.344  1.00  0.00    -0.481 C  
HETATM    6  O   UNL     1     -13.212  12.542  64.580  1.00  0.00    -0.848 OA 
BRANCH   5   7
HETATM    7  C   UNL     1     -11.727  12.604  66.452  1.00  0.00    -0.466 A  
HETATM    8  C   UNL     1     -10.843  11.535  66.234  1.00  0.00    -0.333 A  
HETATM    9  C   UNL     1     -10.187  10.930  67.310  1.00  0.00    -0.242 A  
HETATM   10  C   UNL     1     -10.413  11.400  68.600  1.00  0.00    -0.201 A  
HETATM   11  O   UNL     1      -9.813  10.823  69.680  1.00  0.00    -0.432 OA 
HETATM   12  C   UNL     1     -11.271  12.471  68.831  1.00  0.00    -0.330 A  
HETATM   13  C   UNL     1     -11.938  13.069  67.757  1.00  0.00    -0.344 A  
HETATM   14  H   UNL     1      -9.967  11.144  70.561  1.00  0.00     0.000 HD 
ENDBRANCH   5   7
ENDBRANCH   4   5
ENDBRANCH   3   4
ENDBRANCH   2   3
TORSDOF 4
ENDMDL
MODEL       33
REMARK 921   NORMALIZED FREE ENERGY PREDICTED BY IDOCK:   -4.29 KCAL/MOL
REMARK 922        TOTAL FREE ENERGY PREDICTED BY IDOCK:   -5.72 KCAL/MOL
REMARK 923 INTER-LIGAND FREE ENERGY PREDICTED BY IDOCK:   -5.42 KCAL/MOL
REMARK 924 INTRA-LIGAND FREE ENERGY PREDICTED BY IDOCK:   -0.30 KCAL/MOL
REMARK 927      BINDING AFFINITY PREDICTED BY RF-SCORE:    0.00 PKD
ROOT
HETATM    1  C   UNL     1      -9.832  10.013  65.299  1.00  0.00    -0.388 C  
HETATM    2  C   UNL     1     -10.211  10.082  66.771  1.00  0.00    -0.295 C  
ENDROOT
BRANCH   2   3
HETATM    3  C   UNL     1     -11.012  11.346  67.055  1.00  0.00    -0.292 C  
BRANCH   3   4
HETATM    4  O   UNL     1     -12.107  11.096  67.946  1.00  0.00    -0.627 OA 
BRANCH   4   5
HETATM    5  C   UNL     1     -11.995  11.626  69.190  1.00  0.00    -0.313 C  
HETATM    6  O   UNL     1     -11.962  12.813  69.468  1.00  0.00    -0.309 OA 
BRANCH   5   7
HETATM    7  C   UNL     1     -11.998  10.541  70.211  1.00  0.00    -0.411 A  
HETATM    8  C   UNL     1     -13.144  10.238  70.963  1.00  0.00    -0.458 A  
HETATM    9  C   UNL     1     -13.087   9.286  71.984  1.00  0.00    -0.512 A  
HETATM   10  C   UNL     1     -11.885   8.636  72.247  1.00  0.00    -0.366 A  
HETATM   11  O   UNL     1     -11.779   7.719  73.251  1.00  0.00    -0.659 OA 
HETATM   12  C   UNL     1     -10.745   8.912  71.498  1.00  0.00    -0.398 A  
HETATM   13  C   UNL     1     -10.797   9.873  70.484  1.00  0.00    -0.391 A  
HETATM   14  H   UNL     1     -10.958   7.276  73.430  1.00  0.00     0.000 HD 
ENDBRANCH   5   7
ENDBRANCH   4   5
ENDBRANCH   3   4
ENDBRANCH   2   3
TORSDOF 4
ENDMDL
MODEL       34
REMARK 921   NORMALIZED FREE ENERGY PREDICTED BY IDOCK:   -4.28 KCAL/MOL
REMARK 922        TOTAL FREE ENERGY PREDICTED BY IDOCK:   -5.70 KCAL/MOL
REMARK 923 INTER-LIGAND FREE ENERGY PREDICTED BY IDOCK:   -5.21 KCAL/MOL
REMARK 924 INTRA-LIGAND FREE ENERGY PREDICTED BY IDOCK:   -0.49 KCAL/MOL
REMARK 927      BINDING AFFINITY PREDICTED BY RF-SCORE:    0.00 PKD
ROOT
HETATM    1  C   UNL     1      -9.868  10.709  66.060  1.00  0.00    -0.280 C  
HETATM    2  C   UNL     1      -9.900  10.383  64.574  1.00  0.00    -0.405 C  
ENDROOT
BRANCH   2   3
HETATM    3  C   UNL     1     -10.416  11.576  63.779  1.00  0.00    -0.405 C  
BRANCH   3   4
HETATM    4  O   UNL     1     -11.706  12.005  64.234  1.00  0.00    -0.352 OA 
BRANCH   4   5
HETATM    5  C   UNL     1     -12.021  13.302  63.995  1.00  0.00    -0.465 C  
HETATM    6  O   UNL     1     -12.593  13.737  63.010  1.00  0.00    -0.721 OA 
BRANCH   5   7
HETATM    7  C   UNL     1     -11.638  14.145  65.163  1.00  0.00    -0.344 A  
HETATM    8  C   UNL     1     -10.781  15.249  65.028  1.00  0.00    -0.461 A  
HETATM    9  C   UNL     1     -10.357  15.956  66.157  1.00  0.00    -0.341 A  
HETATM   10  C   UNL     1     -10.797  15.560  67.416  1.00  0.00    -0.312 A  
HETATM   11  O   UNL     1     -10.388  16.206  68.545  1.00  0.00    -0.236 OA 
HETATM   12  C   UNL     1     -11.661  14.480  67.565  1.00  0.00    -0.403 A  
HETATM   13  C   UNL     1     -12.076  13.764  66.438  1.00  0.00    -0.483 A  
HETATM   14  H   UNL     1     -10.688  15.936  69.405  1.00  0.00     0.000 HD 
ENDBRANCH   5   7
ENDBRANCH   4   5
ENDBRANCH   3   4
ENDBRANCH   2   3
TORSDOF 4
ENDMDL
MODEL       35
REMARK 921   NORMALIZED FREE ENERGY PREDICTED BY IDOCK:   -4.26 KCAL/MOL
REMARK 922        TOTAL FREE ENERGY PREDICTED BY IDOCK:   -5.68 KCAL/MOL
REMARK 923 INTER-LIGAND FREE ENERGY PREDICTED BY IDOCK:   -5.15 KCAL/MOL
REMARK 924 INTRA-LIGAND FREE ENERGY PREDICTED BY IDOCK:   -0.54 KCAL/MOL
REMARK 927      BINDING AFFINITY PREDICTED BY RF-SCORE:    0.00 PKD
ROOT
HETATM    1  C   UNL     1     -11.620  12.830  67.494  1.00  0.00    -0.412 C  
HETATM    2  C   UNL     1     -11.959  12.584  66.031  1.00  0.00    -0.456 C  
ENDROOT
BRANCH   2   3
HETATM    3  C   UNL     1     -12.288  13.897  65.334  1.00  0.00    -0.470 C  
BRANCH   3   4
HETATM    4  O   UNL     1     -11.149  14.443  64.657  1.00  0.00    -0.381 OA 
BRANCH   4   5
HETATM    5  C   UNL     1     -10.990  15.787  64.749  1.00  0.00    -0.393 C  
HETATM    6  O   UNL     1     -11.465  16.624  64.000  1.00  0.00    -1.192 OA 
BRANCH   5   7
HETATM    7  C   UNL     1     -10.203  16.126  65.969  1.00  0.00    -0.374 A  
HETATM    8  C   UNL     1     -10.641  17.097  66.884  1.00  0.00    -0.209 A  
HETATM    9  C   UNL     1      -9.832  17.466  67.962  1.00  0.00    -0.288 A  
HETATM   10  C   UNL     1      -8.590  16.860  68.124  1.00  0.00    -0.221 A  
HETATM   11  O   UNL     1      -7.758  17.209  69.147  1.00  0.00    -0.209 OA 
HETATM   12  C   UNL     1      -8.149  15.884  67.236  1.00  0.00    -0.213 A  
HETATM   13  C   UNL     1      -8.952  15.521  66.150  1.00  0.00    -0.329 A  
HETATM   14  H   UNL     1      -6.910  16.796  69.257  1.00  0.00     0.000 HD 
ENDBRANCH   5   7
ENDBRANCH   4   5
ENDBRANCH   3   4
ENDBRANCH   2   3
TORSDOF 4
ENDMDL
MODEL       36
REMARK 921   NORMALIZED FREE ENERGY PREDICTED BY IDOCK:   -4.23 KCAL/MOL
REMARK 922        TOTAL FREE ENERGY PREDICTED BY IDOCK:   -5.65 KCAL/MOL
REMARK 923 INTER-LIGAND FREE ENERGY PREDICTED BY IDOCK:   -5.39 KCAL/MOL
REMARK 924 INTRA-LIGAND FREE ENERGY PREDICTED BY IDOCK:   -0.26 KCAL/MOL
REMARK 927      BINDING AFFINITY PREDICTED BY RF-SCORE:    0.00 PKD
ROOT
HETATM    1  C   UNL     1     -12.954  13.292  71.466  1.00  0.00    -0.426 C  
HETATM    2  C   UNL     1     -12.011  14.202  70.693  1.00  0.00    -0.385 C  
ENDROOT
BRANCH   2   3
HETATM    3  C   UNL     1     -12.148  13.959  69.196  1.00  0.00    -0.338 C  
BRANCH   3   4
HETATM    4  O   UNL     1     -11.168  13.031  68.712  1.00  0.00    -0.252 OA 
BRANCH   4   5
HETATM    5  C   UNL     1     -11.649  11.867  68.209  1.00  0.00    -0.327 C  
HETATM    6  O   UNL     1     -12.308  11.037  68.812  1.00  0.00    -0.533 OA 
BRANCH   5   7
HETATM    7  C   UNL     1     -11.328  11.766  66.757  1.00  0.00    -0.385 A  
HETATM    8  C   UNL     1     -12.020  12.517  65.794  1.00  0.00    -0.482 A  
HETATM    9  C   UNL     1     -11.768  12.324  64.433  1.00  0.00    -0.437 A  
HETATM   10  C   UNL     1     -10.820  11.384  64.040  1.00  0.00    -0.383 A  
HETATM   11  O   UNL     1     -10.561  11.146  62.723  1.00  0.00    -0.754 OA 
HETATM   12  C   UNL     1     -10.112  10.645  64.983  1.00  0.00    -0.388 A  
HETATM   13  C   UNL     1     -10.372  10.828  66.344  1.00  0.00    -0.306 A  
HETATM   14  H   UNL     1      -9.914  10.505  62.454  1.00  0.00     0.000 HD 
ENDBRANCH   5   7
ENDBRANCH   4   5
ENDBRANCH   3   4
ENDBRANCH   2   3
TORSDOF 4
ENDMDL
MODEL       37
REMARK 921   NORMALIZED FREE ENERGY PREDICTED BY IDOCK:   -4.23 KCAL/MOL
REMARK 922        TOTAL FREE ENERGY PREDICTED BY IDOCK:   -5.64 KCAL/MOL
REMARK 923 INTER-LIGAND FREE ENERGY PREDICTED BY IDOCK:   -5.38 KCAL/MOL
REMARK 924 INTRA-LIGAND FREE ENERGY PREDICTED BY IDOCK:   -0.27 KCAL/MOL
REMARK 927      BINDING AFFINITY PREDICTED BY RF-SCORE:    0.00 PKD
ROOT
HETATM    1  C   UNL     1     -12.692  16.059  73.815  1.00  0.00    -0.719 C  
HETATM    2  C   UNL     1     -13.733  15.553  72.828  1.00  0.00    -0.642 C  
ENDROOT
BRANCH   2   3
HETATM    3  C   UNL     1     -13.377  14.150  72.353  1.00  0.00    -0.494 C  
BRANCH   3   4
HETATM    4  O   UNL     1     -12.244  14.155  71.474  1.00  0.00    -0.334 OA 
BRANCH   4   5
HETATM    5  C   UNL     1     -12.195  13.152  70.562  1.00  0.00    -0.328 C  
HETATM    6  O   UNL     1     -12.403  11.970  70.776  1.00  0.00    -0.375 OA 
BRANCH   5   7
HETATM    7  C   UNL     1     -11.927  13.708  69.206  1.00  0.00    -0.384 A  
HETATM    8  C   UNL     1     -11.819  12.880  68.077  1.00  0.00    -0.390 A  
HETATM    9  C   UNL     1     -11.463  13.420  66.837  1.00  0.00    -0.376 A  
HETATM   10  C   UNL     1     -11.223  14.786  66.730  1.00  0.00    -0.344 A  
HETATM   11  O   UNL     1     -10.849  15.350  65.546  1.00  0.00    -0.338 OA 
HETATM   12  C   UNL     1     -11.344  15.622  67.836  1.00  0.00    -0.302 A  
HETATM   13  C   UNL     1     -11.687  15.083  69.079  1.00  0.00    -0.351 A  
HETATM   14  H   UNL     1     -10.685  16.283  65.473  1.00  0.00     0.000 HD 
ENDBRANCH   5   7
ENDBRANCH   4   5
ENDBRANCH   3   4
ENDBRANCH   2   3
TORSDOF 4
ENDMDL
MODEL       38
REMARK 921   NORMALIZED FREE ENERGY PREDICTED BY IDOCK:   -4.23 KCAL/MOL
REMARK 922        TOTAL FREE ENERGY PREDICTED BY IDOCK:   -5.64 KCAL/MOL
REMARK 923 INTER-LIGAND FREE ENERGY PREDICTED BY IDOCK:   -5.12 KCAL/MOL
REMARK 924 INTRA-LIGAND FREE ENERGY PREDICTED BY IDOCK:   -0.52 KCAL/MOL
REMARK 927      BINDING AFFINITY PREDICTED BY RF-SCORE:    0.00 PKD
ROOT
HETATM    1  C   UNL     1      -9.636  15.104  67.203  1.00  0.00    -0.224 C  
HETATM    2  C   UNL     1      -9.498  15.805  65.860  1.00  0.00    -0.377 C  
ENDROOT
BRANCH   2   3
HETATM    3  C   UNL     1     -10.838  15.838  65.138  1.00  0.00    -0.428 C  
BRANCH   3   4
HETATM    4  O   UNL     1     -11.683  14.748  65.528  1.00  0.00    -0.342 OA 
BRANCH   4   5
HETATM    5  C   UNL     1     -11.989  13.854  64.554  1.00  0.00    -0.437 C  
HETATM    6  O   UNL     1     -12.753  14.037  63.621  1.00  0.00    -0.778 OA 
BRANCH   5   7
HETATM    7  C   UNL     1     -11.186  12.612  64.729  1.00  0.00    -0.337 A  
HETATM    8  C   UNL     1     -10.553  11.982  63.645  1.00  0.00    -0.503 A  
HETATM    9  C   UNL     1      -9.895  10.762  63.824  1.00  0.00    -0.396 A  
HETATM   10  C   UNL     1      -9.866  10.179  65.087  1.00  0.00    -0.325 A  
HETATM   11  O   UNL     1      -9.256   8.978  65.300  1.00  0.00    -0.336 OA 
HETATM   12  C   UNL     1     -10.472  10.800  66.175  1.00  0.00    -0.278 A  
HETATM   13  C   UNL     1     -11.142  12.014  65.996  1.00  0.00    -0.364 A  
HETATM   14  H   UNL     1      -9.237   8.580  66.162  1.00  0.00     0.000 HD 
ENDBRANCH   5   7
ENDBRANCH   4   5
ENDBRANCH   3   4
ENDBRANCH   2   3
TORSDOF 4
ENDMDL
MODEL       39
REMARK 921   NORMALIZED FREE ENERGY PREDICTED BY IDOCK:   -4.22 KCAL/MOL
REMARK 922        TOTAL FREE ENERGY PREDICTED BY IDOCK:   -5.63 KCAL/MOL
REMARK 923 INTER-LIGAND FREE ENERGY PREDICTED BY IDOCK:   -5.48 KCAL/MOL
REMARK 924 INTRA-LIGAND FREE ENERGY PREDICTED BY IDOCK:   -0.15 KCAL/MOL
REMARK 927      BINDING AFFINITY PREDICTED BY RF-SCORE:    0.00 PKD
ROOT
HETATM    1  C   UNL     1     -10.652  19.277  66.073  1.00  0.00    -0.550 C  
HETATM    2  C   UNL     1     -10.097  18.168  66.955  1.00  0.00    -0.357 C  
ENDROOT
BRANCH   2   3
HETATM    3  C   UNL     1      -9.799  16.927  66.124  1.00  0.00    -0.297 C  
BRANCH   3   4
HETATM    4  O   UNL     1     -10.927  16.045  66.056  1.00  0.00    -0.233 OA 
BRANCH   4   5
HETATM    5  C   UNL     1     -11.322  15.680  64.811  1.00  0.00    -0.343 C  
HETATM    6  O   UNL     1     -11.752  16.421  63.943  1.00  0.00    -1.085 OA 
BRANCH   5   7
HETATM    7  C   UNL     1     -11.079  14.224  64.604  1.00  0.00    -0.371 A  
HETATM    8  C   UNL     1     -11.868  13.461  63.729  1.00  0.00    -0.483 A  
HETATM    9  C   UNL     1     -11.683  12.079  63.635  1.00  0.00    -0.587 A  
HETATM   10  C   UNL     1     -10.705  11.465  64.411  1.00  0.00    -0.342 A  
HETATM   11  O   UNL     1     -10.509  10.117  64.369  1.00  0.00    -0.333 OA 
HETATM   12  C   UNL     1      -9.903  12.211  65.270  1.00  0.00    -0.216 A  
HETATM   13  C   UNL     1     -10.094  13.591  65.374  1.00  0.00    -0.279 A  
HETATM   14  H   UNL     1      -9.841   9.698  64.900  1.00  0.00     0.000 HD 
ENDBRANCH   5   7
ENDBRANCH   4   5
ENDBRANCH   3   4
ENDBRANCH   2   3
TORSDOF 4
ENDMDL
MODEL       40
REMARK 921   NORMALIZED FREE ENERGY PREDICTED BY IDOCK:   -4.22 KCAL/MOL
REMARK 922        TOTAL FREE ENERGY PREDICTED BY IDOCK:   -5.63 KCAL/MOL
REMARK 923 INTER-LIGAND FREE ENERGY PREDICTED BY IDOCK:   -5.16 KCAL/MOL
REMARK 924 INTRA-LIGAND FREE ENERGY PREDICTED BY IDOCK:   -0.47 KCAL/MOL
REMARK 927      BINDING AFFINITY PREDICTED BY RF-SCORE:    0.00 PKD
ROOT
HETATM    1  C   UNL     1     -11.008  16.554  68.643  1.00  0.00    -0.344 C  
HETATM    2  C   UNL     1     -10.477  15.611  69.713  1.00  0.00    -0.312 C  
ENDROOT
BRANCH   2   3
HETATM    3  C   UNL     1     -11.555  14.618  70.127  1.00  0.00    -0.282 C  
BRANCH   3   4
HETATM    4  O   UNL     1     -12.237  14.066  68.993  1.00  0.00    -0.346 OA 
BRANCH   4   5
HETATM    5  C   UNL     1     -11.725  12.913  68.494  1.00  0.00    -0.339 C  
HETATM    6  O   UNL     1     -11.306  11.969  69.142  1.00  0.00    -0.246 OA 
BRANCH   5   7
HETATM    7  C   UNL     1     -11.819  12.913  67.007  1.00  0.00    -0.437 A  
HETATM    8  C   UNL     1     -11.259  11.886  66.231  1.00  0.00    -0.392 A  
HETATM    9  C   UNL     1     -11.273  11.967  64.836  1.00  0.00    -0.374 A  
HETATM   10  C   UNL     1     -11.852  13.073  64.221  1.00  0.00    -0.396 A  
HETATM   11  O   UNL     1     -11.864  13.204  62.864  1.00  0.00    -0.775 OA 
HETATM   12  C   UNL     1     -12.428  14.090  64.976  1.00  0.00    -0.446 A  
HETATM   13  C   UNL     1     -12.404  14.016  66.371  1.00  0.00    -0.468 A  
HETATM   14  H   UNL     1     -12.259  13.959  62.444  1.00  0.00     0.000 HD 
ENDBRANCH   5   7
ENDBRANCH   4   5
ENDBRANCH   3   4
ENDBRANCH   2   3
TORSDOF 4
ENDMDL
MODEL       41
REMARK 921   NORMALIZED FREE ENERGY PREDICTED BY IDOCK:   -4.18 KCAL/MOL
REMARK 922        TOTAL FREE ENERGY PREDICTED BY IDOCK:   -5.59 KCAL/MOL
REMARK 923 INTER-LIGAND FREE ENERGY PREDICTED BY IDOCK:   -5.27 KCAL/MOL
REMARK 924 INTRA-LIGAND FREE ENERGY PREDICTED BY IDOCK:   -0.32 KCAL/MOL
REMARK 927      BINDING AFFINITY PREDICTED BY RF-SCORE:    0.00 PKD
ROOT
HETATM    1  C   UNL     1     -10.594  19.220  66.121  1.00  0.00    -0.549 C  
HETATM    2  C   UNL     1     -10.309  17.727  66.044  1.00  0.00    -0.304 C  
ENDROOT
BRANCH   2   3
HETATM    3  C   UNL     1     -10.398  17.096  67.427  1.00  0.00    -0.333 C  
BRANCH   3   4
HETATM    4  O   UNL     1     -11.039  15.814  67.390  1.00  0.00    -0.311 OA 
BRANCH   4   5
HETATM    5  C   UNL     1     -10.259  14.771  67.007  1.00  0.00    -0.253 C  
HETATM    6  O   UNL     1      -9.203  14.435  67.515  1.00  0.00    -0.189 OA 
BRANCH   5   7
HETATM    7  C   UNL     1     -10.920  14.017  65.905  1.00  0.00    -0.286 A  
HETATM    8  C   UNL     1     -12.295  13.736  65.923  1.00  0.00    -0.516 A  
HETATM    9  C   UNL     1     -12.865  12.937  64.928  1.00  0.00    -0.370 A  
HETATM   10  C   UNL     1     -12.060  12.427  63.914  1.00  0.00    -0.499 A  
HETATM   11  O   UNL     1     -12.571  11.624  62.939  1.00  0.00    -0.914 OA 
HETATM   12  C   UNL     1     -10.698  12.712  63.873  1.00  0.00    -0.465 A  
HETATM   13  C   UNL     1     -10.124  13.500  64.874  1.00  0.00    -0.280 A  
HETATM   14  H   UNL     1     -12.021  11.275  62.247  1.00  0.00     0.000 HD 
ENDBRANCH   5   7
ENDBRANCH   4   5
ENDBRANCH   3   4
ENDBRANCH   2   3
TORSDOF 4
ENDMDL
MODEL       42
REMARK 921   NORMALIZED FREE ENERGY PREDICTED BY IDOCK:   -4.17 KCAL/MOL
REMARK 922        TOTAL FREE ENERGY PREDICTED BY IDOCK:   -5.58 KCAL/MOL
REMARK 923 INTER-LIGAND FREE ENERGY PREDICTED BY IDOCK:   -5.33 KCAL/MOL
REMARK 924 INTRA-LIGAND FREE ENERGY PREDICTED BY IDOCK:   -0.24 KCAL/MOL
REMARK 927      BINDING AFFINITY PREDICTED BY RF-SCORE:    0.00 PKD
ROOT
HETATM    1  C   UNL     1     -12.592   7.976  72.066  1.00  0.00    -0.346 C  
HETATM    2  C   UNL     1     -11.774   9.257  71.989  1.00  0.00    -0.336 C  
ENDROOT
BRANCH   2   3
HETATM    3  C   UNL     1     -11.609   9.695  70.540  1.00  0.00    -0.272 C  
BRANCH   3   4
HETATM    4  O   UNL     1     -11.193  11.064  70.439  1.00  0.00    -0.232 OA 
BRANCH   4   5
HETATM    5  C   UNL     1     -11.961  11.862  69.655  1.00  0.00    -0.298 C  
HETATM    6  O   UNL     1     -12.218  11.685  68.476  1.00  0.00    -0.485 OA 
BRANCH   5   7
HETATM    7  C   UNL     1     -12.533  12.974  70.464  1.00  0.00    -0.306 A  
HETATM    8  C   UNL     1     -12.403  14.316  70.072  1.00  0.00    -0.403 A  
HETATM    9  C   UNL     1     -12.859  15.342  70.904  1.00  0.00    -0.536 A  
HETATM   10  C   UNL     1     -13.450  15.024  72.122  1.00  0.00    -0.407 A  
HETATM   11  O   UNL     1     -13.885  15.994  72.975  1.00  0.00    -0.617 OA 
HETATM   12  C   UNL     1     -13.603  13.698  72.517  1.00  0.00    -0.675 A  
HETATM   13  C   UNL     1     -13.136  12.671  71.692  1.00  0.00    -0.421 A  
HETATM   14  H   UNL     1     -14.288  15.776  73.807  1.00  0.00     0.000 HD 
ENDBRANCH   5   7
ENDBRANCH   4   5
ENDBRANCH   3   4
ENDBRANCH   2   3
TORSDOF 4
ENDMDL
MODEL       43
REMARK 921   NORMALIZED FREE ENERGY PREDICTED BY IDOCK:   -4.16 KCAL/MOL
REMARK 922        TOTAL FREE ENERGY PREDICTED BY IDOCK:   -5.57 KCAL/MOL
REMARK 923 INTER-LIGAND FREE ENERGY PREDICTED BY IDOCK:   -5.20 KCAL/MOL
REMARK 924 INTRA-LIGAND FREE ENERGY PREDICTED BY IDOCK:   -0.37 KCAL/MOL
REMARK 927      BINDING AFFINITY PREDICTED BY RF-SCORE:    0.00 PKD
ROOT
HETATM    1  C   UNL     1     -10.767  12.267  63.338  1.00  0.00    -0.438 C  
HETATM    2  C   UNL     1     -12.218  12.723  63.395  1.00  0.00    -0.594 C  
ENDROOT
BRANCH   2   3
HETATM    3  C   UNL     1     -12.343  13.992  64.228  1.00  0.00    -0.355 C  
BRANCH   3   4
HETATM    4  O   UNL     1     -12.851  13.722  65.541  1.00  0.00    -0.596 OA 
BRANCH   4   5
HETATM    5  C   UNL     1     -12.034  14.050  66.574  1.00  0.00    -0.444 C  
HETATM    6  O   UNL     1     -11.657  15.172  66.868  1.00  0.00    -0.285 OA 
BRANCH   5   7
HETATM    7  C   UNL     1     -11.710  12.837  67.375  1.00  0.00    -0.425 A  
HETATM    8  C   UNL     1     -11.183  11.679  66.781  1.00  0.00    -0.371 A  
HETATM    9  C   UNL     1     -10.987  10.522  67.542  1.00  0.00    -0.365 A  
HETATM   10  C   UNL     1     -11.315  10.529  68.894  1.00  0.00    -0.251 A  
HETATM   11  O   UNL     1     -11.164   9.415  69.665  1.00  0.00    -0.382 OA 
HETATM   12  C   UNL     1     -11.821  11.674  69.501  1.00  0.00    -0.414 A  
HETATM   13  C   UNL     1     -12.029  12.828  68.740  1.00  0.00    -0.278 A  
HETATM   14  H   UNL     1     -11.388   9.420  70.589  1.00  0.00     0.000 HD 
ENDBRANCH   5   7
ENDBRANCH   4   5
ENDBRANCH   3   4
ENDBRANCH   2   3
TORSDOF 4
ENDMDL
MODEL       44
REMARK 921   NORMALIZED FREE ENERGY PREDICTED BY IDOCK:   -4.16 KCAL/MOL
REMARK 922        TOTAL FREE ENERGY PREDICTED BY IDOCK:   -5.56 KCAL/MOL
REMARK 923 INTER-LIGAND FREE ENERGY PREDICTED BY IDOCK:   -5.34 KCAL/MOL
REMARK 924 INTRA-LIGAND FREE ENERGY PREDICTED BY IDOCK:   -0.23 KCAL/MOL
REMARK 927      BINDING AFFINITY PREDICTED BY RF-SCORE:    0.00 PKD
ROOT
HETATM    1  C   UNL     1     -10.307  18.868  66.253  1.00  0.00    -0.512 C  
HETATM    2  C   UNL     1     -10.437  18.878  67.769  1.00  0.00    -0.487 C  
ENDROOT
BRANCH   2   3
HETATM    3  C   UNL     1     -10.178  17.488  68.334  1.00  0.00    -0.372 C  
BRANCH   3   4
HETATM    4  O   UNL     1     -11.389  16.853  68.768  1.00  0.00    -0.167 OA 
BRANCH   4   5
HETATM    5  C   UNL     1     -11.520  15.541  68.449  1.00  0.00    -0.363 C  
HETATM    6  O   UNL     1     -11.222  15.023  67.386  1.00  0.00    -0.319 OA 
BRANCH   5   7
HETATM    7  C   UNL     1     -12.016  14.776  69.627  1.00  0.00    -0.360 A  
HETATM    8  C   UNL     1     -11.943  13.375  69.682  1.00  0.00    -0.386 A  
HETATM    9  C   UNL     1     -12.510  12.680  70.753  1.00  0.00    -0.357 A  
HETATM   10  C   UNL     1     -13.143  13.388  71.770  1.00  0.00    -0.388 A  
HETATM   11  O   UNL     1     -13.731  12.748  72.821  1.00  0.00    -0.696 OA 
HETATM   12  C   UNL     1     -13.207  14.778  71.740  1.00  0.00    -0.435 A  
HETATM   13  C   UNL     1     -12.651  15.474  70.663  1.00  0.00    -0.493 A  
HETATM   14  H   UNL     1     -14.163  13.231  73.515  1.00  0.00     0.000 HD 
ENDBRANCH   5   7
ENDBRANCH   4   5
ENDBRANCH   3   4
ENDBRANCH   2   3
TORSDOF 4
ENDMDL
MODEL       45
REMARK 921   NORMALIZED FREE ENERGY PREDICTED BY IDOCK:   -4.14 KCAL/MOL
REMARK 922        TOTAL FREE ENERGY PREDICTED BY IDOCK:   -5.54 KCAL/MOL
REMARK 923 INTER-LIGAND FREE ENERGY PREDICTED BY IDOCK:   -5.31 KCAL/MOL
REMARK 924 INTRA-LIGAND FREE ENERGY PREDICTED BY IDOCK:   -0.23 KCAL/MOL
REMARK 927      BINDING AFFINITY PREDICTED BY RF-SCORE:    0.00 PKD
ROOT
HETATM    1  C   UNL     1     -11.401  12.373  63.769  1.00  0.00    -0.536 C  
HETATM    2  C   UNL     1     -12.460  12.827  64.763  1.00  0.00    -0.539 C  
ENDROOT
BRANCH   2   3
HETATM    3  C   UNL     1     -12.061  14.154  65.395  1.00  0.00    -0.410 C  
BRANCH   3   4
HETATM    4  O   UNL     1     -12.375  14.196  66.793  1.00  0.00    -0.438 OA 
BRANCH   4   5
HETATM    5  C   UNL     1     -11.390  13.796  67.637  1.00  0.00    -0.304 C  
HETATM    6  O   UNL     1     -10.229  13.575  67.337  1.00  0.00    -0.234 OA 
BRANCH   5   7
HETATM    7  C   UNL     1     -11.905  13.739  69.034  1.00  0.00    -0.397 A  
HETATM    8  C   UNL     1     -11.988  12.530  69.742  1.00  0.00    -0.359 A  
HETATM    9  C   UNL     1     -12.571  12.494  71.011  1.00  0.00    -0.350 A  
HETATM   10  C   UNL     1     -13.066  13.668  71.571  1.00  0.00    -0.350 A  
HETATM   11  O   UNL     1     -13.666  13.672  72.795  1.00  0.00    -0.707 OA 
HETATM   12  C   UNL     1     -12.975  14.877  70.889  1.00  0.00    -0.436 A  
HETATM   13  C   UNL     1     -12.403  14.914  69.614  1.00  0.00    -0.244 A  
HETATM   14  H   UNL     1     -14.003  14.473  73.177  1.00  0.00     0.000 HD 
ENDBRANCH   5   7
ENDBRANCH   4   5
ENDBRANCH   3   4
ENDBRANCH   2   3
TORSDOF 4
ENDMDL
MODEL       46
REMARK 921   NORMALIZED FREE ENERGY PREDICTED BY IDOCK:   -4.14 KCAL/MOL
REMARK 922        TOTAL FREE ENERGY PREDICTED BY IDOCK:   -5.53 KCAL/MOL
REMARK 923 INTER-LIGAND FREE ENERGY PREDICTED BY IDOCK:   -5.26 KCAL/MOL
REMARK 924 INTRA-LIGAND FREE ENERGY PREDICTED BY IDOCK:   -0.28 KCAL/MOL
REMARK 927      BINDING AFFINITY PREDICTED BY RF-SCORE:    0.00 PKD
ROOT
HETATM    1  C   UNL     1     -10.296  19.731  65.965  1.00  0.00    -0.612 C  
HETATM    2  C   UNL     1     -10.486  19.164  67.364  1.00  0.00    -0.552 C  
ENDROOT
BRANCH   2   3
HETATM    3  C   UNL     1      -9.959  17.737  67.435  1.00  0.00    -0.323 C  
BRANCH   3   4
HETATM    4  O   UNL     1     -11.007  16.771  67.272  1.00  0.00    -0.195 OA 
BRANCH   4   5
HETATM    5  C   UNL     1     -10.906  15.962  66.188  1.00  0.00    -0.208 C  
HETATM    6  O   UNL     1     -10.645  16.311  65.049  1.00  0.00    -0.620 OA 
BRANCH   5   7
HETATM    7  C   UNL     1     -11.080  14.540  66.594  1.00  0.00    -0.333 A  
HETATM    8  C   UNL     1     -11.251  13.517  65.647  1.00  0.00    -0.304 A  
HETATM    9  C   UNL     1     -11.516  12.209  66.061  1.00  0.00    -0.427 A  
HETATM   10  C   UNL     1     -11.604  11.926  67.420  1.00  0.00    -0.297 A  
HETATM   11  O   UNL     1     -11.887  10.669  67.867  1.00  0.00    -0.738 OA 
HETATM   12  C   UNL     1     -11.420  12.925  68.372  1.00  0.00    -0.347 A  
HETATM   13  C   UNL     1     -11.167  14.236  67.959  1.00  0.00    -0.300 A  
HETATM   14  H   UNL     1     -11.948  10.476  68.795  1.00  0.00     0.000 HD 
ENDBRANCH   5   7
ENDBRANCH   4   5
ENDBRANCH   3   4
ENDBRANCH   2   3
TORSDOF 4
ENDMDL
MODEL       47
REMARK 921   NORMALIZED FREE ENERGY PREDICTED BY IDOCK:   -4.13 KCAL/MOL
REMARK 922        TOTAL FREE ENERGY PREDICTED BY IDOCK:   -5.52 KCAL/MOL
REMARK 923 INTER-LIGAND FREE ENERGY PREDICTED BY IDOCK:   -5.35 KCAL/MOL
REMARK 924 INTRA-LIGAND FREE ENERGY PREDICTED BY IDOCK:   -0.17 KCAL/MOL
REMARK 927      BINDING AFFINITY PREDICTED BY RF-SCORE:    0.00 PKD
ROOT
HETATM    1  C   UNL     1     -11.793   9.416  71.460  1.00  0.00    -0.456 C  
HETATM    2  C   UNL     1     -10.997  10.047  70.327  1.00  0.00    -0.377 C  
ENDROOT
BRANCH   2   3
HETATM    3  C   UNL     1     -11.899  10.923  69.468  1.00  0.00    -0.332 C  
BRANCH   3   4
HETATM    4  O   UNL     1     -11.144  11.792  68.614  1.00  0.00    -0.205 OA 
BRANCH   4   5
HETATM    5  C   UNL     1     -11.681  13.018  68.388  1.00  0.00    -0.351 C  
HETATM    6  O   UNL     1     -11.973  13.845  69.235  1.00  0.00    -0.321 OA 
BRANCH   5   7
HETATM    7  C   UNL     1     -11.796  13.263  66.923  1.00  0.00    -0.446 A  
HETATM    8  C   UNL     1     -12.006  14.551  66.404  1.00  0.00    -0.350 A  
HETATM    9  C   UNL     1     -12.213  14.734  65.034  1.00  0.00    -0.252 A  
HETATM   10  C   UNL     1     -12.205  13.631  64.187  1.00  0.00    -0.399 A  
HETATM   11  O   UNL     1     -12.429  13.762  62.848  1.00  0.00    -1.009 OA 
HETATM   12  C   UNL     1     -11.981  12.350  64.683  1.00  0.00    -0.462 A  
HETATM   13  C   UNL     1     -11.785  12.163  66.055  1.00  0.00    -0.388 A  
HETATM   14  H   UNL     1     -12.424  13.009  62.270  1.00  0.00     0.000 HD 
ENDBRANCH   5   7
ENDBRANCH   4   5
ENDBRANCH   3   4
ENDBRANCH   2   3
TORSDOF 4
ENDMDL
MODEL       48
REMARK 921   NORMALIZED FREE ENERGY PREDICTED BY IDOCK:   -4.11 KCAL/MOL
REMARK 922        TOTAL FREE ENERGY PREDICTED BY IDOCK:   -5.50 KCAL/MOL
REMARK 923 INTER-LIGAND FREE ENERGY PREDICTED BY IDOCK:   -5.30 KCAL/MOL
REMARK 924 INTRA-LIGAND FREE ENERGY PREDICTED BY IDOCK:   -0.20 KCAL/MOL
REMARK 927      BINDING AFFINITY PREDICTED BY RF-SCORE:    0.00 PKD
ROOT
HETATM    1  C   UNL     1     -10.360  10.875  64.689  1.00  0.00    -0.407 C  
HETATM    2  C   UNL     1     -10.783  11.456  66.030  1.00  0.00    -0.318 C  
ENDROOT
BRANCH   2   3
HETATM    3  C   UNL     1     -10.533  10.452  67.147  1.00  0.00    -0.256 C  
BRANCH   3   4
HETATM    4  O   UNL     1     -10.490  11.082  68.434  1.00  0.00    -0.165 OA 
BRANCH   4   5
HETATM    5  C   UNL     1     -10.031  10.317  69.456  1.00  0.00    -0.228 C  
HETATM    6  O   UNL     1      -8.870   9.999  69.655  1.00  0.00    -0.194 OA 
BRANCH   5   7
HETATM    7  C   UNL     1     -11.148   9.972  70.379  1.00  0.00    -0.393 A  
HETATM    8  C   UNL     1     -12.198  10.868  70.636  1.00  0.00    -0.472 A  
HETATM    9  C   UNL     1     -13.175  10.557  71.585  1.00  0.00    -0.493 A  
HETATM   10  C   UNL     1     -13.104   9.348  72.269  1.00  0.00    -0.428 A  
HETATM   11  O   UNL     1     -14.022   9.016  73.221  1.00  0.00    -1.205 OA 
HETATM   12  C   UNL     1     -12.080   8.441  72.013  1.00  0.00    -0.417 A  
HETATM   13  C   UNL     1     -11.095   8.755  71.073  1.00  0.00    -0.328 A  
HETATM   14  H   UNL     1     -13.973   8.191  73.689  1.00  0.00     0.000 HD 
ENDBRANCH   5   7
ENDBRANCH   4   5
ENDBRANCH   3   4
ENDBRANCH   2   3
TORSDOF 4
ENDMDL
MODEL       49
REMARK 921   NORMALIZED FREE ENERGY PREDICTED BY IDOCK:   -4.11 KCAL/MOL
REMARK 922        TOTAL FREE ENERGY PREDICTED BY IDOCK:   -5.50 KCAL/MOL
REMARK 923 INTER-LIGAND FREE ENERGY PREDICTED BY IDOCK:   -5.14 KCAL/MOL
REMARK 924 INTRA-LIGAND FREE ENERGY PREDICTED BY IDOCK:   -0.36 KCAL/MOL
REMARK 927      BINDING AFFINITY PREDICTED BY RF-SCORE:    0.00 PKD
ROOT
HETATM    1  C   UNL     1     -12.112  11.495  70.092  1.00  0.00    -0.432 C  
HETATM    2  C   UNL     1     -12.433  12.760  70.874  1.00  0.00    -0.373 C  
ENDROOT
BRANCH   2   3
HETATM    3  C   UNL     1     -12.209  13.992  70.006  1.00  0.00    -0.352 C  
BRANCH   3   4
HETATM    4  O   UNL     1     -11.177  13.780  69.033  1.00  0.00    -0.252 OA 
BRANCH   4   5
HETATM    5  C   UNL     1     -11.302  14.474  67.874  1.00  0.00    -0.310 C  
HETATM    6  O   UNL     1     -11.352  15.687  67.760  1.00  0.00    -0.326 OA 
BRANCH   5   7
HETATM    7  C   UNL     1     -11.289  13.538  66.714  1.00  0.00    -0.351 A  
HETATM    8  C   UNL     1     -10.163  12.756  66.409  1.00  0.00    -0.263 A  
HETATM    9  C   UNL     1     -10.144  11.967  65.256  1.00  0.00    -0.290 A  
HETATM   10  C   UNL     1     -11.252  11.956  64.415  1.00  0.00    -0.336 A  
HETATM   11  O   UNL     1     -11.265  11.220  63.268  1.00  0.00    -0.795 OA 
HETATM   12  C   UNL     1     -12.383  12.711  64.714  1.00  0.00    -0.556 A  
HETATM   13  C   UNL     1     -12.399  13.511  65.860  1.00  0.00    -0.507 A  
HETATM   14  H   UNL     1     -12.022  11.214  62.694  1.00  0.00     0.000 HD 
ENDBRANCH   5   7
ENDBRANCH   4   5
ENDBRANCH   3   4
ENDBRANCH   2   3
TORSDOF 4
ENDMDL
MODEL       50
REMARK 921   NORMALIZED FREE ENERGY PREDICTED BY IDOCK:   -4.10 KCAL/MOL
REMARK 922        TOTAL FREE ENERGY PREDICTED BY IDOCK:   -5.49 KCAL/MOL
REMARK 923 INTER-LIGAND FREE ENERGY PREDICTED BY IDOCK:   -5.32 KCAL/MOL
REMARK 924 INTRA-LIGAND FREE ENERGY PREDICTED BY IDOCK:   -0.17 KCAL/MOL
REMARK 927      BINDING AFFINITY PREDICTED BY RF-SCORE:    0.00 PKD
ROOT
HETATM    1  C   UNL     1     -12.822  14.022  71.652  1.00  0.00    -0.433 C  
HETATM    2  C   UNL     1     -12.185  15.403  71.597  1.00  0.00    -0.445 C  
ENDROOT
BRANCH   2   3
HETATM    3  C   UNL     1     -11.098  15.444  70.532  1.00  0.00    -0.335 C  
BRANCH   3   4
HETATM    4  O   UNL     1     -11.052  16.712  69.863  1.00  0.00    -0.305 OA 
BRANCH   4   5
HETATM    5  C   UNL     1     -10.821  16.671  68.527  1.00  0.00    -0.356 C  
HETATM    6  O   UNL     1     -11.266  15.851  67.742  1.00  0.00    -0.326 OA 
BRANCH   5   7
HETATM    7  C   UNL     1      -9.996  17.841  68.115  1.00  0.00    -0.342 A  
HETATM    8  C   UNL     1      -8.645  17.957  68.478  1.00  0.00    -0.298 A  
HETATM    9  C   UNL     1      -7.926  19.114  68.166  1.00  0.00    -0.339 A  
HETATM   10  C   UNL     1      -8.559  20.150  67.486  1.00  0.00    -0.336 A  
HETATM   11  O   UNL     1      -7.902  21.306  67.185  1.00  0.00    -0.713 OA 
HETATM   12  C   UNL     1      -9.892  20.043  67.103  1.00  0.00    -0.563 A  
HETATM   13  C   UNL     1     -10.616  18.892  67.425  1.00  0.00    -0.534 A  
HETATM   14  H   UNL     1      -8.334  22.013  66.721  1.00  0.00     0.000 HD 
ENDBRANCH   5   7
ENDBRANCH   4   5
ENDBRANCH   3   4
ENDBRANCH   2   3
TORSDOF 4
ENDMDL
MODEL       51
REMARK 921   NORMALIZED FREE ENERGY PREDICTED BY IDOCK:   -4.09 KCAL/MOL
REMARK 922        TOTAL FREE ENERGY PREDICTED BY IDOCK:   -5.47 KCAL/MOL
REMARK 923 INTER-LIGAND FREE ENERGY PREDICTED BY IDOCK:   -5.15 KCAL/MOL
REMARK 924 INTRA-LIGAND FREE ENERGY PREDICTED BY IDOCK:   -0.32 KCAL/MOL
REMARK 927      BINDING AFFINITY PREDICTED BY RF-SCORE:    0.00 PKD
ROOT
HETATM    1  C   UNL     1     -11.341  12.198  65.124  1.00  0.00    -0.379 C  
HETATM    2  C   UNL     1     -12.170  13.457  65.332  1.00  0.00    -0.492 C  
ENDROOT
BRANCH   2   3
HETATM    3  C   UNL     1     -11.460  14.409  66.286  1.00  0.00    -0.359 C  
BRANCH   3   4
HETATM    4  O   UNL     1     -12.081  14.434  67.578  1.00  0.00    -0.377 OA 
BRANCH   4   5
HETATM    5  C   UNL     1     -11.261  14.216  68.636  1.00  0.00    -0.266 C  
HETATM    6  O   UNL     1     -10.180  14.745  68.833  1.00  0.00    -0.227 OA 
BRANCH   5   7
HETATM    7  C   UNL     1     -11.906  13.279  69.598  1.00  0.00    -0.391 A  
HETATM    8  C   UNL     1     -12.651  13.743  70.694  1.00  0.00    -0.386 A  
HETATM    9  C   UNL     1     -13.156  12.843  71.637  1.00  0.00    -0.430 A  
HETATM   10  C   UNL     1     -12.920  11.481  71.477  1.00  0.00    -0.380 A  
HETATM   11  O   UNL     1     -13.372  10.571  72.386  1.00  0.00    -0.602 OA 
HETATM   12  C   UNL     1     -12.199  11.004  70.386  1.00  0.00    -0.461 A  
HETATM   13  C   UNL     1     -11.683  11.904  69.449  1.00  0.00    -0.401 A  
HETATM   14  H   UNL     1     -13.211   9.641  72.277  1.00  0.00     0.000 HD 
ENDBRANCH   5   7
ENDBRANCH   4   5
ENDBRANCH   3   4
ENDBRANCH   2   3
TORSDOF 4
ENDMDL
MODEL       52
REMARK 921   NORMALIZED FREE ENERGY PREDICTED BY IDOCK:   -4.06 KCAL/MOL
REMARK 922        TOTAL FREE ENERGY PREDICTED BY IDOCK:   -5.44 KCAL/MOL
REMARK 923 INTER-LIGAND FREE ENERGY PREDICTED BY IDOCK:   -5.16 KCAL/MOL
REMARK 924 INTRA-LIGAND FREE ENERGY PREDICTED BY IDOCK:   -0.28 KCAL/MOL
REMARK 927      BINDING AFFINITY PREDICTED BY RF-SCORE:    0.00 PKD
ROOT
HETATM    1  C   UNL     1      -8.461  19.488  68.208  1.00  0.00    -0.376 C  
HETATM    2  C   UNL     1      -9.952  19.512  67.909  1.00  0.00    -0.505 C  
ENDROOT
BRANCH   2   3
HETATM    3  C   UNL     1     -10.468  18.100  67.665  1.00  0.00    -0.416 C  
BRANCH   3   4
HETATM    4  O   UNL     1      -9.796  17.466  66.568  1.00  0.00    -0.278 OA 
BRANCH   4   5
HETATM    5  C   UNL     1      -9.368  16.197  66.786  1.00  0.00    -0.234 C  
HETATM    6  O   UNL     1      -8.380  15.867  67.420  1.00  0.00    -0.155 OA 
BRANCH   5   7
HETATM    7  C   UNL     1     -10.334  15.225  66.202  1.00  0.00    -0.314 A  
HETATM    8  C   UNL     1     -10.798  15.347  64.882  1.00  0.00    -0.445 A  
HETATM    9  C   UNL     1     -11.782  14.481  64.397  1.00  0.00    -0.381 A  
HETATM   10  C   UNL     1     -12.295  13.492  65.231  1.00  0.00    -0.467 A  
HETATM   11  O   UNL     1     -13.273  12.643  64.806  1.00  0.00    -0.846 OA 
HETATM   12  C   UNL     1     -11.832  13.347  66.535  1.00  0.00    -0.443 A  
HETATM   13  C   UNL     1     -10.857  14.219  67.026  1.00  0.00    -0.297 A  
HETATM   14  H   UNL     1     -13.623  11.968  65.376  1.00  0.00     0.000 HD 
ENDBRANCH   5   7
ENDBRANCH   4   5
ENDBRANCH   3   4
ENDBRANCH   2   3
TORSDOF 4
ENDMDL
MODEL       53
REMARK 921   NORMALIZED FREE ENERGY PREDICTED BY IDOCK:   -4.04 KCAL/MOL
REMARK 922        TOTAL FREE ENERGY PREDICTED BY IDOCK:   -5.41 KCAL/MOL
REMARK 923 INTER-LIGAND FREE ENERGY PREDICTED BY IDOCK:   -4.99 KCAL/MOL
REMARK 924 INTRA-LIGAND FREE ENERGY PREDICTED BY IDOCK:   -0.42 KCAL/MOL
REMARK 927      BINDING AFFINITY PREDICTED BY RF-SCORE:    0.00 PKD
ROOT
HETATM    1  C   UNL     1     -10.786  12.042  63.367  1.00  0.00    -0.475 C  
HETATM    2  C   UNL     1     -12.056  12.880  63.384  1.00  0.00    -0.610 C  
ENDROOT
BRANCH   2   3
HETATM    3  C   UNL     1     -12.812  12.671  64.689  1.00  0.00    -0.275 C  
BRANCH   3   4
HETATM    4  O   UNL     1     -12.802  13.848  65.508  1.00  0.00    -0.609 OA 
BRANCH   4   5
HETATM    5  C   UNL     1     -12.105  13.759  66.669  1.00  0.00    -0.429 C  
HETATM    6  O   UNL     1     -12.105  12.814  67.440  1.00  0.00    -0.382 OA 
BRANCH   5   7
HETATM    7  C   UNL     1     -11.251  14.966  66.846  1.00  0.00    -0.343 A  
HETATM    8  C   UNL     1     -11.384  15.808  67.962  1.00  0.00    -0.310 A  
HETATM    9  C   UNL     1     -10.641  16.989  68.048  1.00  0.00    -0.373 A  
HETATM   10  C   UNL     1      -9.762  17.320  67.022  1.00  0.00    -0.267 A  
HETATM   11  O   UNL     1      -9.038  18.475  67.054  1.00  0.00    -0.269 OA 
HETATM   12  C   UNL     1      -9.605  16.487  65.918  1.00  0.00    -0.284 A  
HETATM   13  C   UNL     1     -10.357  15.312  65.824  1.00  0.00    -0.364 A  
HETATM   14  H   UNL     1      -8.438  18.702  66.353  1.00  0.00     0.000 HD 
ENDBRANCH   5   7
ENDBRANCH   4   5
ENDBRANCH   3   4
ENDBRANCH   2   3
TORSDOF 4
ENDMDL
MODEL       54
REMARK 921   NORMALIZED FREE ENERGY PREDICTED BY IDOCK:   -4.02 KCAL/MOL
REMARK 922        TOTAL FREE ENERGY PREDICTED BY IDOCK:   -5.39 KCAL/MOL
REMARK 923 INTER-LIGAND FREE ENERGY PREDICTED BY IDOCK:   -5.11 KCAL/MOL
REMARK 924 INTRA-LIGAND FREE ENERGY PREDICTED BY IDOCK:   -0.28 KCAL/MOL
REMARK 927      BINDING AFFINITY PREDICTED BY RF-SCORE:    0.00 PKD
ROOT
HETATM    1  C   UNL     1      -8.487  10.484  64.515  1.00  0.00    -0.133 C  
HETATM    2  C   UNL     1      -9.677  10.349  63.576  1.00  0.00    -0.333 C  
ENDROOT
BRANCH   2   3
HETATM    3  C   UNL     1     -10.393  11.685  63.430  1.00  0.00    -0.435 C  
BRANCH   3   4
HETATM    4  O   UNL     1     -10.547  12.350  64.691  1.00  0.00    -0.281 OA 
BRANCH   4   5
HETATM    5  C   UNL     1     -11.821  12.629  65.065  1.00  0.00    -0.395 C  
HETATM    6  O   UNL     1     -12.811  12.568  64.356  1.00  0.00    -0.714 OA 
BRANCH   5   7
HETATM    7  C   UNL     1     -11.868  12.950  66.519  1.00  0.00    -0.473 A  
HETATM    8  C   UNL     1     -11.901  14.275  66.982  1.00  0.00    -0.455 A  
HETATM    9  C   UNL     1     -11.840  14.545  68.352  1.00  0.00    -0.351 A  
HETATM   10  C   UNL     1     -11.751  13.490  69.255  1.00  0.00    -0.330 A  
HETATM   11  O   UNL     1     -11.664  13.711  70.597  1.00  0.00    -0.509 OA 
HETATM   12  C   UNL     1     -11.736  12.171  68.812  1.00  0.00    -0.374 A  
HETATM   13  C   UNL     1     -11.785  11.898  67.442  1.00  0.00    -0.326 A  
HETATM   14  H   UNL     1     -11.603  12.990  71.213  1.00  0.00     0.000 HD 
ENDBRANCH   5   7
ENDBRANCH   4   5
ENDBRANCH   3   4
ENDBRANCH   2   3
TORSDOF 4
ENDMDL
MODEL       55
REMARK 921   NORMALIZED FREE ENERGY PREDICTED BY IDOCK:   -4.02 KCAL/MOL
REMARK 922        TOTAL FREE ENERGY PREDICTED BY IDOCK:   -5.39 KCAL/MOL
REMARK 923 INTER-LIGAND FREE ENERGY PREDICTED BY IDOCK:   -4.96 KCAL/MOL
REMARK 924 INTRA-LIGAND FREE ENERGY PREDICTED BY IDOCK:   -0.43 KCAL/MOL
REMARK 927      BINDING AFFINITY PREDICTED BY RF-SCORE:    0.00 PKD
ROOT
HETATM    1  C   UNL     1     -10.460  14.813  66.876  1.00  0.00    -0.277 C  
HETATM    2  C   UNL     1     -11.833  14.253  67.216  1.00  0.00    -0.444 C  
ENDROOT
BRANCH   2   3
HETATM    3  C   UNL     1     -12.642  14.021  65.947  1.00  0.00    -0.449 C  
BRANCH   3   4
HETATM    4  O   UNL     1     -12.513  12.676  65.468  1.00  0.00    -0.622 OA 
BRANCH   4   5
HETATM    5  C   UNL     1     -11.977  12.534  64.230  1.00  0.00    -0.408 C  
HETATM    6  O   UNL     1     -12.299  13.151  63.229  1.00  0.00    -0.712 OA 
BRANCH   5   7
HETATM    7  C   UNL     1     -10.855  11.554  64.268  1.00  0.00    -0.421 A  
HETATM    8  C   UNL     1     -10.055  11.304  63.142  1.00  0.00    -0.385 A  
HETATM    9  C   UNL     1      -9.078  10.305  63.178  1.00  0.00    -0.287 A  
HETATM   10  C   UNL     1      -8.901   9.563  64.341  1.00  0.00    -0.216 A  
HETATM   11  O   UNL     1      -7.978   8.562  64.411  1.00  0.00    -0.132 OA 
HETATM   12  C   UNL     1      -9.675   9.810  65.471  1.00  0.00    -0.382 A  
HETATM   13  C   UNL     1     -10.660  10.801  65.433  1.00  0.00    -0.224 A  
HETATM   14  H   UNL     1      -7.857   8.055  65.205  1.00  0.00     0.000 HD 
ENDBRANCH   5   7
ENDBRANCH   4   5
ENDBRANCH   3   4
ENDBRANCH   2   3
TORSDOF 4
ENDMDL
MODEL       56
REMARK 921   NORMALIZED FREE ENERGY PREDICTED BY IDOCK:   -4.01 KCAL/MOL
REMARK 922        TOTAL FREE ENERGY PREDICTED BY IDOCK:   -5.37 KCAL/MOL
REMARK 923 INTER-LIGAND FREE ENERGY PREDICTED BY IDOCK:   -4.92 KCAL/MOL
REMARK 924 INTRA-LIGAND FREE ENERGY PREDICTED BY IDOCK:   -0.45 KCAL/MOL
REMARK 927      BINDING AFFINITY PREDICTED BY RF-SCORE:    0.00 PKD
ROOT
HETATM    1  C   UNL     1     -12.735  11.956  63.628  1.00  0.00    -0.509 C  
HETATM    2  C   UNL     1     -11.889  13.214  63.489  1.00  0.00    -0.539 C  
ENDROOT
BRANCH   2   3
HETATM    3  C   UNL     1     -12.289  14.242  64.539  1.00  0.00    -0.410 C  
BRANCH   3   4
HETATM    4  O   UNL     1     -12.671  13.623  65.775  1.00  0.00    -0.471 OA 
BRANCH   4   5
HETATM    5  C   UNL     1     -11.897  13.915  66.850  1.00  0.00    -0.423 C  
HETATM    6  O   UNL     1     -11.537  15.026  67.201  1.00  0.00    -0.342 OA 
BRANCH   5   7
HETATM    7  C   UNL     1     -11.601  12.673  67.619  1.00  0.00    -0.414 A  
HETATM    8  C   UNL     1     -11.719  12.624  69.017  1.00  0.00    -0.367 A  
HETATM    9  C   UNL     1     -11.335  11.477  69.718  1.00  0.00    -0.303 A  
HETATM   10  C   UNL     1     -10.839  10.382  69.018  1.00  0.00    -0.234 A  
HETATM   11  O   UNL     1     -10.429   9.253  69.665  1.00  0.00    -0.208 OA 
HETATM   12  C   UNL     1     -10.733  10.408  67.631  1.00  0.00    -0.335 A  
HETATM   13  C   UNL     1     -11.105  11.558  66.929  1.00  0.00    -0.366 A  
HETATM   14  H   UNL     1     -10.090   8.506  69.187  1.00  0.00     0.000 HD 
ENDBRANCH   5   7
ENDBRANCH   4   5
ENDBRANCH   3   4
ENDBRANCH   2   3
TORSDOF 4
ENDMDL
MODEL       57
REMARK 921   NORMALIZED FREE ENERGY PREDICTED BY IDOCK:   -4.00 KCAL/MOL
REMARK 922        TOTAL FREE ENERGY PREDICTED BY IDOCK:   -5.37 KCAL/MOL
REMARK 923 INTER-LIGAND FREE ENERGY PREDICTED BY IDOCK:   -5.12 KCAL/MOL
REMARK 924 INTRA-LIGAND FREE ENERGY PREDICTED BY IDOCK:   -0.24 KCAL/MOL
REMARK 927      BINDING AFFINITY PREDICTED BY RF-SCORE:    0.00 PKD
ROOT
HETATM    1  C   UNL     1     -12.093  12.737  65.710  1.00  0.00    -0.505 C  
HETATM    2  C   UNL     1     -11.344  13.605  64.710  1.00  0.00    -0.365 C  
ENDROOT
BRANCH   2   3
HETATM    3  C   UNL     1     -10.208  14.351  65.398  1.00  0.00    -0.382 C  
BRANCH   3   4
HETATM    4  O   UNL     1     -10.491  15.750  65.532  1.00  0.00    -0.353 OA 
BRANCH   4   5
HETATM    5  C   UNL     1     -10.603  16.215  66.801  1.00  0.00    -0.277 C  
HETATM    6  O   UNL     1     -11.064  15.609  67.754  1.00  0.00    -0.314 OA 
BRANCH   5   7
HETATM    7  C   UNL     1      -9.999  17.573  66.904  1.00  0.00    -0.313 A  
HETATM    8  C   UNL     1     -10.453  18.644  66.118  1.00  0.00    -0.473 A  
HETATM    9  C   UNL     1      -9.798  19.878  66.161  1.00  0.00    -0.562 A  
HETATM   10  C   UNL     1      -8.695  20.039  66.994  1.00  0.00    -0.336 A  
HETATM   11  O   UNL     1      -8.012  21.218  67.047  1.00  0.00    -0.691 OA 
HETATM   12  C   UNL     1      -8.244  18.992  67.792  1.00  0.00    -0.305 A  
HETATM   13  C   UNL     1      -8.890  17.754  67.742  1.00  0.00    -0.249 A  
HETATM   14  H   UNL     1      -7.259  21.327  67.616  1.00  0.00     0.000 HD 
ENDBRANCH   5   7
ENDBRANCH   4   5
ENDBRANCH   3   4
ENDBRANCH   2   3
TORSDOF 4
ENDMDL
MODEL       58
REMARK 921   NORMALIZED FREE ENERGY PREDICTED BY IDOCK:   -3.95 KCAL/MOL
REMARK 922        TOTAL FREE ENERGY PREDICTED BY IDOCK:   -5.30 KCAL/MOL
REMARK 923 INTER-LIGAND FREE ENERGY PREDICTED BY IDOCK:   -5.07 KCAL/MOL
REMARK 924 INTRA-LIGAND FREE ENERGY PREDICTED BY IDOCK:   -0.23 KCAL/MOL
REMARK 927      BINDING AFFINITY PREDICTED BY RF-SCORE:    0.00 PKD
ROOT
HETATM    1  C   UNL     1     -10.083  10.617  65.673  1.00  0.00    -0.335 C  
HETATM    2  C   UNL     1      -9.503  11.504  66.765  1.00  0.00    -0.202 C  
ENDROOT
BRANCH   2   3
HETATM    3  C   UNL     1     -10.468  12.633  67.100  1.00  0.00    -0.235 C  
BRANCH   3   4
HETATM    4  O   UNL     1     -10.620  12.805  68.516  1.00  0.00    -0.244 OA 
BRANCH   4   5
HETATM    5  C   UNL     1     -11.759  12.302  69.056  1.00  0.00    -0.324 C  
HETATM    6  O   UNL     1     -12.269  11.226  68.794  1.00  0.00    -0.532 OA 
BRANCH   5   7
HETATM    7  C   UNL     1     -12.278  13.227  70.103  1.00  0.00    -0.376 A  
HETATM    8  C   UNL     1     -12.870  12.748  71.283  1.00  0.00    -0.355 A  
HETATM    9  C   UNL     1     -13.442  13.638  72.197  1.00  0.00    -0.606 A  
HETATM   10  C   UNL     1     -13.414  15.004  71.931  1.00  0.00    -0.402 A  
HETATM   11  O   UNL     1     -13.982  15.904  72.783  1.00  0.00    -0.581 OA 
HETATM   12  C   UNL     1     -12.815  15.495  70.775  1.00  0.00    -0.513 A  
HETATM   13  C   UNL     1     -12.254  14.605  69.854  1.00  0.00    -0.365 A  
HETATM   14  H   UNL     1     -13.963  16.836  72.602  1.00  0.00     0.000 HD 
ENDBRANCH   5   7
ENDBRANCH   4   5
ENDBRANCH   3   4
ENDBRANCH   2   3
TORSDOF 4
ENDMDL
MODEL       59
REMARK 921   NORMALIZED FREE ENERGY PREDICTED BY IDOCK:   -3.94 KCAL/MOL
REMARK 922        TOTAL FREE ENERGY PREDICTED BY IDOCK:   -5.29 KCAL/MOL
REMARK 923 INTER-LIGAND FREE ENERGY PREDICTED BY IDOCK:   -5.04 KCAL/MOL
REMARK 924 INTRA-LIGAND FREE ENERGY PREDICTED BY IDOCK:   -0.26 KCAL/MOL
REMARK 927      BINDING AFFINITY PREDICTED BY RF-SCORE:    0.00 PKD
ROOT
HETATM    1  C   UNL     1     -10.773  11.794  63.679  1.00  0.00    -0.503 C  
HETATM    2  C   UNL     1     -12.037  12.537  63.273  1.00  0.00    -0.525 C  
ENDROOT
BRANCH   2   3
HETATM    3  C   UNL     1     -12.136  13.862  64.018  1.00  0.00    -0.396 C  
BRANCH   3   4
HETATM    4  O   UNL     1     -11.190  13.945  65.092  1.00  0.00    -0.307 OA 
BRANCH   4   5
HETATM    5  C   UNL     1     -10.854  15.197  65.493  1.00  0.00    -0.364 C  
HETATM    6  O   UNL     1     -10.487  16.111  64.775  1.00  0.00    -0.592 OA 
BRANCH   5   7
HETATM    7  C   UNL     1     -11.075  15.339  66.960  1.00  0.00    -0.305 A  
HETATM    8  C   UNL     1     -10.543  16.418  67.685  1.00  0.00    -0.313 A  
HETATM    9  C   UNL     1     -10.679  16.469  69.075  1.00  0.00    -0.332 A  
HETATM   10  C   UNL     1     -11.352  15.444  69.735  1.00  0.00    -0.306 A  
HETATM   11  O   UNL     1     -11.485  15.442  71.092  1.00  0.00    -0.316 OA 
HETATM   12  C   UNL     1     -11.900  14.378  69.028  1.00  0.00    -0.358 A  
HETATM   13  C   UNL     1     -11.754  14.319  67.639  1.00  0.00    -0.421 A  
HETATM   14  H   UNL     1     -11.943  14.743  71.542  1.00  0.00     0.000 HD 
ENDBRANCH   5   7
ENDBRANCH   4   5
ENDBRANCH   3   4
ENDBRANCH   2   3
TORSDOF 4
ENDMDL
MODEL       60
REMARK 921   NORMALIZED FREE ENERGY PREDICTED BY IDOCK:   -3.94 KCAL/MOL
REMARK 922        TOTAL FREE ENERGY PREDICTED BY IDOCK:   -5.28 KCAL/MOL
REMARK 923 INTER-LIGAND FREE ENERGY PREDICTED BY IDOCK:   -4.97 KCAL/MOL
REMARK 924 INTRA-LIGAND FREE ENERGY PREDICTED BY IDOCK:   -0.32 KCAL/MOL
REMARK 927      BINDING AFFINITY PREDICTED BY RF-SCORE:    0.00 PKD
ROOT
HETATM    1  C   UNL     1     -11.899   7.201  71.067  1.00  0.00    -0.373 C  
HETATM    2  C   UNL     1     -13.267   7.624  71.581  1.00  0.00    -0.395 C  
ENDROOT
BRANCH   2   3
HETATM    3  C   UNL     1     -13.194   9.012  72.203  1.00  0.00    -0.446 C  
BRANCH   3   4
HETATM    4  O   UNL     1     -12.322   9.883  71.469  1.00  0.00    -0.359 OA 
BRANCH   4   5
HETATM    5  C   UNL     1     -12.714  11.178  71.378  1.00  0.00    -0.418 C  
HETATM    6  O   UNL     1     -13.379  11.791  72.196  1.00  0.00    -0.497 OA 
BRANCH   5   7
HETATM    7  C   UNL     1     -12.142  11.800  70.151  1.00  0.00    -0.398 A  
HETATM    8  C   UNL     1     -11.983  13.190  70.032  1.00  0.00    -0.391 A  
HETATM    9  C   UNL     1     -11.541  13.750  68.830  1.00  0.00    -0.358 A  
HETATM   10  C   UNL     1     -11.254  12.918  67.753  1.00  0.00    -0.280 A  
HETATM   11  O   UNL     1     -10.845  13.424  66.555  1.00  0.00    -0.280 OA 
HETATM   12  C   UNL     1     -11.389  11.537  67.861  1.00  0.00    -0.372 A  
HETATM   13  C   UNL     1     -11.842  10.976  69.058  1.00  0.00    -0.399 A  
HETATM   14  H   UNL     1     -10.649  12.856  65.819  1.00  0.00     0.000 HD 
ENDBRANCH   5   7
ENDBRANCH   4   5
ENDBRANCH   3   4
ENDBRANCH   2   3
TORSDOF 4
ENDMDL
MODEL       61
REMARK 921   NORMALIZED FREE ENERGY PREDICTED BY IDOCK:   -3.89 KCAL/MOL
REMARK 922        TOTAL FREE ENERGY PREDICTED BY IDOCK:   -5.23 KCAL/MOL
REMARK 923 INTER-LIGAND FREE ENERGY PREDICTED BY IDOCK:   -4.99 KCAL/MOL
REMARK 924 INTRA-LIGAND FREE ENERGY PREDICTED BY IDOCK:   -0.24 KCAL/MOL
REMARK 927      BINDING AFFINITY PREDICTED BY RF-SCORE:    0.00 PKD
ROOT
HETATM    1  C   UNL     1      -6.761  14.199  69.821  1.00  0.00    -0.065 C  
HETATM    2  C   UNL     1      -7.489  15.074  68.811  1.00  0.00    -0.133 C  
ENDROOT
BRANCH   2   3
HETATM    3  C   UNL     1      -8.856  15.478  69.346  1.00  0.00    -0.257 C  
BRANCH   3   4
HETATM    4  O   UNL     1      -9.865  14.513  69.021  1.00  0.00    -0.208 OA 
BRANCH   4   5
HETATM    5  C   UNL     1     -11.071  15.014  68.653  1.00  0.00    -0.264 C  
HETATM    6  O   UNL     1     -11.843  15.634  69.364  1.00  0.00    -0.355 OA 
BRANCH   5   7
HETATM    7  C   UNL     1     -11.302  14.772  67.201  1.00  0.00    -0.363 A  
HETATM    8  C   UNL     1     -10.763  15.615  66.216  1.00  0.00    -0.295 A  
HETATM    9  C   UNL     1     -11.083  15.424  64.870  1.00  0.00    -0.435 A  
HETATM   10  C   UNL     1     -11.938  14.386  64.511  1.00  0.00    -0.472 A  
HETATM   11  O   UNL     1     -12.297  14.180  63.212  1.00  0.00    -1.140 OA 
HETATM   12  C   UNL     1     -12.466  13.531  65.473  1.00  0.00    -0.538 A  
HETATM   13  C   UNL     1     -12.157  13.728  66.821  1.00  0.00    -0.460 A  
HETATM   14  H   UNL     1     -12.880  13.472  62.967  1.00  0.00     0.000 HD 
ENDBRANCH   5   7
ENDBRANCH   4   5
ENDBRANCH   3   4
ENDBRANCH   2   3
TORSDOF 4
ENDMDL
MODEL       62
REMARK 921   NORMALIZED FREE ENERGY PREDICTED BY IDOCK:   -3.89 KCAL/MOL
REMARK 922        TOTAL FREE ENERGY PREDICTED BY IDOCK:   -5.23 KCAL/MOL
REMARK 923 INTER-LIGAND FREE ENERGY PREDICTED BY IDOCK:   -5.06 KCAL/MOL
REMARK 924 INTRA-LIGAND FREE ENERGY PREDICTED BY IDOCK:   -0.17 KCAL/MOL
REMARK 927      BINDING AFFINITY PREDICTED BY RF-SCORE:    0.00 PKD
ROOT
HETATM    1  C   UNL     1      -9.741  18.248  67.553  1.00  0.00    -0.305 C  
HETATM    2  C   UNL     1     -10.754  17.124  67.715  1.00  0.00    -0.329 C  
ENDROOT
BRANCH   2   3
HETATM    3  C   UNL     1     -10.832  16.684  69.170  1.00  0.00    -0.315 C  
BRANCH   3   4
HETATM    4  O   UNL     1     -12.021  15.930  69.439  1.00  0.00    -0.354 OA 
BRANCH   4   5
HETATM    5  C   UNL     1     -12.170  15.487  70.713  1.00  0.00    -0.403 C  
HETATM    6  O   UNL     1     -12.214  16.178  71.717  1.00  0.00    -0.469 OA 
BRANCH   5   7
HETATM    7  C   UNL     1     -12.359  14.010  70.722  1.00  0.00    -0.443 A  
HETATM    8  C   UNL     1     -12.973  13.350  71.798  1.00  0.00    -0.435 A  
HETATM    9  C   UNL     1     -13.043  11.954  71.824  1.00  0.00    -0.465 A  
HETATM   10  C   UNL     1     -12.504  11.223  70.771  1.00  0.00    -0.376 A  
HETATM   11  O   UNL     1     -12.528   9.860  70.769  1.00  0.00    -0.367 OA 
HETATM   12  C   UNL     1     -11.908  11.862  69.688  1.00  0.00    -0.406 A  
HETATM   13  C   UNL     1     -11.826  13.258  69.666  1.00  0.00    -0.391 A  
HETATM   14  H   UNL     1     -12.159   9.360  70.049  1.00  0.00     0.000 HD 
ENDBRANCH   5   7
ENDBRANCH   4   5
ENDBRANCH   3   4
ENDBRANCH   2   3
TORSDOF 4
ENDMDL
MODEL       63
REMARK 921   NORMALIZED FREE ENERGY PREDICTED BY IDOCK:   -3.88 KCAL/MOL
REMARK 922        TOTAL FREE ENERGY PREDICTED BY IDOCK:   -5.21 KCAL/MOL
REMARK 923 INTER-LIGAND FREE ENERGY PREDICTED BY IDOCK:   -5.00 KCAL/MOL
REMARK 924 INTRA-LIGAND FREE ENERGY PREDICTED BY IDOCK:   -0.21 KCAL/MOL
REMARK 927      BINDING AFFINITY PREDICTED BY RF-SCORE:    0.00 PKD
ROOT
HETATM    1  C   UNL     1     -10.455   5.384  70.963  1.00  0.00    -0.302 C  
HETATM    2  C   UNL     1     -11.455   6.240  71.725  1.00  0.00    -0.355 C  
ENDROOT
BRANCH   2   3
HETATM    3  C   UNL     1     -12.001   7.344  70.830  1.00  0.00    -0.277 C  
BRANCH   3   4
HETATM    4  O   UNL     1     -11.644   8.647  71.310  1.00  0.00    -0.264 OA 
BRANCH   4   5
HETATM    5  C   UNL     1     -12.658   9.393  71.817  1.00  0.00    -0.387 C  
HETATM    6  O   UNL     1     -13.505   9.017  72.609  1.00  0.00    -0.463 OA 
BRANCH   5   7
HETATM    7  C   UNL     1     -12.553  10.797  71.329  1.00  0.00    -0.532 A  
HETATM    8  C   UNL     1     -13.183  11.859  71.996  1.00  0.00    -0.461 A  
HETATM    9  C   UNL     1     -13.153  13.148  71.456  1.00  0.00    -0.404 A  
HETATM   10  C   UNL     1     -12.488  13.372  70.255  1.00  0.00    -0.215 A  
HETATM   11  O   UNL     1     -12.456  14.608  69.681  1.00  0.00    -0.509 OA 
HETATM   12  C   UNL     1     -11.843  12.333  69.591  1.00  0.00    -0.393 A  
HETATM   13  C   UNL     1     -11.882  11.040  70.123  1.00  0.00    -0.441 A  
HETATM   14  H   UNL     1     -12.002  14.761  68.860  1.00  0.00     0.000 HD 
ENDBRANCH   5   7
ENDBRANCH   4   5
ENDBRANCH   3   4
ENDBRANCH   2   3
TORSDOF 4
ENDMDL
MODEL       64
REMARK 921   NORMALIZED FREE ENERGY PREDICTED BY IDOCK:   -3.86 KCAL/MOL
REMARK 922        TOTAL FREE ENERGY PREDICTED BY IDOCK:   -5.19 KCAL/MOL
REMARK 923 INTER-LIGAND FREE ENERGY PREDICTED BY IDOCK:   -4.71 KCAL/MOL
REMARK 924 INTRA-LIGAND FREE ENERGY PREDICTED BY IDOCK:   -0.48 KCAL/MOL
REMARK 927      BINDING AFFINITY PREDICTED BY RF-SCORE:    0.00 PKD
ROOT
HETATM    1  C   UNL     1      -6.909  12.710  67.646  1.00  0.00    -0.144 C  
HETATM    2  C   UNL     1      -7.763  11.504  67.285  1.00  0.00    -0.150 C  
ENDROOT
BRANCH   2   3
HETATM    3  C   UNL     1      -8.908  11.347  68.277  1.00  0.00    -0.167 C  
BRANCH   3   4
HETATM    4  O   UNL     1     -10.158  11.780  67.724  1.00  0.00    -0.183 OA 
BRANCH   4   5
HETATM    5  C   UNL     1     -10.580  13.012  68.102  1.00  0.00    -0.245 C  
HETATM    6  O   UNL     1     -10.791  13.384  69.244  1.00  0.00    -0.167 OA 
BRANCH   5   7
HETATM    7  C   UNL     1     -10.678  13.906  66.914  1.00  0.00    -0.284 A  
HETATM    8  C   UNL     1      -9.904  15.072  66.801  1.00  0.00    -0.252 A  
HETATM    9  C   UNL     1     -10.093  15.943  65.724  1.00  0.00    -0.389 A  
HETATM   10  C   UNL     1     -11.052  15.643  64.762  1.00  0.00    -0.412 A  
HETATM   11  O   UNL     1     -11.287  16.479  63.711  1.00  0.00    -1.553 OA 
HETATM   12  C   UNL     1     -11.815  14.483  64.851  1.00  0.00    -0.417 A  
HETATM   13  C   UNL     1     -11.636  13.616  65.933  1.00  0.00    -0.346 A  
HETATM   14  H   UNL     1     -11.942  16.274  63.054  1.00  0.00     0.000 HD 
ENDBRANCH   5   7
ENDBRANCH   4   5
ENDBRANCH   3   4
ENDBRANCH   2   3
TORSDOF 4
ENDMDL
MODEL       65
REMARK 921   NORMALIZED FREE ENERGY PREDICTED BY IDOCK:   -3.82 KCAL/MOL
REMARK 922        TOTAL FREE ENERGY PREDICTED BY IDOCK:   -5.14 KCAL/MOL
REMARK 923 INTER-LIGAND FREE ENERGY PREDICTED BY IDOCK:   -4.87 KCAL/MOL
REMARK 924 INTRA-LIGAND FREE ENERGY PREDICTED BY IDOCK:   -0.27 KCAL/MOL
REMARK 927      BINDING AFFINITY PREDICTED BY RF-SCORE:    0.00 PKD
ROOT
HETATM    1  C   UNL     1      -6.679  16.004  69.531  1.00  0.00    -0.199 C  
HETATM    2  C   UNL     1      -7.703  16.867  68.808  1.00  0.00    -0.247 C  
ENDROOT
BRANCH   2   3
HETATM    3  C   UNL     1      -7.438  16.862  67.309  1.00  0.00    -0.166 C  
BRANCH   3   4
HETATM    4  O   UNL     1      -8.350  16.007  66.607  1.00  0.00    -0.239 OA 
BRANCH   4   5
HETATM    5  C   UNL     1      -9.494  16.590  66.169  1.00  0.00    -0.315 C  
HETATM    6  O   UNL     1      -9.661  17.777  65.947  1.00  0.00    -0.517 OA 
BRANCH   5   7
HETATM    7  C   UNL     1     -10.530  15.551  65.909  1.00  0.00    -0.356 A  
HETATM    8  C   UNL     1     -10.768  14.503  66.812  1.00  0.00    -0.291 A  
HETATM    9  C   UNL     1     -11.672  13.486  66.491  1.00  0.00    -0.408 A  
HETATM   10  C   UNL     1     -12.340  13.524  65.271  1.00  0.00    -0.467 A  
HETATM   11  O   UNL     1     -13.210  12.540  64.908  1.00  0.00    -0.787 OA 
HETATM   12  C   UNL     1     -12.128  14.566  64.373  1.00  0.00    -0.492 A  
HETATM   13  C   UNL     1     -11.215  15.577  64.686  1.00  0.00    -0.381 A  
HETATM   14  H   UNL     1     -13.666  12.565  64.074  1.00  0.00     0.000 HD 
ENDBRANCH   5   7
ENDBRANCH   4   5
ENDBRANCH   3   4
ENDBRANCH   2   3
TORSDOF 4
ENDMDL
MODEL       66
REMARK 921   NORMALIZED FREE ENERGY PREDICTED BY IDOCK:   -3.81 KCAL/MOL
REMARK 922        TOTAL FREE ENERGY PREDICTED BY IDOCK:   -5.13 KCAL/MOL
REMARK 923 INTER-LIGAND FREE ENERGY PREDICTED BY IDOCK:   -4.74 KCAL/MOL
REMARK 924 INTRA-LIGAND FREE ENERGY PREDICTED BY IDOCK:   -0.38 KCAL/MOL
REMARK 927      BINDING AFFINITY PREDICTED BY RF-SCORE:    0.00 PKD
ROOT
HETATM    1  C   UNL     1     -12.250  10.314  70.870  1.00  0.00    -0.465 C  
HETATM    2  C   UNL     1     -10.920  10.001  70.200  1.00  0.00    -0.368 C  
ENDROOT
BRANCH   2   3
HETATM    3  C   UNL     1     -10.823  10.709  68.855  1.00  0.00    -0.231 C  
BRANCH   3   4
HETATM    4  O   UNL     1     -12.014  11.446  68.551  1.00  0.00    -0.498 OA 
BRANCH   4   5
HETATM    5  C   UNL     1     -11.902  12.382  67.576  1.00  0.00    -0.284 C  
HETATM    6  O   UNL     1     -12.142  12.222  66.391  1.00  0.00    -0.623 OA 
BRANCH   5   7
HETATM    7  C   UNL     1     -11.513  13.693  68.167  1.00  0.00    -0.348 A  
HETATM    8  C   UNL     1     -12.130  14.193  69.325  1.00  0.00    -0.364 A  
HETATM    9  C   UNL     1     -11.818  15.472  69.795  1.00  0.00    -0.376 A  
HETATM   10  C   UNL     1     -10.884  16.243  69.110  1.00  0.00    -0.314 A  
HETATM   11  O   UNL     1     -10.569  17.505  69.521  1.00  0.00    -0.380 OA 
HETATM   12  C   UNL     1     -10.251  15.755  67.972  1.00  0.00    -0.229 A  
HETATM   13  C   UNL     1     -10.571  14.481  67.493  1.00  0.00    -0.262 A  
HETATM   14  H   UNL     1      -9.932  18.032  69.053  1.00  0.00     0.000 HD 
ENDBRANCH   5   7
ENDBRANCH   4   5
ENDBRANCH   3   4
ENDBRANCH   2   3
TORSDOF 4
ENDMDL
MODEL       67
REMARK 921   NORMALIZED FREE ENERGY PREDICTED BY IDOCK:   -3.80 KCAL/MOL
REMARK 922        TOTAL FREE ENERGY PREDICTED BY IDOCK:   -5.12 KCAL/MOL
REMARK 923 INTER-LIGAND FREE ENERGY PREDICTED BY IDOCK:   -4.86 KCAL/MOL
REMARK 924 INTRA-LIGAND FREE ENERGY PREDICTED BY IDOCK:   -0.26 KCAL/MOL
REMARK 927      BINDING AFFINITY PREDICTED BY RF-SCORE:    0.00 PKD
ROOT
HETATM    1  C   UNL     1      -8.075  10.120  69.667  1.00  0.00    -0.178 C  
HETATM    2  C   UNL     1      -7.740  10.546  68.245  1.00  0.00    -0.101 C  
ENDROOT
BRANCH   2   3
HETATM    3  C   UNL     1      -8.541  11.782  67.858  1.00  0.00    -0.156 C  
BRANCH   3   4
HETATM    4  O   UNL     1      -9.938  11.624  68.139  1.00  0.00    -0.182 OA 
BRANCH   4   5
HETATM    5  C   UNL     1     -10.626  10.811  67.298  1.00  0.00    -0.257 C  
HETATM    6  O   UNL     1     -10.864   9.628  67.471  1.00  0.00    -0.286 OA 
BRANCH   5   7
HETATM    7  C   UNL     1     -11.140  11.593  66.139  1.00  0.00    -0.335 A  
HETATM    8  C   UNL     1     -10.835  11.239  64.815  1.00  0.00    -0.314 A  
HETATM    9  C   UNL     1     -11.245  12.051  63.755  1.00  0.00    -0.516 A  
HETATM   10  C   UNL     1     -11.965  13.212  64.020  1.00  0.00    -0.460 A  
HETATM   11  O   UNL     1     -12.362  14.045  63.017  1.00  0.00    -1.101 OA 
HETATM   12  C   UNL     1     -12.291  13.567  65.325  1.00  0.00    -0.506 A  
HETATM   13  C   UNL     1     -11.871  12.762  66.389  1.00  0.00    -0.472 A  
HETATM   14  H   UNL     1     -12.853  14.838  63.199  1.00  0.00     0.000 HD 
ENDBRANCH   5   7
ENDBRANCH   4   5
ENDBRANCH   3   4
ENDBRANCH   2   3
TORSDOF 4
ENDMDL
MODEL       68
REMARK 921   NORMALIZED FREE ENERGY PREDICTED BY IDOCK:   -3.79 KCAL/MOL
REMARK 922        TOTAL FREE ENERGY PREDICTED BY IDOCK:   -5.10 KCAL/MOL
REMARK 923 INTER-LIGAND FREE ENERGY PREDICTED BY IDOCK:   -4.61 KCAL/MOL
REMARK 924 INTRA-LIGAND FREE ENERGY PREDICTED BY IDOCK:   -0.49 KCAL/MOL
REMARK 927      BINDING AFFINITY PREDICTED BY RF-SCORE:    0.00 PKD
ROOT
HETATM    1  C   UNL     1     -12.389  12.421  63.940  1.00  0.00    -0.602 C  
HETATM    2  C   UNL     1     -11.919  13.741  64.534  1.00  0.00    -0.458 C  
ENDROOT
BRANCH   2   3
HETATM    3  C   UNL     1     -12.382  13.867  65.980  1.00  0.00    -0.475 C  
BRANCH   3   4
HETATM    4  O   UNL     1     -12.303  12.617  66.678  1.00  0.00    -0.474 OA 
BRANCH   4   5
HETATM    5  C   UNL     1     -11.168  12.404  67.389  1.00  0.00    -0.297 C  
HETATM    6  O   UNL     1     -10.721  13.122  68.268  1.00  0.00    -0.230 OA 
BRANCH   5   7
HETATM    7  C   UNL     1     -10.561  11.099  67.005  1.00  0.00    -0.295 A  
HETATM    8  C   UNL     1      -9.714  10.977  65.892  1.00  0.00    -0.267 A  
HETATM    9  C   UNL     1      -9.244   9.722  65.496  1.00  0.00    -0.270 A  
HETATM   10  C   UNL     1      -9.619   8.593  66.217  1.00  0.00    -0.252 A  
HETATM   11  O   UNL     1      -9.205   7.347  65.849  1.00  0.00    -0.359 OA 
HETATM   12  C   UNL     1     -10.444   8.698  67.333  1.00  0.00    -0.351 A  
HETATM   13  C   UNL     1     -10.924   9.952  67.723  1.00  0.00    -0.278 A  
HETATM   14  H   UNL     1      -9.461   6.576  66.342  1.00  0.00     0.000 HD 
ENDBRANCH   5   7
ENDBRANCH   4   5
ENDBRANCH   3   4
ENDBRANCH   2   3
TORSDOF 4
ENDMDL
MODEL       69
REMARK 921   NORMALIZED FREE ENERGY PREDICTED BY IDOCK:   -3.78 KCAL/MOL
REMARK 922        TOTAL FREE ENERGY PREDICTED BY IDOCK:   -5.10 KCAL/MOL
REMARK 923 INTER-LIGAND FREE ENERGY PREDICTED BY IDOCK:   -4.66 KCAL/MOL
REMARK 924 INTRA-LIGAND FREE ENERGY PREDICTED BY IDOCK:   -0.44 KCAL/MOL
REMARK 927      BINDING AFFINITY PREDICTED BY RF-SCORE:    0.00 PKD
ROOT
HETATM    1  C   UNL     1     -11.793  11.616  69.628  1.00  0.00    -0.419 C  
HETATM    2  C   UNL     1     -12.351  12.438  70.781  1.00  0.00    -0.377 C  
ENDROOT
BRANCH   2   3
HETATM    3  C   UNL     1     -13.147  11.551  71.729  1.00  0.00    -0.398 C  
BRANCH   3   4
HETATM    4  O   UNL     1     -13.377  10.248  71.177  1.00  0.00    -0.361 OA 
BRANCH   4   5
HETATM    5  C   UNL     1     -13.344   9.215  72.056  1.00  0.00    -0.445 C  
HETATM    6  O   UNL     1     -14.168   8.979  72.923  1.00  0.00    -0.528 OA 
BRANCH   5   7
HETATM    7  C   UNL     1     -12.180   8.333  71.764  1.00  0.00    -0.367 A  
HETATM    8  C   UNL     1     -10.883   8.657  72.191  1.00  0.00    -0.424 A  
HETATM    9  C   UNL     1      -9.796   7.863  71.813  1.00  0.00    -0.223 A  
HETATM   10  C   UNL     1     -10.011   6.745  71.013  1.00  0.00    -0.182 A  
HETATM   11  O   UNL     1      -8.977   5.958  70.600  1.00  0.00    -0.142 OA 
HETATM   12  C   UNL     1     -11.294   6.400  70.597  1.00  0.00    -0.419 A  
HETATM   13  C   UNL     1     -12.380   7.200  70.964  1.00  0.00    -0.376 A  
HETATM   14  H   UNL     1      -9.124   5.195  70.054  1.00  0.00     0.000 HD 
ENDBRANCH   5   7
ENDBRANCH   4   5
ENDBRANCH   3   4
ENDBRANCH   2   3
TORSDOF 4
ENDMDL
MODEL       70
REMARK 921   NORMALIZED FREE ENERGY PREDICTED BY IDOCK:   -3.78 KCAL/MOL
REMARK 922        TOTAL FREE ENERGY PREDICTED BY IDOCK:   -5.09 KCAL/MOL
REMARK 923 INTER-LIGAND FREE ENERGY PREDICTED BY IDOCK:   -4.82 KCAL/MOL
REMARK 924 INTRA-LIGAND FREE ENERGY PREDICTED BY IDOCK:   -0.27 KCAL/MOL
REMARK 927      BINDING AFFINITY PREDICTED BY RF-SCORE:    0.00 PKD
ROOT
HETATM    1  C   UNL     1     -10.662  12.917  68.151  1.00  0.00    -0.258 C  
HETATM    2  C   UNL     1     -11.665  14.058  68.077  1.00  0.00    -0.394 C  
ENDROOT
BRANCH   2   3
HETATM    3  C   UNL     1     -10.951  15.400  68.170  1.00  0.00    -0.297 C  
BRANCH   3   4
HETATM    4  O   UNL     1      -9.875  15.500  67.228  1.00  0.00    -0.222 OA 
BRANCH   4   5
HETATM    5  C   UNL     1     -10.107  16.279  66.141  1.00  0.00    -0.344 C  
HETATM    6  O   UNL     1     -10.780  15.981  65.169  1.00  0.00    -0.444 OA 
BRANCH   5   7
HETATM    7  C   UNL     1      -9.482  17.618  66.330  1.00  0.00    -0.232 A  
HETATM    8  C   UNL     1      -8.090  17.777  66.428  1.00  0.00    -0.296 A  
HETATM    9  C   UNL     1      -7.541  19.031  66.708  1.00  0.00    -0.245 A  
HETATM   10  C   UNL     1      -8.383  20.123  66.884  1.00  0.00    -0.315 A  
HETATM   11  O   UNL     1      -7.890  21.358  67.184  1.00  0.00    -0.736 OA 
HETATM   12  C   UNL     1      -9.764  19.986  66.772  1.00  0.00    -0.563 A  
HETATM   13  C   UNL     1     -10.316  18.731  66.504  1.00  0.00    -0.475 A  
HETATM   14  H   UNL     1      -8.466  22.104  67.305  1.00  0.00     0.000 HD 
ENDBRANCH   5   7
ENDBRANCH   4   5
ENDBRANCH   3   4
ENDBRANCH   2   3
TORSDOF 4
ENDMDL
MODEL       71
REMARK 921   NORMALIZED FREE ENERGY PREDICTED BY IDOCK:   -3.78 KCAL/MOL
REMARK 922        TOTAL FREE ENERGY PREDICTED BY IDOCK:   -5.09 KCAL/MOL
REMARK 923 INTER-LIGAND FREE ENERGY PREDICTED BY IDOCK:   -4.82 KCAL/MOL
REMARK 924 INTRA-LIGAND FREE ENERGY PREDICTED BY IDOCK:   -0.26 KCAL/MOL
REMARK 927      BINDING AFFINITY PREDICTED BY RF-SCORE:    0.00 PKD
ROOT
HETATM    1  C   UNL     1      -9.771   5.765  67.780  1.00  0.00    -0.130 C  
HETATM    2  C   UNL     1      -9.269   7.075  67.189  1.00  0.00    -0.153 C  
ENDROOT
BRANCH   2   3
HETATM    3  C   UNL     1     -10.015   8.254  67.800  1.00  0.00    -0.186 C  
BRANCH   3   4
HETATM    4  O   UNL     1      -9.429   8.674  69.039  1.00  0.00    -0.152 OA 
BRANCH   4   5
HETATM    5  C   UNL     1      -9.875   9.854  69.538  1.00  0.00    -0.223 C  
HETATM    6  O   UNL     1      -9.565  10.966  69.148  1.00  0.00    -0.186 OA 
BRANCH   5   7
HETATM    7  C   UNL     1     -10.887   9.608  70.604  1.00  0.00    -0.386 A  
HETATM    8  C   UNL     1     -10.776   8.527  71.493  1.00  0.00    -0.330 A  
HETATM    9  C   UNL     1     -11.794   8.263  72.414  1.00  0.00    -0.461 A  
HETATM   10  C   UNL     1     -12.916   9.084  72.447  1.00  0.00    -0.405 A  
HETATM   11  O   UNL     1     -13.943   8.847  73.312  1.00  0.00    -1.203 OA 
HETATM   12  C   UNL     1     -13.032  10.171  71.586  1.00  0.00    -0.561 A  
HETATM   13  C   UNL     1     -12.021  10.430  70.656  1.00  0.00    -0.448 A  
HETATM   14  H   UNL     1     -14.709   9.408  73.335  1.00  0.00     0.000 HD 
ENDBRANCH   5   7
ENDBRANCH   4   5
ENDBRANCH   3   4
ENDBRANCH   2   3
TORSDOF 4
ENDMDL
MODEL       72
REMARK 921   NORMALIZED FREE ENERGY PREDICTED BY IDOCK:   -3.77 KCAL/MOL
REMARK 922        TOTAL FREE ENERGY PREDICTED BY IDOCK:   -5.08 KCAL/MOL
REMARK 923 INTER-LIGAND FREE ENERGY PREDICTED BY IDOCK:   -4.79 KCAL/MOL
REMARK 924 INTRA-LIGAND FREE ENERGY PREDICTED BY IDOCK:   -0.29 KCAL/MOL
REMARK 927      BINDING AFFINITY PREDICTED BY RF-SCORE:    0.00 PKD
ROOT
HETATM    1  C   UNL     1      -7.674  10.463  69.747  1.00  0.00    -0.126 C  
HETATM    2  C   UNL     1      -7.546  10.718  68.253  1.00  0.00    -0.098 C  
ENDROOT
BRANCH   2   3
HETATM    3  C   UNL     1      -8.332  11.961  67.857  1.00  0.00    -0.152 C  
BRANCH   3   4
HETATM    4  O   UNL     1      -9.709  11.869  68.246  1.00  0.00    -0.192 OA 
BRANCH   4   5
HETATM    5  C   UNL     1     -10.501  11.105  67.452  1.00  0.00    -0.220 C  
HETATM    6  O   UNL     1     -10.831   9.949  67.659  1.00  0.00    -0.274 OA 
BRANCH   5   7
HETATM    7  C   UNL     1     -10.997  11.909  66.300  1.00  0.00    -0.345 A  
HETATM    8  C   UNL     1     -11.960  12.918  66.463  1.00  0.00    -0.447 A  
HETATM    9  C   UNL     1     -12.482  13.583  65.350  1.00  0.00    -0.540 A  
HETATM   10  C   UNL     1     -12.034  13.242  64.078  1.00  0.00    -0.465 A  
HETATM   11  O   UNL     1     -12.535  13.847  62.964  1.00  0.00    -1.099 OA 
HETATM   12  C   UNL     1     -11.067  12.257  63.900  1.00  0.00    -0.475 A  
HETATM   13  C   UNL     1     -10.554  11.582  65.011  1.00  0.00    -0.354 A  
HETATM   14  H   UNL     1     -12.230  13.614  62.095  1.00  0.00     0.000 HD 
ENDBRANCH   5   7
ENDBRANCH   4   5
ENDBRANCH   3   4
ENDBRANCH   2   3
TORSDOF 4
ENDMDL
MODEL       73
REMARK 921   NORMALIZED FREE ENERGY PREDICTED BY IDOCK:   -3.76 KCAL/MOL
REMARK 922        TOTAL FREE ENERGY PREDICTED BY IDOCK:   -5.06 KCAL/MOL
REMARK 923 INTER-LIGAND FREE ENERGY PREDICTED BY IDOCK:   -4.70 KCAL/MOL
REMARK 924 INTRA-LIGAND FREE ENERGY PREDICTED BY IDOCK:   -0.37 KCAL/MOL
REMARK 927      BINDING AFFINITY PREDICTED BY RF-SCORE:    0.00 PKD
ROOT
HETATM    1  C   UNL     1      -9.589  15.876  68.001  1.00  0.00    -0.211 C  
HETATM    2  C   UNL     1      -9.082  15.707  66.577  1.00  0.00    -0.337 C  
ENDROOT
BRANCH   2   3
HETATM    3  C   UNL     1     -10.238  15.402  65.634  1.00  0.00    -0.376 C  
BRANCH   3   4
HETATM    4  O   UNL     1     -11.430  15.045  66.347  1.00  0.00    -0.321 OA 
BRANCH   4   5
HETATM    5  C   UNL     1     -12.219  14.111  65.758  1.00  0.00    -0.442 C  
HETATM    6  O   UNL     1     -13.267  14.319  65.169  1.00  0.00    -0.686 OA 
BRANCH   5   7
HETATM    7  C   UNL     1     -11.581  12.768  65.854  1.00  0.00    -0.428 A  
HETATM    8  C   UNL     1     -11.373  12.136  67.090  1.00  0.00    -0.393 A  
HETATM    9  C   UNL     1     -10.678  10.925  67.155  1.00  0.00    -0.320 A  
HETATM   10  C   UNL     1     -10.200  10.347  65.984  1.00  0.00    -0.228 A  
HETATM   11  O   UNL     1      -9.496   9.179  66.005  1.00  0.00    -0.216 OA 
HETATM   12  C   UNL     1     -10.414  10.952  64.749  1.00  0.00    -0.373 A  
HETATM   13  C   UNL     1     -11.097  12.169  64.683  1.00  0.00    -0.366 A  
HETATM   14  H   UNL     1      -9.169   8.785  65.205  1.00  0.00     0.000 HD 
ENDBRANCH   5   7
ENDBRANCH   4   5
ENDBRANCH   3   4
ENDBRANCH   2   3
TORSDOF 4
ENDMDL
MODEL       74
REMARK 921   NORMALIZED FREE ENERGY PREDICTED BY IDOCK:   -3.73 KCAL/MOL
REMARK 922        TOTAL FREE ENERGY PREDICTED BY IDOCK:   -5.03 KCAL/MOL
REMARK 923 INTER-LIGAND FREE ENERGY PREDICTED BY IDOCK:   -4.60 KCAL/MOL
REMARK 924 INTRA-LIGAND FREE ENERGY PREDICTED BY IDOCK:   -0.43 KCAL/MOL
REMARK 927      BINDING AFFINITY PREDICTED BY RF-SCORE:    0.00 PKD
ROOT
HETATM    1  C   UNL     1      -8.484   6.685  72.638  1.00  0.00    -0.124 C  
HETATM    2  C   UNL     1      -9.434   7.522  73.482  1.00  0.00    -0.326 C  
ENDROOT
BRANCH   2   3
HETATM    3  C   UNL     1     -10.851   6.969  73.393  1.00  0.00    -0.299 C  
BRANCH   3   4
HETATM    4  O   UNL     1     -11.267   6.780  72.034  1.00  0.00    -0.244 OA 
BRANCH   4   5
HETATM    5  C   UNL     1     -12.460   7.331  71.695  1.00  0.00    -0.359 C  
HETATM    6  O   UNL     1     -13.540   6.765  71.689  1.00  0.00    -0.257 OA 
BRANCH   5   7
HETATM    7  C   UNL     1     -12.288   8.781  71.401  1.00  0.00    -0.353 A  
HETATM    8  C   UNL     1     -13.143   9.752  71.947  1.00  0.00    -0.544 A  
HETATM    9  C   UNL     1     -13.021  11.092  71.569  1.00  0.00    -0.542 A  
HETATM   10  C   UNL     1     -12.041  11.458  70.652  1.00  0.00    -0.372 A  
HETATM   11  O   UNL     1     -11.905  12.750  70.237  1.00  0.00    -0.489 OA 
HETATM   12  C   UNL     1     -11.175  10.511  70.115  1.00  0.00    -0.389 A  
HETATM   13  C   UNL     1     -11.303   9.168  70.482  1.00  0.00    -0.300 A  
HETATM   14  H   UNL     1     -11.236  13.000  69.610  1.00  0.00     0.000 HD 
ENDBRANCH   5   7
ENDBRANCH   4   5
ENDBRANCH   3   4
ENDBRANCH   2   3
TORSDOF 4
ENDMDL
MODEL       75
REMARK 921   NORMALIZED FREE ENERGY PREDICTED BY IDOCK:   -3.70 KCAL/MOL
REMARK 922        TOTAL FREE ENERGY PREDICTED BY IDOCK:   -4.99 KCAL/MOL
REMARK 923 INTER-LIGAND FREE ENERGY PREDICTED BY IDOCK:   -4.66 KCAL/MOL
REMARK 924 INTRA-LIGAND FREE ENERGY PREDICTED BY IDOCK:   -0.33 KCAL/MOL
REMARK 927      BINDING AFFINITY PREDICTED BY RF-SCORE:    0.00 PKD
ROOT
HETATM    1  C   UNL     1     -10.240  19.711  66.004  1.00  0.00    -0.587 C  
HETATM    2  C   UNL     1     -10.344  19.880  67.513  1.00  0.00    -0.557 C  
ENDROOT
BRANCH   2   3
HETATM    3  C   UNL     1      -9.458  18.865  68.224  1.00  0.00    -0.348 C  
BRANCH   3   4
HETATM    4  O   UNL     1      -9.660  17.537  67.724  1.00  0.00    -0.260 OA 
BRANCH   4   5
HETATM    5  C   UNL     1     -10.350  16.695  68.535  1.00  0.00    -0.303 C  
HETATM    6  O   UNL     1     -10.617  16.881  69.710  1.00  0.00    -0.265 OA 
BRANCH   5   7
HETATM    7  C   UNL     1     -10.825  15.514  67.760  1.00  0.00    -0.309 A  
HETATM    8  C   UNL     1     -11.712  14.577  68.311  1.00  0.00    -0.368 A  
HETATM    9  C   UNL     1     -12.057  13.426  67.597  1.00  0.00    -0.311 A  
HETATM   10  C   UNL     1     -11.518  13.219  66.331  1.00  0.00    -0.329 A  
HETATM   11  O   UNL     1     -11.809  12.098  65.612  1.00  0.00    -0.427 OA 
HETATM   12  C   UNL     1     -10.652  14.148  65.763  1.00  0.00    -0.306 A  
HETATM   13  C   UNL     1     -10.296  15.293  66.481  1.00  0.00    -0.289 A  
HETATM   14  H   UNL     1     -11.440  11.957  64.747  1.00  0.00     0.000 HD 
ENDBRANCH   5   7
ENDBRANCH   4   5
ENDBRANCH   3   4
ENDBRANCH   2   3
TORSDOF 4
ENDMDL
MODEL       76
REMARK 921   NORMALIZED FREE ENERGY PREDICTED BY IDOCK:   -3.70 KCAL/MOL
REMARK 922        TOTAL FREE ENERGY PREDICTED BY IDOCK:   -4.99 KCAL/MOL
REMARK 923 INTER-LIGAND FREE ENERGY PREDICTED BY IDOCK:   -4.54 KCAL/MOL
REMARK 924 INTRA-LIGAND FREE ENERGY PREDICTED BY IDOCK:   -0.45 KCAL/MOL
REMARK 927      BINDING AFFINITY PREDICTED BY RF-SCORE:    0.00 PKD
ROOT
HETATM    1  C   UNL     1     -10.462   9.968  66.719  1.00  0.00    -0.267 C  
HETATM    2  C   UNL     1      -9.208  10.620  67.283  1.00  0.00    -0.155 C  
ENDROOT
BRANCH   2   3
HETATM    3  C   UNL     1      -8.289   9.567  67.890  1.00  0.00    -0.115 C  
BRANCH   3   4
HETATM    4  O   UNL     1      -8.957   8.788  68.892  1.00  0.00    -0.133 OA 
BRANCH   4   5
HETATM    5  C   UNL     1      -8.869   9.254  70.164  1.00  0.00    -0.213 C  
HETATM    6  O   UNL     1      -7.897   9.786  70.672  1.00  0.00    -0.277 OA 
BRANCH   5   7
HETATM    7  C   UNL     1     -10.179   9.100  70.856  1.00  0.00    -0.351 A  
HETATM    8  C   UNL     1     -11.249   9.976  70.616  1.00  0.00    -0.425 A  
HETATM    9  C   UNL     1     -12.429   9.869  71.357  1.00  0.00    -0.495 A  
HETATM   10  C   UNL     1     -12.538   8.882  72.332  1.00  0.00    -0.353 A  
HETATM   11  O   UNL     1     -13.661   8.759  73.094  1.00  0.00    -0.983 OA 
HETATM   12  C   UNL     1     -11.493   7.994  72.569  1.00  0.00    -0.471 A  
HETATM   13  C   UNL     1     -10.307   8.107  71.838  1.00  0.00    -0.300 A  
HETATM   14  H   UNL     1     -13.735   8.086  73.760  1.00  0.00     0.000 HD 
ENDBRANCH   5   7
ENDBRANCH   4   5
ENDBRANCH   3   4
ENDBRANCH   2   3
TORSDOF 4
ENDMDL
MODEL       77
REMARK 921   NORMALIZED FREE ENERGY PREDICTED BY IDOCK:   -3.70 KCAL/MOL
REMARK 922        TOTAL FREE ENERGY PREDICTED BY IDOCK:   -4.99 KCAL/MOL
REMARK 923 INTER-LIGAND FREE ENERGY PREDICTED BY IDOCK:   -4.59 KCAL/MOL
REMARK 924 INTRA-LIGAND FREE ENERGY PREDICTED BY IDOCK:   -0.40 KCAL/MOL
REMARK 927      BINDING AFFINITY PREDICTED BY RF-SCORE:    0.00 PKD
ROOT
HETATM    1  C   UNL     1     -10.059   5.451  70.789  1.00  0.00    -0.287 C  
HETATM    2  C   UNL     1     -11.270   5.982  71.543  1.00  0.00    -0.326 C  
ENDROOT
BRANCH   2   3
HETATM    3  C   UNL     1     -10.860   6.483  72.921  1.00  0.00    -0.258 C  
BRANCH   3   4
HETATM    4  O   UNL     1     -10.944   7.911  73.018  1.00  0.00    -0.393 OA 
BRANCH   4   5
HETATM    5  C   UNL     1      -9.967   8.609  72.385  1.00  0.00    -0.249 C  
HETATM    6  O   UNL     1      -8.782   8.612  72.670  1.00  0.00    -0.380 OA 
BRANCH   5   7
HETATM    7  C   UNL     1     -10.533   9.330  71.210  1.00  0.00    -0.408 A  
HETATM    8  C   UNL     1      -9.753   9.633  70.083  1.00  0.00    -0.301 A  
HETATM    9  C   UNL     1     -10.284  10.400  69.043  1.00  0.00    -0.233 A  
HETATM   10  C   UNL     1     -11.595  10.858  69.130  1.00  0.00    -0.319 A  
HETATM   11  O   UNL     1     -12.143  11.631  68.150  1.00  0.00    -0.577 OA 
HETATM   12  C   UNL     1     -12.387  10.551  70.232  1.00  0.00    -0.377 A  
HETATM   13  C   UNL     1     -11.854   9.794  71.280  1.00  0.00    -0.481 A  
HETATM   14  H   UNL     1     -13.038  11.944  68.210  1.00  0.00     0.000 HD 
ENDBRANCH   5   7
ENDBRANCH   4   5
ENDBRANCH   3   4
ENDBRANCH   2   3
TORSDOF 4
ENDMDL
MODEL       78
REMARK 921   NORMALIZED FREE ENERGY PREDICTED BY IDOCK:   -3.68 KCAL/MOL
REMARK 922        TOTAL FREE ENERGY PREDICTED BY IDOCK:   -4.97 KCAL/MOL
REMARK 923 INTER-LIGAND FREE ENERGY PREDICTED BY IDOCK:   -4.70 KCAL/MOL
REMARK 924 INTRA-LIGAND FREE ENERGY PREDICTED BY IDOCK:   -0.27 KCAL/MOL
REMARK 927      BINDING AFFINITY PREDICTED BY RF-SCORE:    0.00 PKD
ROOT
HETATM    1  C   UNL     1     -12.784   9.019  72.174  1.00  0.00    -0.470 C  
HETATM    2  C   UNL     1     -11.462   8.702  71.490  1.00  0.00    -0.363 C  
ENDROOT
BRANCH   2   3
HETATM    3  C   UNL     1     -10.929   9.932  70.767  1.00  0.00    -0.337 C  
BRANCH   3   4
HETATM    4  O   UNL     1     -11.847  10.408  69.774  1.00  0.00    -0.249 OA 
BRANCH   4   5
HETATM    5  C   UNL     1     -11.994  11.754  69.695  1.00  0.00    -0.312 C  
HETATM    6  O   UNL     1     -12.213  12.512  70.625  1.00  0.00    -0.369 OA 
BRANCH   5   7
HETATM    7  C   UNL     1     -11.765  12.212  68.296  1.00  0.00    -0.401 A  
HETATM    8  C   UNL     1     -11.278  11.346  67.305  1.00  0.00    -0.370 A  
HETATM    9  C   UNL     1     -10.976  11.830  66.030  1.00  0.00    -0.355 A  
HETATM   10  C   UNL     1     -11.167  13.179  65.747  1.00  0.00    -0.286 A  
HETATM   11  O   UNL     1     -10.861  13.698  64.524  1.00  0.00    -0.390 OA 
HETATM   12  C   UNL     1     -11.667  14.048  66.713  1.00  0.00    -0.430 A  
HETATM   13  C   UNL     1     -11.958  13.567  67.993  1.00  0.00    -0.372 A  
HETATM   14  H   UNL     1     -10.991  14.619  64.332  1.00  0.00     0.000 HD 
ENDBRANCH   5   7
ENDBRANCH   4   5
ENDBRANCH   3   4
ENDBRANCH   2   3
TORSDOF 4
ENDMDL
MODEL       79
REMARK 921   NORMALIZED FREE ENERGY PREDICTED BY IDOCK:   -3.68 KCAL/MOL
REMARK 922        TOTAL FREE ENERGY PREDICTED BY IDOCK:   -4.97 KCAL/MOL
REMARK 923 INTER-LIGAND FREE ENERGY PREDICTED BY IDOCK:   -4.65 KCAL/MOL
REMARK 924 INTRA-LIGAND FREE ENERGY PREDICTED BY IDOCK:   -0.32 KCAL/MOL
REMARK 927      BINDING AFFINITY PREDICTED BY RF-SCORE:    0.00 PKD
ROOT
HETATM    1  C   UNL     1     -13.244  11.344  71.902  1.00  0.00    -0.485 C  
HETATM    2  C   UNL     1     -12.361  10.653  70.872  1.00  0.00    -0.502 C  
ENDROOT
BRANCH   2   3
HETATM    3  C   UNL     1     -11.546   9.547  71.527  1.00  0.00    -0.395 C  
BRANCH   3   4
HETATM    4  O   UNL     1     -12.372   8.642  72.271  1.00  0.00    -0.360 OA 
BRANCH   4   5
HETATM    5  C   UNL     1     -12.896   7.604  71.572  1.00  0.00    -0.344 C  
HETATM    6  O   UNL     1     -14.055   7.488  71.212  1.00  0.00    -0.382 OA 
BRANCH   5   7
HETATM    7  C   UNL     1     -11.824   6.632  71.219  1.00  0.00    -0.403 A  
HETATM    8  C   UNL     1     -11.471   6.373  69.885  1.00  0.00    -0.483 A  
HETATM    9  C   UNL     1     -10.535   5.381  69.582  1.00  0.00    -0.361 A  
HETATM   10  C   UNL     1      -9.949   4.654  70.614  1.00  0.00    -0.223 A  
HETATM   11  O   UNL     1      -9.051   3.660  70.362  1.00  0.00    -0.101 OA 
HETATM   12  C   UNL     1     -10.275   4.911  71.943  1.00  0.00    -0.267 A  
HETATM   13  C   UNL     1     -11.220   5.895  72.247  1.00  0.00    -0.343 A  
HETATM   14  H   UNL     1      -8.652   3.164  71.066  1.00  0.00     0.000 HD 
ENDBRANCH   5   7
ENDBRANCH   4   5
ENDBRANCH   3   4
ENDBRANCH   2   3
TORSDOF 4
ENDMDL
MODEL       80
REMARK 921   NORMALIZED FREE ENERGY PREDICTED BY IDOCK:   -3.67 KCAL/MOL
REMARK 922        TOTAL FREE ENERGY PREDICTED BY IDOCK:   -4.96 KCAL/MOL
REMARK 923 INTER-LIGAND FREE ENERGY PREDICTED BY IDOCK:   -4.73 KCAL/MOL
REMARK 924 INTRA-LIGAND FREE ENERGY PREDICTED BY IDOCK:   -0.23 KCAL/MOL
REMARK 927      BINDING AFFINITY PREDICTED BY RF-SCORE:    0.00 PKD
ROOT
HETATM    1  C   UNL     1     -10.217   9.819  65.998  1.00  0.00    -0.263 C  
HETATM    2  C   UNL     1     -10.744   9.830  67.425  1.00  0.00    -0.314 C  
ENDROOT
BRANCH   2   3
HETATM    3  C   UNL     1     -10.704  11.241  67.996  1.00  0.00    -0.203 C  
BRANCH   3   4
HETATM    4  O   UNL     1     -11.943  11.934  67.797  1.00  0.00    -0.559 OA 
BRANCH   4   5
HETATM    5  C   UNL     1     -11.976  12.809  66.761  1.00  0.00    -0.319 C  
HETATM    6  O   UNL     1     -12.356  12.571  65.627  1.00  0.00    -0.615 OA 
BRANCH   5   7
HETATM    7  C   UNL     1     -11.551  14.161  67.220  1.00  0.00    -0.399 A  
HETATM    8  C   UNL     1     -10.735  14.987  66.430  1.00  0.00    -0.322 A  
HETATM    9  C   UNL     1     -10.268  16.205  66.931  1.00  0.00    -0.283 A  
HETATM   10  C   UNL     1     -10.623  16.597  68.218  1.00  0.00    -0.338 A  
HETATM   11  O   UNL     1     -10.169  17.765  68.754  1.00  0.00    -0.366 OA 
HETATM   12  C   UNL     1     -11.446  15.798  69.006  1.00  0.00    -0.394 A  
HETATM   13  C   UNL     1     -11.904  14.574  68.512  1.00  0.00    -0.355 A  
HETATM   14  H   UNL     1     -10.411  18.032  69.633  1.00  0.00     0.000 HD 
ENDBRANCH   5   7
ENDBRANCH   4   5
ENDBRANCH   3   4
ENDBRANCH   2   3
TORSDOF 4
ENDMDL
MODEL       81
REMARK 921   NORMALIZED FREE ENERGY PREDICTED BY IDOCK:   -3.67 KCAL/MOL
REMARK 922        TOTAL FREE ENERGY PREDICTED BY IDOCK:   -4.96 KCAL/MOL
REMARK 923 INTER-LIGAND FREE ENERGY PREDICTED BY IDOCK:   -4.55 KCAL/MOL
REMARK 924 INTRA-LIGAND FREE ENERGY PREDICTED BY IDOCK:   -0.40 KCAL/MOL
REMARK 927      BINDING AFFINITY PREDICTED BY RF-SCORE:    0.00 PKD
ROOT
HETATM    1  C   UNL     1      -9.979   4.854  71.308  1.00  0.00    -0.271 C  
HETATM    2  C   UNL     1     -11.066   5.794  71.807  1.00  0.00    -0.301 C  
ENDROOT
BRANCH   2   3
HETATM    3  C   UNL     1     -10.765   6.247  73.230  1.00  0.00    -0.260 C  
BRANCH   3   4
HETATM    4  O   UNL     1     -10.872   7.669  73.373  1.00  0.00    -0.380 OA 
BRANCH   4   5
HETATM    5  C   UNL     1      -9.927   8.404  72.734  1.00  0.00    -0.215 C  
HETATM    6  O   UNL     1      -8.729   8.394  72.960  1.00  0.00    -0.267 OA 
BRANCH   5   7
HETATM    7  C   UNL     1     -10.550   9.187  71.630  1.00  0.00    -0.427 A  
HETATM    8  C   UNL     1     -11.889   9.605  71.684  1.00  0.00    -0.457 A  
HETATM    9  C   UNL     1     -12.473  10.248  70.589  1.00  0.00    -0.407 A  
HETATM   10  C   UNL     1     -11.715  10.476  69.445  1.00  0.00    -0.223 A  
HETATM   11  O   UNL     1     -12.253  11.076  68.346  1.00  0.00    -0.770 OA 
HETATM   12  C   UNL     1     -10.381  10.084  69.382  1.00  0.00    -0.245 A  
HETATM   13  C   UNL     1      -9.798   9.431  70.472  1.00  0.00    -0.331 A  
HETATM   14  H   UNL     1     -11.735  11.232  67.565  1.00  0.00     0.000 HD 
ENDBRANCH   5   7
ENDBRANCH   4   5
ENDBRANCH   3   4
ENDBRANCH   2   3
TORSDOF 4
ENDMDL
MODEL       82
REMARK 921   NORMALIZED FREE ENERGY PREDICTED BY IDOCK:   -3.65 KCAL/MOL
REMARK 922        TOTAL FREE ENERGY PREDICTED BY IDOCK:   -4.93 KCAL/MOL
REMARK 923 INTER-LIGAND FREE ENERGY PREDICTED BY IDOCK:   -4.60 KCAL/MOL
REMARK 924 INTRA-LIGAND FREE ENERGY PREDICTED BY IDOCK:   -0.33 KCAL/MOL
REMARK 927      BINDING AFFINITY PREDICTED BY RF-SCORE:    0.00 PKD
ROOT
HETATM    1  C   UNL     1      -9.139  13.881  66.677  1.00  0.00    -0.209 C  
HETATM    2  C   UNL     1      -8.889  15.331  67.065  1.00  0.00    -0.261 C  
ENDROOT
BRANCH   2   3
HETATM    3  C   UNL     1     -10.099  16.190  66.723  1.00  0.00    -0.271 C  
BRANCH   3   4
HETATM    4  O   UNL     1     -11.139  16.062  67.702  1.00  0.00    -0.317 OA 
BRANCH   4   5
HETATM    5  C   UNL     1     -10.857  16.548  68.937  1.00  0.00    -0.336 C  
HETATM    6  O   UNL     1     -10.188  17.537  69.188  1.00  0.00    -0.333 OA 
BRANCH   5   7
HETATM    7  C   UNL     1     -11.556  15.742  69.976  1.00  0.00    -0.361 A  
HETATM    8  C   UNL     1     -12.289  14.590  69.648  1.00  0.00    -0.284 A  
HETATM    9  C   UNL     1     -13.019  13.914  70.630  1.00  0.00    -0.219 A  
HETATM   10  C   UNL     1     -13.010  14.389  71.937  1.00  0.00    -0.349 A  
HETATM   11  O   UNL     1     -13.729  13.775  72.920  1.00  0.00    -0.684 OA 
HETATM   12  C   UNL     1     -12.275  15.519  72.282  1.00  0.00    -0.504 A  
HETATM   13  C   UNL     1     -11.553  16.203  71.299  1.00  0.00    -0.470 A  
HETATM   14  H   UNL     1     -13.723  14.100  73.813  1.00  0.00     0.000 HD 
ENDBRANCH   5   7
ENDBRANCH   4   5
ENDBRANCH   3   4
ENDBRANCH   2   3
TORSDOF 4
ENDMDL
MODEL       83
REMARK 921   NORMALIZED FREE ENERGY PREDICTED BY IDOCK:   -3.64 KCAL/MOL
REMARK 922        TOTAL FREE ENERGY PREDICTED BY IDOCK:   -4.92 KCAL/MOL
REMARK 923 INTER-LIGAND FREE ENERGY PREDICTED BY IDOCK:   -4.87 KCAL/MOL
REMARK 924 INTRA-LIGAND FREE ENERGY PREDICTED BY IDOCK:   -0.05 KCAL/MOL
REMARK 927      BINDING AFFINITY PREDICTED BY RF-SCORE:    0.00 PKD
ROOT
HETATM    1  C   UNL     1      -9.568  18.842  69.366  1.00  0.00     0.014 C  
HETATM    2  C   UNL     1      -9.514  18.215  67.980  1.00  0.00    -0.290 C  
ENDROOT
BRANCH   2   3
HETATM    3  C   UNL     1     -10.488  17.048  67.888  1.00  0.00    -0.354 C  
BRANCH   3   4
HETATM    4  O   UNL     1     -10.114  16.119  66.861  1.00  0.00    -0.258 OA 
BRANCH   4   5
HETATM    5  C   UNL     1     -10.611  16.369  65.624  1.00  0.00    -0.323 C  
HETATM    6  O   UNL     1     -10.736  17.464  65.103  1.00  0.00    -0.684 OA 
BRANCH   5   7
HETATM    7  C   UNL     1     -10.920  15.087  64.929  1.00  0.00    -0.427 A  
HETATM    8  C   UNL     1     -12.180  14.839  64.362  1.00  0.00    -0.447 A  
HETATM    9  C   UNL     1     -12.472  13.589  63.810  1.00  0.00    -0.296 A  
HETATM   10  C   UNL     1     -11.501  12.593  63.820  1.00  0.00    -0.470 A  
HETATM   11  O   UNL     1     -11.752  11.352  63.315  1.00  0.00    -0.831 OA 
HETATM   12  C   UNL     1     -10.241  12.829  64.362  1.00  0.00    -0.344 A  
HETATM   13  C   UNL     1      -9.951  14.074  64.926  1.00  0.00    -0.161 A  
HETATM   14  H   UNL     1     -11.089  10.671  63.323  1.00  0.00     0.000 HD 
ENDBRANCH   5   7
ENDBRANCH   4   5
ENDBRANCH   3   4
ENDBRANCH   2   3
TORSDOF 4
ENDMDL
MODEL       84
REMARK 921   NORMALIZED FREE ENERGY PREDICTED BY IDOCK:   -3.60 KCAL/MOL
REMARK 922        TOTAL FREE ENERGY PREDICTED BY IDOCK:   -4.87 KCAL/MOL
REMARK 923 INTER-LIGAND FREE ENERGY PREDICTED BY IDOCK:   -4.28 KCAL/MOL
REMARK 924 INTRA-LIGAND FREE ENERGY PREDICTED BY IDOCK:   -0.60 KCAL/MOL
REMARK 927      BINDING AFFINITY PREDICTED BY RF-SCORE:    0.00 PKD
ROOT
HETATM    1  C   UNL     1      -8.354  14.888  69.048  1.00  0.00    -0.175 C  
HETATM    2  C   UNL     1      -8.378  13.713  68.081  1.00  0.00    -0.166 C  
ENDROOT
BRANCH   2   3
HETATM    3  C   UNL     1      -9.367  13.974  66.953  1.00  0.00    -0.257 C  
BRANCH   3   4
HETATM    4  O   UNL     1     -10.503  13.102  67.024  1.00  0.00    -0.246 OA 
BRANCH   4   5
HETATM    5  C   UNL     1     -11.698  13.700  67.259  1.00  0.00    -0.380 C  
HETATM    6  O   UNL     1     -12.522  14.021  66.419  1.00  0.00    -0.452 OA 
BRANCH   5   7
HETATM    7  C   UNL     1     -11.918  13.846  68.725  1.00  0.00    -0.393 A  
HETATM    8  C   UNL     1     -12.015  12.730  69.572  1.00  0.00    -0.338 A  
HETATM    9  C   UNL     1     -12.325  12.896  70.925  1.00  0.00    -0.365 A  
HETATM   10  C   UNL     1     -12.531  14.176  71.428  1.00  0.00    -0.359 A  
HETATM   11  O   UNL     1     -12.860  14.381  72.735  1.00  0.00    -0.410 OA 
HETATM   12  C   UNL     1     -12.421  15.293  70.605  1.00  0.00    -0.458 A  
HETATM   13  C   UNL     1     -12.123  15.129  69.249  1.00  0.00    -0.278 A  
HETATM   14  H   UNL     1     -13.001  15.255  73.078  1.00  0.00     0.000 HD 
ENDBRANCH   5   7
ENDBRANCH   4   5
ENDBRANCH   3   4
ENDBRANCH   2   3
TORSDOF 4
ENDMDL
MODEL       85
REMARK 921   NORMALIZED FREE ENERGY PREDICTED BY IDOCK:   -3.60 KCAL/MOL
REMARK 922        TOTAL FREE ENERGY PREDICTED BY IDOCK:   -4.87 KCAL/MOL
REMARK 923 INTER-LIGAND FREE ENERGY PREDICTED BY IDOCK:   -4.22 KCAL/MOL
REMARK 924 INTRA-LIGAND FREE ENERGY PREDICTED BY IDOCK:   -0.65 KCAL/MOL
REMARK 927      BINDING AFFINITY PREDICTED BY RF-SCORE:    0.00 PKD
ROOT
HETATM    1  C   UNL     1     -10.902  19.099  67.412  1.00  0.00    -0.533 C  
HETATM    2  C   UNL     1      -9.958  20.287  67.302  1.00  0.00    -0.580 C  
ENDROOT
BRANCH   2   3
HETATM    3  C   UNL     1      -8.917  20.040  66.218  1.00  0.00    -0.306 C  
BRANCH   3   4
HETATM    4  O   UNL     1      -7.735  19.422  66.744  1.00  0.00    -0.240 OA 
BRANCH   4   5
HETATM    5  C   UNL     1      -7.365  18.254  66.160  1.00  0.00    -0.263 C  
HETATM    6  O   UNL     1      -6.593  18.127  65.224  1.00  0.00    -0.396 OA 
BRANCH   5   7
HETATM    7  C   UNL     1      -7.979  17.105  66.882  1.00  0.00    -0.250 A  
HETATM    8  C   UNL     1      -8.732  16.128  66.211  1.00  0.00    -0.373 A  
HETATM    9  C   UNL     1      -9.382  15.121  66.929  1.00  0.00    -0.251 A  
HETATM   10  C   UNL     1      -9.272  15.090  68.316  1.00  0.00    -0.184 A  
HETATM   11  O   UNL     1      -9.910  14.140  69.057  1.00  0.00    -0.386 OA 
HETATM   12  C   UNL     1      -8.515  16.040  68.994  1.00  0.00    -0.244 A  
HETATM   13  C   UNL     1      -7.874  17.055  68.278  1.00  0.00    -0.216 A  
HETATM   14  H   UNL     1      -9.836  14.119  70.004  1.00  0.00     0.000 HD 
ENDBRANCH   5   7
ENDBRANCH   4   5
ENDBRANCH   3   4
ENDBRANCH   2   3
TORSDOF 4
ENDMDL
MODEL       86
REMARK 921   NORMALIZED FREE ENERGY PREDICTED BY IDOCK:   -3.60 KCAL/MOL
REMARK 922        TOTAL FREE ENERGY PREDICTED BY IDOCK:   -4.87 KCAL/MOL
REMARK 923 INTER-LIGAND FREE ENERGY PREDICTED BY IDOCK:   -4.45 KCAL/MOL
REMARK 924 INTRA-LIGAND FREE ENERGY PREDICTED BY IDOCK:   -0.42 KCAL/MOL
REMARK 927      BINDING AFFINITY PREDICTED BY RF-SCORE:    0.00 PKD
ROOT
HETATM    1  C   UNL     1     -13.519   9.306  72.400  1.00  0.00    -0.526 C  
HETATM    2  C   UNL     1     -13.019   8.191  71.494  1.00  0.00    -0.316 C  
ENDROOT
BRANCH   2   3
HETATM    3  C   UNL     1     -11.500   8.235  71.388  1.00  0.00    -0.269 C  
BRANCH   3   4
HETATM    4  O   UNL     1     -11.020   9.558  71.117  1.00  0.00    -0.317 OA 
BRANCH   4   5
HETATM    5  C   UNL     1     -10.971   9.917  69.809  1.00  0.00    -0.268 C  
HETATM    6  O   UNL     1     -10.765   9.175  68.864  1.00  0.00    -0.212 OA 
BRANCH   5   7
HETATM    7  C   UNL     1     -11.292  11.365  69.664  1.00  0.00    -0.347 A  
HETATM    8  C   UNL     1     -12.158  12.022  70.552  1.00  0.00    -0.402 A  
HETATM    9  C   UNL     1     -12.520  13.354  70.329  1.00  0.00    -0.285 A  
HETATM   10  C   UNL     1     -12.011  14.025  69.222  1.00  0.00    -0.353 A  
HETATM   11  O   UNL     1     -12.358  15.316  68.953  1.00  0.00    -0.593 OA 
HETATM   12  C   UNL     1     -11.136  13.393  68.343  1.00  0.00    -0.301 A  
HETATM   13  C   UNL     1     -10.782  12.058  68.558  1.00  0.00    -0.261 A  
HETATM   14  H   UNL     1     -12.011  15.774  68.197  1.00  0.00     0.000 HD 
ENDBRANCH   5   7
ENDBRANCH   4   5
ENDBRANCH   3   4
ENDBRANCH   2   3
TORSDOF 4
ENDMDL
MODEL       87
REMARK 921   NORMALIZED FREE ENERGY PREDICTED BY IDOCK:   -3.59 KCAL/MOL
REMARK 922        TOTAL FREE ENERGY PREDICTED BY IDOCK:   -4.86 KCAL/MOL
REMARK 923 INTER-LIGAND FREE ENERGY PREDICTED BY IDOCK:   -4.40 KCAL/MOL
REMARK 924 INTRA-LIGAND FREE ENERGY PREDICTED BY IDOCK:   -0.45 KCAL/MOL
REMARK 927      BINDING AFFINITY PREDICTED BY RF-SCORE:    0.00 PKD
ROOT
HETATM    1  C   UNL     1     -12.527  14.589  70.421  1.00  0.00    -0.407 C  
HETATM    2  C   UNL     1     -11.341  15.061  69.593  1.00  0.00    -0.309 C  
ENDROOT
BRANCH   2   3
HETATM    3  C   UNL     1     -11.161  14.175  68.368  1.00  0.00    -0.265 C  
BRANCH   3   4
HETATM    4  O   UNL     1     -12.007  13.017  68.417  1.00  0.00    -0.336 OA 
BRANCH   4   5
HETATM    5  C   UNL     1     -11.449  11.856  67.992  1.00  0.00    -0.323 C  
HETATM    6  O   UNL     1     -11.085  11.602  66.856  1.00  0.00    -0.280 OA 
BRANCH   5   7
HETATM    7  C   UNL     1     -11.258  10.929  69.143  1.00  0.00    -0.318 A  
HETATM    8  C   UNL     1     -12.247  10.757  70.125  1.00  0.00    -0.425 A  
HETATM    9  C   UNL     1     -11.997   9.962  71.247  1.00  0.00    -0.489 A  
HETATM   10  C   UNL     1     -10.761   9.336  71.380  1.00  0.00    -0.362 A  
HETATM   11  O   UNL     1     -10.467   8.573  72.471  1.00  0.00    -0.317 OA 
HETATM   12  C   UNL     1      -9.777   9.482  70.407  1.00  0.00    -0.328 A  
HETATM   13  C   UNL     1     -10.021  10.287  69.290  1.00  0.00    -0.244 A  
HETATM   14  H   UNL     1      -9.623   8.146  72.562  1.00  0.00     0.000 HD 
ENDBRANCH   5   7
ENDBRANCH   4   5
ENDBRANCH   3   4
ENDBRANCH   2   3
TORSDOF 4
ENDMDL
MODEL       88
REMARK 921   NORMALIZED FREE ENERGY PREDICTED BY IDOCK:   -3.57 KCAL/MOL
REMARK 922        TOTAL FREE ENERGY PREDICTED BY IDOCK:   -4.83 KCAL/MOL
REMARK 923 INTER-LIGAND FREE ENERGY PREDICTED BY IDOCK:   -4.56 KCAL/MOL
REMARK 924 INTRA-LIGAND FREE ENERGY PREDICTED BY IDOCK:   -0.27 KCAL/MOL
REMARK 927      BINDING AFFINITY PREDICTED BY RF-SCORE:    0.00 PKD
ROOT
HETATM    1  C   UNL     1     -12.288   6.712  71.411  1.00  0.00    -0.348 C  
HETATM    2  C   UNL     1     -11.515   6.361  70.148  1.00  0.00    -0.484 C  
ENDROOT
BRANCH   2   3
HETATM    3  C   UNL     1     -10.249   7.200  70.050  1.00  0.00    -0.196 C  
BRANCH   3   4
HETATM    4  O   UNL     1     -10.448   8.530  70.548  1.00  0.00    -0.196 OA 
BRANCH   4   5
HETATM    5  C   UNL     1     -10.839   9.455  69.635  1.00  0.00    -0.228 C  
HETATM    6  O   UNL     1     -10.576   9.449  68.444  1.00  0.00    -0.218 OA 
BRANCH   5   7
HETATM    7  C   UNL     1     -11.725  10.465  70.278  1.00  0.00    -0.406 A  
HETATM    8  C   UNL     1     -11.667  11.825  69.933  1.00  0.00    -0.399 A  
HETATM    9  C   UNL     1     -12.436  12.763  70.627  1.00  0.00    -0.328 A  
HETATM   10  C   UNL     1     -13.266  12.338  71.660  1.00  0.00    -0.257 A  
HETATM   11  O   UNL     1     -14.014  13.222  72.379  1.00  0.00    -0.608 OA 
HETATM   12  C   UNL     1     -13.348  10.991  72.002  1.00  0.00    -0.393 A  
HETATM   13  C   UNL     1     -12.570  10.053  71.317  1.00  0.00    -0.495 A  
HETATM   14  H   UNL     1     -14.580  12.932  73.084  1.00  0.00     0.000 HD 
ENDBRANCH   5   7
ENDBRANCH   4   5
ENDBRANCH   3   4
ENDBRANCH   2   3
TORSDOF 4
ENDMDL
MODEL       89
REMARK 921   NORMALIZED FREE ENERGY PREDICTED BY IDOCK:   -3.55 KCAL/MOL
REMARK 922        TOTAL FREE ENERGY PREDICTED BY IDOCK:   -4.81 KCAL/MOL
REMARK 923 INTER-LIGAND FREE ENERGY PREDICTED BY IDOCK:   -4.21 KCAL/MOL
REMARK 924 INTRA-LIGAND FREE ENERGY PREDICTED BY IDOCK:   -0.60 KCAL/MOL
REMARK 927      BINDING AFFINITY PREDICTED BY RF-SCORE:    0.00 PKD
ROOT
HETATM    1  C   UNL     1     -10.596  19.320  66.746  1.00  0.00    -0.543 C  
HETATM    2  C   UNL     1      -9.813  19.982  67.870  1.00  0.00    -0.538 C  
ENDROOT
BRANCH   2   3
HETATM    3  C   UNL     1      -8.394  19.431  67.926  1.00  0.00    -0.308 C  
BRANCH   3   4
HETATM    4  O   UNL     1      -8.277  18.349  68.859  1.00  0.00    -0.272 OA 
BRANCH   4   5
HETATM    5  C   UNL     1      -7.805  17.180  68.358  1.00  0.00    -0.244 C  
HETATM    6  O   UNL     1      -6.651  16.790  68.400  1.00  0.00    -0.141 OA 
BRANCH   5   7
HETATM    7  C   UNL     1      -8.928  16.371  67.805  1.00  0.00    -0.198 A  
HETATM    8  C   UNL     1      -9.043  16.112  66.430  1.00  0.00    -0.339 A  
HETATM    9  C   UNL     1     -10.162  15.439  65.930  1.00  0.00    -0.365 A  
HETATM   10  C   UNL     1     -11.159  15.024  66.808  1.00  0.00    -0.326 A  
HETATM   11  O   UNL     1     -12.278  14.388  66.359  1.00  0.00    -0.417 OA 
HETATM   12  C   UNL     1     -11.050  15.257  68.175  1.00  0.00    -0.309 A  
HETATM   13  C   UNL     1      -9.938  15.940  68.675  1.00  0.00    -0.214 A  
HETATM   14  H   UNL     1     -12.959  14.104  66.958  1.00  0.00     0.000 HD 
ENDBRANCH   5   7
ENDBRANCH   4   5
ENDBRANCH   3   4
ENDBRANCH   2   3
TORSDOF 4
ENDMDL
MODEL       90
REMARK 921   NORMALIZED FREE ENERGY PREDICTED BY IDOCK:   -3.54 KCAL/MOL
REMARK 922        TOTAL FREE ENERGY PREDICTED BY IDOCK:   -4.79 KCAL/MOL
REMARK 923 INTER-LIGAND FREE ENERGY PREDICTED BY IDOCK:   -4.57 KCAL/MOL
REMARK 924 INTRA-LIGAND FREE ENERGY PREDICTED BY IDOCK:   -0.22 KCAL/MOL
REMARK 927      BINDING AFFINITY PREDICTED BY RF-SCORE:    0.00 PKD
ROOT
HETATM    1  C   UNL     1     -13.611  13.325  72.170  1.00  0.00    -0.655 C  
HETATM    2  C   UNL     1     -13.998  14.740  71.765  1.00  0.00    -0.568 C  
ENDROOT
BRANCH   2   3
HETATM    3  C   UNL     1     -12.787  15.486  71.219  1.00  0.00    -0.475 C  
BRANCH   3   4
HETATM    4  O   UNL     1     -11.764  14.588  70.770  1.00  0.00    -0.297 OA 
BRANCH   4   5
HETATM    5  C   UNL     1     -11.586  14.513  69.426  1.00  0.00    -0.303 C  
HETATM    6  O   UNL     1     -12.189  13.783  68.658  1.00  0.00    -0.347 OA 
BRANCH   5   7
HETATM    7  C   UNL     1     -10.586  15.526  68.986  1.00  0.00    -0.246 A  
HETATM    8  C   UNL     1      -9.216  15.375  69.250  1.00  0.00    -0.259 A  
HETATM    9  C   UNL     1      -8.316  16.391  68.916  1.00  0.00    -0.234 A  
HETATM   10  C   UNL     1      -8.789  17.552  68.313  1.00  0.00    -0.274 A  
HETATM   11  O   UNL     1      -7.950  18.578  67.994  1.00  0.00    -0.262 OA 
HETATM   12  C   UNL     1     -10.142  17.709  68.027  1.00  0.00    -0.343 A  
HETATM   13  C   UNL     1     -11.045  16.700  68.372  1.00  0.00    -0.305 A  
HETATM   14  H   UNL     1      -8.273  19.371  67.582  1.00  0.00     0.000 HD 
ENDBRANCH   5   7
ENDBRANCH   4   5
ENDBRANCH   3   4
ENDBRANCH   2   3
TORSDOF 4
ENDMDL
MODEL       91
REMARK 921   NORMALIZED FREE ENERGY PREDICTED BY IDOCK:   -3.54 KCAL/MOL
REMARK 922        TOTAL FREE ENERGY PREDICTED BY IDOCK:   -4.79 KCAL/MOL
REMARK 923 INTER-LIGAND FREE ENERGY PREDICTED BY IDOCK:   -4.39 KCAL/MOL
REMARK 924 INTRA-LIGAND FREE ENERGY PREDICTED BY IDOCK:   -0.40 KCAL/MOL
REMARK 927      BINDING AFFINITY PREDICTED BY RF-SCORE:    0.00 PKD
ROOT
HETATM    1  C   UNL     1     -10.280  10.328  69.229  1.00  0.00    -0.244 C  
HETATM    2  C   UNL     1     -11.132   9.494  70.175  1.00  0.00    -0.294 C  
ENDROOT
BRANCH   2   3
HETATM    3  C   UNL     1     -11.762  10.380  71.242  1.00  0.00    -0.231 C  
BRANCH   3   4
HETATM    4  O   UNL     1     -12.648  11.354  70.675  1.00  0.00    -0.314 OA 
BRANCH   4   5
HETATM    5  C   UNL     1     -12.935  12.424  71.458  1.00  0.00    -0.285 C  
HETATM    6  O   UNL     1     -13.435  12.392  72.569  1.00  0.00    -0.412 OA 
BRANCH   5   7
HETATM    7  C   UNL     1     -12.472  13.678  70.799  1.00  0.00    -0.432 A  
HETATM    8  C   UNL     1     -12.071  13.700  69.454  1.00  0.00    -0.364 A  
HETATM    9  C   UNL     1     -11.544  14.868  68.894  1.00  0.00    -0.339 A  
HETATM   10  C   UNL     1     -11.425  16.010  69.679  1.00  0.00    -0.326 A  
HETATM   11  O   UNL     1     -10.893  17.162  69.180  1.00  0.00    -0.310 OA 
HETATM   12  C   UNL     1     -11.836  16.009  71.009  1.00  0.00    -0.435 A  
HETATM   13  C   UNL     1     -12.352  14.839  71.574  1.00  0.00    -0.404 A  
HETATM   14  H   UNL     1     -10.812  17.941  69.716  1.00  0.00     0.000 HD 
ENDBRANCH   5   7
ENDBRANCH   4   5
ENDBRANCH   3   4
ENDBRANCH   2   3
TORSDOF 4
ENDMDL
MODEL       92
REMARK 921   NORMALIZED FREE ENERGY PREDICTED BY IDOCK:   -3.53 KCAL/MOL
REMARK 922        TOTAL FREE ENERGY PREDICTED BY IDOCK:   -4.79 KCAL/MOL
REMARK 923 INTER-LIGAND FREE ENERGY PREDICTED BY IDOCK:   -4.54 KCAL/MOL
REMARK 924 INTRA-LIGAND FREE ENERGY PREDICTED BY IDOCK:   -0.24 KCAL/MOL
REMARK 927      BINDING AFFINITY PREDICTED BY RF-SCORE:    0.00 PKD
ROOT
HETATM    1  C   UNL     1      -7.108  20.406  66.551  1.00  0.00    -0.300 C  
HETATM    2  C   UNL     1      -7.967  19.361  67.247  1.00  0.00    -0.292 C  
ENDROOT
BRANCH   2   3
HETATM    3  C   UNL     1      -9.192  19.032  66.403  1.00  0.00    -0.334 C  
BRANCH   3   4
HETATM    4  O   UNL     1     -10.186  18.325  67.156  1.00  0.00    -0.338 OA 
BRANCH   4   5
HETATM    5  C   UNL     1     -10.535  17.103  66.681  1.00  0.00    -0.259 C  
HETATM    6  O   UNL     1     -10.455  16.729  65.523  1.00  0.00    -0.538 OA 
BRANCH   5   7
HETATM    7  C   UNL     1     -10.965  16.222  67.803  1.00  0.00    -0.281 A  
HETATM    8  C   UNL     1     -10.815  16.607  69.144  1.00  0.00    -0.315 A  
HETATM    9  C   UNL     1     -11.132  15.717  70.174  1.00  0.00    -0.360 A  
HETATM   10  C   UNL     1     -11.603  14.446  69.859  1.00  0.00    -0.284 A  
HETATM   11  O   UNL     1     -11.899  13.539  70.832  1.00  0.00    -0.497 OA 
HETATM   12  C   UNL     1     -11.774  14.055  68.535  1.00  0.00    -0.387 A  
HETATM   13  C   UNL     1     -11.446  14.940  67.503  1.00  0.00    -0.361 A  
HETATM   14  H   UNL     1     -12.220  12.671  70.617  1.00  0.00     0.000 HD 
ENDBRANCH   5   7
ENDBRANCH   4   5
ENDBRANCH   3   4
ENDBRANCH   2   3
TORSDOF 4
ENDMDL
MODEL       93
REMARK 921   NORMALIZED FREE ENERGY PREDICTED BY IDOCK:   -3.50 KCAL/MOL
REMARK 922        TOTAL FREE ENERGY PREDICTED BY IDOCK:   -4.74 KCAL/MOL
REMARK 923 INTER-LIGAND FREE ENERGY PREDICTED BY IDOCK:   -4.55 KCAL/MOL
REMARK 924 INTRA-LIGAND FREE ENERGY PREDICTED BY IDOCK:   -0.19 KCAL/MOL
REMARK 927      BINDING AFFINITY PREDICTED BY RF-SCORE:    0.00 PKD
ROOT
HETATM    1  C   UNL     1     -12.475  13.602  70.882  1.00  0.00    -0.448 C  
HETATM    2  C   UNL     1     -11.545  13.390  69.697  1.00  0.00    -0.334 C  
ENDROOT
BRANCH   2   3
HETATM    3  C   UNL     1     -12.255  13.736  68.395  1.00  0.00    -0.146 C  
BRANCH   3   4
HETATM    4  O   UNL     1     -12.100  12.706  67.410  1.00  0.00    -0.432 OA 
BRANCH   4   5
HETATM    5  C   UNL     1     -12.193  13.102  66.116  1.00  0.00    -0.385 C  
HETATM    6  O   UNL     1     -12.804  14.071  65.699  1.00  0.00    -0.545 OA 
BRANCH   5   7
HETATM    7  C   UNL     1     -11.360  12.220  65.251  1.00  0.00    -0.384 A  
HETATM    8  C   UNL     1     -10.806  11.023  65.732  1.00  0.00    -0.167 A  
HETATM    9  C   UNL     1      -9.944  10.271  64.929  1.00  0.00    -0.393 A  
HETATM   10  C   UNL     1      -9.643  10.715  63.645  1.00  0.00    -0.314 A  
HETATM   11  O   UNL     1      -8.787  10.025  62.839  1.00  0.00    -0.189 OA 
HETATM   12  C   UNL     1     -10.198  11.890  63.147  1.00  0.00    -0.334 A  
HETATM   13  C   UNL     1     -11.051  12.650  63.953  1.00  0.00    -0.476 A  
HETATM   14  H   UNL     1      -8.582  10.328  61.962  1.00  0.00     0.000 HD 
ENDBRANCH   5   7
ENDBRANCH   4   5
ENDBRANCH   3   4
ENDBRANCH   2   3
TORSDOF 4
ENDMDL
MODEL       94
REMARK 921   NORMALIZED FREE ENERGY PREDICTED BY IDOCK:   -3.47 KCAL/MOL
REMARK 922        TOTAL FREE ENERGY PREDICTED BY IDOCK:   -4.71 KCAL/MOL
REMARK 923 INTER-LIGAND FREE ENERGY PREDICTED BY IDOCK:   -4.38 KCAL/MOL
REMARK 924 INTRA-LIGAND FREE ENERGY PREDICTED BY IDOCK:   -0.33 KCAL/MOL
REMARK 927      BINDING AFFINITY PREDICTED BY RF-SCORE:    0.00 PKD
ROOT
HETATM    1  C   UNL     1      -7.321  10.153  67.626  1.00  0.00    -0.089 C  
HETATM    2  C   UNL     1      -8.493  11.014  68.074  1.00  0.00    -0.129 C  
ENDROOT
BRANCH   2   3
HETATM    3  C   UNL     1      -9.637  10.916  67.073  1.00  0.00    -0.173 C  
BRANCH   3   4
HETATM    4  O   UNL     1     -10.884  10.613  67.714  1.00  0.00    -0.240 OA 
BRANCH   4   5
HETATM    5  C   UNL     1     -11.336  11.534  68.602  1.00  0.00    -0.269 C  
HETATM    6  O   UNL     1     -11.419  12.736  68.415  1.00  0.00    -0.265 OA 
BRANCH   5   7
HETATM    7  C   UNL     1     -11.808  10.859  69.843  1.00  0.00    -0.427 A  
HETATM    8  C   UNL     1     -11.500   9.517  70.117  1.00  0.00    -0.205 A  
HETATM    9  C   UNL     1     -12.044   8.882  71.237  1.00  0.00    -0.360 A  
HETATM   10  C   UNL     1     -12.888   9.593  72.084  1.00  0.00    -0.375 A  
HETATM   11  O   UNL     1     -13.460   9.005  73.173  1.00  0.00    -0.948 OA 
HETATM   12  C   UNL     1     -13.188  10.930  71.836  1.00  0.00    -0.508 A  
HETATM   13  C   UNL     1     -12.656  11.563  70.710  1.00  0.00    -0.390 A  
HETATM   14  H   UNL     1     -14.037   9.491  73.751  1.00  0.00     0.000 HD 
ENDBRANCH   5   7
ENDBRANCH   4   5
ENDBRANCH   3   4
ENDBRANCH   2   3
TORSDOF 4
ENDMDL
MODEL       95
REMARK 921   NORMALIZED FREE ENERGY PREDICTED BY IDOCK:   -3.47 KCAL/MOL
REMARK 922        TOTAL FREE ENERGY PREDICTED BY IDOCK:   -4.71 KCAL/MOL
REMARK 923 INTER-LIGAND FREE ENERGY PREDICTED BY IDOCK:   -4.31 KCAL/MOL
REMARK 924 INTRA-LIGAND FREE ENERGY PREDICTED BY IDOCK:   -0.40 KCAL/MOL
REMARK 927      BINDING AFFINITY PREDICTED BY RF-SCORE:    0.00 PKD
ROOT
HETATM    1  C   UNL     1     -14.118   8.824  72.235  1.00  0.00    -0.511 C  
HETATM    2  C   UNL     1     -13.722   7.506  71.587  1.00  0.00    -0.465 C  
ENDROOT
BRANCH   2   3
HETATM    3  C   UNL     1     -12.225   7.268  71.738  1.00  0.00    -0.334 C  
BRANCH   3   4
HETATM    4  O   UNL     1     -11.474   7.906  70.697  1.00  0.00    -0.278 OA 
BRANCH   4   5
HETATM    5  C   UNL     1     -10.609   8.873  71.094  1.00  0.00    -0.265 C  
HETATM    6  O   UNL     1      -9.782   8.780  71.985  1.00  0.00    -0.299 OA 
BRANCH   5   7
HETATM    7  C   UNL     1     -10.747  10.072  70.221  1.00  0.00    -0.367 A  
HETATM    8  C   UNL     1      -9.806  10.371  69.223  1.00  0.00    -0.243 A  
HETATM    9  C   UNL     1      -9.907  11.558  68.490  1.00  0.00    -0.198 A  
HETATM   10  C   UNL     1     -10.951  12.438  68.755  1.00  0.00    -0.246 A  
HETATM   11  O   UNL     1     -11.072  13.618  68.082  1.00  0.00    -0.240 OA 
HETATM   12  C   UNL     1     -11.902  12.147  69.728  1.00  0.00    -0.397 A  
HETATM   13  C   UNL     1     -11.796  10.967  70.470  1.00  0.00    -0.464 A  
HETATM   14  H   UNL     1     -11.785  14.219  68.263  1.00  0.00     0.000 HD 
ENDBRANCH   5   7
ENDBRANCH   4   5
ENDBRANCH   3   4
ENDBRANCH   2   3
TORSDOF 4
ENDMDL
MODEL       96
REMARK 921   NORMALIZED FREE ENERGY PREDICTED BY IDOCK:   -3.46 KCAL/MOL
REMARK 922        TOTAL FREE ENERGY PREDICTED BY IDOCK:   -4.70 KCAL/MOL
REMARK 923 INTER-LIGAND FREE ENERGY PREDICTED BY IDOCK:   -4.63 KCAL/MOL
REMARK 924 INTRA-LIGAND FREE ENERGY PREDICTED BY IDOCK:   -0.07 KCAL/MOL
REMARK 927      BINDING AFFINITY PREDICTED BY RF-SCORE:    0.00 PKD
ROOT
HETATM    1  C   UNL     1     -12.172  13.085  70.121  1.00  0.00    -0.342 C  
HETATM    2  C   UNL     1     -11.463  13.811  68.987  1.00  0.00    -0.349 C  
ENDROOT
BRANCH   2   3
HETATM    3  C   UNL     1     -11.945  15.253  68.897  1.00  0.00    -0.264 C  
BRANCH   3   4
HETATM    4  O   UNL     1     -11.168  16.130  69.724  1.00  0.00    -0.323 OA 
BRANCH   4   5
HETATM    5  C   UNL     1      -9.897  16.366  69.311  1.00  0.00    -0.240 C  
HETATM    6  O   UNL     1      -8.910  15.710  69.598  1.00  0.00    -0.252 OA 
BRANCH   5   7
HETATM    7  C   UNL     1      -9.873  17.518  68.366  1.00  0.00    -0.325 A  
HETATM    8  C   UNL     1      -9.876  18.846  68.821  1.00  0.00    -0.461 A  
HETATM    9  C   UNL     1      -9.958  19.904  67.911  1.00  0.00    -0.552 A  
HETATM   10  C   UNL     1     -10.031  19.630  66.548  1.00  0.00    -0.440 A  
HETATM   11  O   UNL     1     -10.138  20.630  65.628  1.00  0.00    -0.478 OA 
HETATM   12  C   UNL     1     -10.010  18.319  66.081  1.00  0.00    -0.313 A  
HETATM   13  C   UNL     1      -9.940  17.260  66.990  1.00  0.00    -0.289 A  
HETATM   14  H   UNL     1     -10.187  20.443  64.699  1.00  0.00     0.000 HD 
ENDBRANCH   5   7
ENDBRANCH   4   5
ENDBRANCH   3   4
ENDBRANCH   2   3
TORSDOF 4
ENDMDL
MODEL       97
REMARK 921   NORMALIZED FREE ENERGY PREDICTED BY IDOCK:   -3.45 KCAL/MOL
REMARK 922        TOTAL FREE ENERGY PREDICTED BY IDOCK:   -4.69 KCAL/MOL
REMARK 923 INTER-LIGAND FREE ENERGY PREDICTED BY IDOCK:   -4.46 KCAL/MOL
REMARK 924 INTRA-LIGAND FREE ENERGY PREDICTED BY IDOCK:   -0.23 KCAL/MOL
REMARK 927      BINDING AFFINITY PREDICTED BY RF-SCORE:    0.00 PKD
ROOT
HETATM    1  C   UNL     1      -8.446  17.470  67.098  1.00  0.00    -0.232 C  
HETATM    2  C   UNL     1      -9.866  17.095  67.495  1.00  0.00    -0.266 C  
ENDROOT
BRANCH   2   3
HETATM    3  C   UNL     1     -10.340  15.889  66.695  1.00  0.00    -0.300 C  
BRANCH   3   4
HETATM    4  O   UNL     1     -11.492  15.274  67.286  1.00  0.00    -0.319 OA 
BRANCH   4   5
HETATM    5  C   UNL     1     -11.729  13.986  66.928  1.00  0.00    -0.410 C  
HETATM    6  O   UNL     1     -11.787  13.553  65.790  1.00  0.00    -0.340 OA 
BRANCH   5   7
HETATM    7  C   UNL     1     -11.831  13.129  68.142  1.00  0.00    -0.386 A  
HETATM    8  C   UNL     1     -11.707  11.732  68.073  1.00  0.00    -0.363 A  
HETATM    9  C   UNL     1     -11.911  10.948  69.211  1.00  0.00    -0.382 A  
HETATM   10  C   UNL     1     -12.233  11.563  70.417  1.00  0.00    -0.355 A  
HETATM   11  O   UNL     1     -12.466  10.833  71.545  1.00  0.00    -0.369 OA 
HETATM   12  C   UNL     1     -12.342  12.947  70.506  1.00  0.00    -0.362 A  
HETATM   13  C   UNL     1     -12.150  13.733  69.366  1.00  0.00    -0.377 A  
HETATM   14  H   UNL     1     -12.686  11.253  72.368  1.00  0.00     0.000 HD 
ENDBRANCH   5   7
ENDBRANCH   4   5
ENDBRANCH   3   4
ENDBRANCH   2   3
TORSDOF 4
ENDMDL
MODEL       98
REMARK 921   NORMALIZED FREE ENERGY PREDICTED BY IDOCK:   -3.45 KCAL/MOL
REMARK 922        TOTAL FREE ENERGY PREDICTED BY IDOCK:   -4.68 KCAL/MOL
REMARK 923 INTER-LIGAND FREE ENERGY PREDICTED BY IDOCK:   -4.27 KCAL/MOL
REMARK 924 INTRA-LIGAND FREE ENERGY PREDICTED BY IDOCK:   -0.41 KCAL/MOL
REMARK 927      BINDING AFFINITY PREDICTED BY RF-SCORE:    0.00 PKD
ROOT
HETATM    1  C   UNL     1     -10.601  19.096  67.550  1.00  0.00    -0.567 C  
HETATM    2  C   UNL     1     -10.279  18.576  66.157  1.00  0.00    -0.424 C  
ENDROOT
BRANCH   2   3
HETATM    3  C   UNL     1     -10.076  17.067  66.187  1.00  0.00    -0.319 C  
BRANCH   3   4
HETATM    4  O   UNL     1      -9.404  16.642  67.380  1.00  0.00    -0.220 OA 
BRANCH   4   5
HETATM    5  C   UNL     1      -9.443  15.311  67.643  1.00  0.00    -0.205 C  
HETATM    6  O   UNL     1      -8.764  14.450  67.110  1.00  0.00    -0.204 OA 
BRANCH   5   7
HETATM    7  C   UNL     1     -10.393  15.038  68.757  1.00  0.00    -0.240 A  
HETATM    8  C   UNL     1     -11.190  13.882  68.782  1.00  0.00    -0.302 A  
HETATM    9  C   UNL     1     -12.146  13.705  69.786  1.00  0.00    -0.396 A  
HETATM   10  C   UNL     1     -12.298  14.681  70.766  1.00  0.00    -0.328 A  
HETATM   11  O   UNL     1     -13.235  14.560  71.748  1.00  0.00    -0.315 OA 
HETATM   12  C   UNL     1     -11.503  15.823  70.766  1.00  0.00    -0.423 A  
HETATM   13  C   UNL     1     -10.555  16.008  69.755  1.00  0.00    -0.323 A  
HETATM   14  H   UNL     1     -13.339  15.227  72.417  1.00  0.00     0.000 HD 
ENDBRANCH   5   7
ENDBRANCH   4   5
ENDBRANCH   3   4
ENDBRANCH   2   3
TORSDOF 4
ENDMDL
MODEL       99
REMARK 921   NORMALIZED FREE ENERGY PREDICTED BY IDOCK:   -3.41 KCAL/MOL
REMARK 922        TOTAL FREE ENERGY PREDICTED BY IDOCK:   -4.64 KCAL/MOL
REMARK 923 INTER-LIGAND FREE ENERGY PREDICTED BY IDOCK:   -4.25 KCAL/MOL
REMARK 924 INTRA-LIGAND FREE ENERGY PREDICTED BY IDOCK:   -0.39 KCAL/MOL
REMARK 927      BINDING AFFINITY PREDICTED BY RF-SCORE:    0.00 PKD
ROOT
HETATM    1  C   UNL     1      -8.586  17.695  68.411  1.00  0.00    -0.284 C  
HETATM    2  C   UNL     1     -10.095  17.801  68.246  1.00  0.00    -0.371 C  
ENDROOT
BRANCH   2   3
HETATM    3  C   UNL     1     -10.491  17.535  66.799  1.00  0.00    -0.270 C  
BRANCH   3   4
HETATM    4  O   UNL     1     -11.028  16.217  66.625  1.00  0.00    -0.211 OA 
BRANCH   4   5
HETATM    5  C   UNL     1     -10.124  15.234  66.384  1.00  0.00    -0.274 C  
HETATM    6  O   UNL     1      -9.067  15.355  65.788  1.00  0.00    -0.265 OA 
BRANCH   5   7
HETATM    7  C   UNL     1     -10.564  13.965  67.029  1.00  0.00    -0.279 A  
HETATM    8  C   UNL     1     -10.516  12.737  66.352  1.00  0.00    -0.265 A  
HETATM    9  C   UNL     1     -11.032  11.582  66.947  1.00  0.00    -0.350 A  
HETATM   10  C   UNL     1     -11.590  11.659  68.219  1.00  0.00    -0.310 A  
HETATM   11  O   UNL     1     -12.128  10.562  68.825  1.00  0.00    -0.739 OA 
HETATM   12  C   UNL     1     -11.629  12.866  68.911  1.00  0.00    -0.360 A  
HETATM   13  C   UNL     1     -11.124  14.024  68.313  1.00  0.00    -0.275 A  
HETATM   14  H   UNL     1     -12.509  10.615  69.693  1.00  0.00     0.000 HD 
ENDBRANCH   5   7
ENDBRANCH   4   5
ENDBRANCH   3   4
ENDBRANCH   2   3
TORSDOF 4
ENDMDL
MODEL      100
REMARK 921   NORMALIZED FREE ENERGY PREDICTED BY IDOCK:   -3.40 KCAL/MOL
REMARK 922        TOTAL FREE ENERGY PREDICTED BY IDOCK:   -4.62 KCAL/MOL
REMARK 923 INTER-LIGAND FREE ENERGY PREDICTED BY IDOCK:   -4.38 KCAL/MOL
REMARK 924 INTRA-LIGAND FREE ENERGY PREDICTED BY IDOCK:   -0.24 KCAL/MOL
REMARK 927      BINDING AFFINITY PREDICTED BY RF-SCORE:    0.00 PKD
ROOT
HETATM    1  C   UNL     1      -6.129  19.357  65.629  1.00  0.00    -0.224 C  
HETATM    2  C   UNL     1      -6.987  18.124  65.877  1.00  0.00    -0.319 C  
ENDROOT
BRANCH   2   3
HETATM    3  C   UNL     1      -7.946  18.369  67.035  1.00  0.00    -0.229 C  
BRANCH   3   4
HETATM    4  O   UNL     1      -8.658  17.180  67.400  1.00  0.00    -0.199 OA 
BRANCH   4   5
HETATM    5  C   UNL     1     -10.001  17.312  67.546  1.00  0.00    -0.296 C  
HETATM    6  O   UNL     1     -10.584  18.270  68.024  1.00  0.00    -0.383 OA 
BRANCH   5   7
HETATM    7  C   UNL     1     -10.697  16.135  66.955  1.00  0.00    -0.254 A  
HETATM    8  C   UNL     1     -11.397  15.214  67.752  1.00  0.00    -0.335 A  
HETATM    9  C   UNL     1     -11.951  14.065  67.181  1.00  0.00    -0.465 A  
HETATM   10  C   UNL     1     -11.810  13.843  65.815  1.00  0.00    -0.378 A  
HETATM   11  O   UNL     1     -12.313  12.723  65.222  1.00  0.00    -0.465 OA 
HETATM   12  C   UNL     1     -11.135  14.756  65.009  1.00  0.00    -0.412 A  
HETATM   13  C   UNL     1     -10.569  15.899  65.580  1.00  0.00    -0.419 A  
HETATM   14  H   UNL     1     -12.216  12.572  64.289  1.00  0.00     0.000 HD 
ENDBRANCH   5   7
ENDBRANCH   4   5
ENDBRANCH   3   4
ENDBRANCH   2   3
TORSDOF 4
ENDMDL
MODEL      101
REMARK 921   NORMALIZED FREE ENERGY PREDICTED BY IDOCK:   -3.40 KCAL/MOL
REMARK 922        TOTAL FREE ENERGY PREDICTED BY IDOCK:   -4.62 KCAL/MOL
REMARK 923 INTER-LIGAND FREE ENERGY PREDICTED BY IDOCK:   -4.36 KCAL/MOL
REMARK 924 INTRA-LIGAND FREE ENERGY PREDICTED BY IDOCK:   -0.25 KCAL/MOL
REMARK 927      BINDING AFFINITY PREDICTED BY RF-SCORE:    0.00 PKD
ROOT
HETATM    1  C   UNL     1      -6.038   9.958  64.680  1.00  0.00    -0.107 C  
HETATM    2  C   UNL     1      -7.519   9.747  64.399  1.00  0.00    -0.132 C  
ENDROOT
BRANCH   2   3
HETATM    3  C   UNL     1      -8.359  10.257  65.562  1.00  0.00    -0.164 C  
BRANCH   3   4
HETATM    4  O   UNL     1      -9.757  10.013  65.360  1.00  0.00    -0.260 OA 
BRANCH   4   5
HETATM    5  C   UNL     1     -10.604  10.714  66.155  1.00  0.00    -0.142 C  
HETATM    6  O   UNL     1     -10.967  10.402  67.276  1.00  0.00    -0.288 OA 
BRANCH   5   7
HETATM    7  C   UNL     1     -10.982  11.995  65.494  1.00  0.00    -0.345 A  
HETATM    8  C   UNL     1     -10.713  13.239  66.087  1.00  0.00    -0.287 A  
HETATM    9  C   UNL     1     -11.172  14.418  65.493  1.00  0.00    -0.330 A  
HETATM   10  C   UNL     1     -11.893  14.349  64.305  1.00  0.00    -0.364 A  
HETATM   11  O   UNL     1     -12.381  15.473  63.705  1.00  0.00    -0.976 OA 
HETATM   12  C   UNL     1     -12.152  13.125  63.695  1.00  0.00    -0.583 A  
HETATM   13  C   UNL     1     -11.704  11.944  64.294  1.00  0.00    -0.388 A  
HETATM   14  H   UNL     1     -12.873  15.426  62.894  1.00  0.00     0.000 HD 
ENDBRANCH   5   7
ENDBRANCH   4   5
ENDBRANCH   3   4
ENDBRANCH   2   3
TORSDOF 4
ENDMDL
MODEL      102
REMARK 921   NORMALIZED FREE ENERGY PREDICTED BY IDOCK:   -3.39 KCAL/MOL
REMARK 922        TOTAL FREE ENERGY PREDICTED BY IDOCK:   -4.61 KCAL/MOL
REMARK 923 INTER-LIGAND FREE ENERGY PREDICTED BY IDOCK:   -4.30 KCAL/MOL
REMARK 924 INTRA-LIGAND FREE ENERGY PREDICTED BY IDOCK:   -0.31 KCAL/MOL
REMARK 927      BINDING AFFINITY PREDICTED BY RF-SCORE:    0.00 PKD
ROOT
HETATM    1  C   UNL     1     -10.566   8.816  69.936  1.00  0.00    -0.230 C  
HETATM    2  C   UNL     1      -9.287   9.221  69.217  1.00  0.00    -0.160 C  
ENDROOT
BRANCH   2   3
HETATM    3  C   UNL     1      -9.338  10.693  68.830  1.00  0.00    -0.184 C  
BRANCH   3   4
HETATM    4  O   UNL     1     -10.669  11.115  68.506  1.00  0.00    -0.178 OA 
BRANCH   4   5
HETATM    5  C   UNL     1     -10.867  12.456  68.437  1.00  0.00    -0.238 C  
HETATM    6  O   UNL     1     -10.467  13.200  67.558  1.00  0.00    -0.226 OA 
BRANCH   5   7
HETATM    7  C   UNL     1     -11.733  12.903  69.563  1.00  0.00    -0.387 A  
HETATM    8  C   UNL     1     -12.014  14.261  69.785  1.00  0.00    -0.394 A  
HETATM    9  C   UNL     1     -12.743  14.657  70.910  1.00  0.00    -0.413 A  
HETATM   10  C   UNL     1     -13.193  13.693  71.807  1.00  0.00    -0.394 A  
HETATM   11  O   UNL     1     -13.885  14.038  72.930  1.00  0.00    -0.657 OA 
HETATM   12  C   UNL     1     -12.939  12.342  71.592  1.00  0.00    -0.416 A  
HETATM   13  C   UNL     1     -12.200  11.945  70.474  1.00  0.00    -0.426 A  
HETATM   14  H   UNL     1     -14.193  13.380  73.542  1.00  0.00     0.000 HD 
ENDBRANCH   5   7
ENDBRANCH   4   5
ENDBRANCH   3   4
ENDBRANCH   2   3
TORSDOF 4
ENDMDL
MODEL      103
REMARK 921   NORMALIZED FREE ENERGY PREDICTED BY IDOCK:   -3.37 KCAL/MOL
REMARK 922        TOTAL FREE ENERGY PREDICTED BY IDOCK:   -4.59 KCAL/MOL
REMARK 923 INTER-LIGAND FREE ENERGY PREDICTED BY IDOCK:   -4.30 KCAL/MOL
REMARK 924 INTRA-LIGAND FREE ENERGY PREDICTED BY IDOCK:   -0.29 KCAL/MOL
REMARK 927      BINDING AFFINITY PREDICTED BY RF-SCORE:    0.00 PKD
ROOT
HETATM    1  C   UNL     1      -6.980  13.722  69.013  1.00  0.00    -0.104 C  
HETATM    2  C   UNL     1      -6.384  13.230  67.702  1.00  0.00    -0.161 C  
ENDROOT
BRANCH   2   3
HETATM    3  C   UNL     1      -6.981  11.883  67.319  1.00  0.00    -0.145 C  
BRANCH   3   4
HETATM    4  O   UNL     1      -8.408  11.944  67.204  1.00  0.00    -0.161 OA 
BRANCH   4   5
HETATM    5  C   UNL     1      -8.971  11.084  66.318  1.00  0.00    -0.185 C  
HETATM    6  O   UNL     1      -8.758   9.886  66.240  1.00  0.00    -0.136 OA 
BRANCH   5   7
HETATM    7  C   UNL     1      -9.974  11.798  65.478  1.00  0.00    -0.273 A  
HETATM    8  C   UNL     1     -10.692  11.141  64.467  1.00  0.00    -0.368 A  
HETATM    9  C   UNL     1     -11.548  11.860  63.629  1.00  0.00    -0.559 A  
HETATM   10  C   UNL     1     -11.689  13.232  63.809  1.00  0.00    -0.421 A  
HETATM   11  O   UNL     1     -12.494  13.975  62.997  1.00  0.00    -1.101 OA 
HETATM   12  C   UNL     1     -10.998  13.895  64.819  1.00  0.00    -0.407 A  
HETATM   13  C   UNL     1     -10.131  13.180  65.650  1.00  0.00    -0.279 A  
HETATM   14  H   UNL     1     -12.589  14.913  63.120  1.00  0.00     0.000 HD 
ENDBRANCH   5   7
ENDBRANCH   4   5
ENDBRANCH   3   4
ENDBRANCH   2   3
TORSDOF 4
ENDMDL
MODEL      104
REMARK 921   NORMALIZED FREE ENERGY PREDICTED BY IDOCK:   -3.32 KCAL/MOL
REMARK 922        TOTAL FREE ENERGY PREDICTED BY IDOCK:   -4.53 KCAL/MOL
REMARK 923 INTER-LIGAND FREE ENERGY PREDICTED BY IDOCK:   -4.27 KCAL/MOL
REMARK 924 INTRA-LIGAND FREE ENERGY PREDICTED BY IDOCK:   -0.26 KCAL/MOL
REMARK 927      BINDING AFFINITY PREDICTED BY RF-SCORE:    0.00 PKD
ROOT
HETATM    1  C   UNL     1     -12.160   6.880  71.342  1.00  0.00    -0.408 C  
HETATM    2  C   UNL     1     -10.959   7.623  71.910  1.00  0.00    -0.282 C  
ENDROOT
BRANCH   2   3
HETATM    3  C   UNL     1     -11.123   9.125  71.714  1.00  0.00    -0.367 C  
BRANCH   3   4
HETATM    4  O   UNL     1     -11.897   9.431  70.547  1.00  0.00    -0.243 OA 
BRANCH   4   5
HETATM    5  C   UNL     1     -12.012  10.747  70.238  1.00  0.00    -0.351 C  
HETATM    6  O   UNL     1     -12.374  11.636  70.990  1.00  0.00    -0.360 OA 
BRANCH   5   7
HETATM    7  C   UNL     1     -11.547  10.988  68.843  1.00  0.00    -0.383 A  
HETATM    8  C   UNL     1     -11.895  12.151  68.139  1.00  0.00    -0.362 A  
HETATM    9  C   UNL     1     -11.531  12.300  66.798  1.00  0.00    -0.421 A  
HETATM   10  C   UNL     1     -10.815  11.288  66.167  1.00  0.00    -0.222 A  
HETATM   11  O   UNL     1     -10.462  11.382  64.853  1.00  0.00    -0.276 OA 
HETATM   12  C   UNL     1     -10.446  10.137  66.857  1.00  0.00    -0.286 A  
HETATM   13  C   UNL     1     -10.820   9.981  68.194  1.00  0.00    -0.303 A  
HETATM   14  H   UNL     1      -9.973  10.690  64.423  1.00  0.00     0.000 HD 
ENDBRANCH   5   7
ENDBRANCH   4   5
ENDBRANCH   3   4
ENDBRANCH   2   3
TORSDOF 4
ENDMDL
MODEL      105
REMARK 921   NORMALIZED FREE ENERGY PREDICTED BY IDOCK:   -3.32 KCAL/MOL
REMARK 922        TOTAL FREE ENERGY PREDICTED BY IDOCK:   -4.53 KCAL/MOL
REMARK 923 INTER-LIGAND FREE ENERGY PREDICTED BY IDOCK:   -4.34 KCAL/MOL
REMARK 924 INTRA-LIGAND FREE ENERGY PREDICTED BY IDOCK:   -0.19 KCAL/MOL
REMARK 927      BINDING AFFINITY PREDICTED BY RF-SCORE:    0.00 PKD
ROOT
HETATM    1  C   UNL     1      -6.919   6.301  65.872  1.00  0.00    -0.061 C  
HETATM    2  C   UNL     1      -7.782   7.344  66.566  1.00  0.00    -0.093 C  
ENDROOT
BRANCH   2   3
HETATM    3  C   UNL     1      -7.786   8.644  65.772  1.00  0.00    -0.100 C  
BRANCH   3   4
HETATM    4  O   UNL     1      -9.118   9.088  65.480  1.00  0.00    -0.207 OA 
BRANCH   4   5
HETATM    5  C   UNL     1      -9.266   9.815  64.344  1.00  0.00    -0.245 C  
HETATM    6  O   UNL     1      -8.735   9.592  63.269  1.00  0.00    -0.209 OA 
BRANCH   5   7
HETATM    7  C   UNL     1     -10.254  10.909  64.562  1.00  0.00    -0.422 A  
HETATM    8  C   UNL     1     -10.499  11.439  65.839  1.00  0.00    -0.309 A  
HETATM    9  C   UNL     1     -11.505  12.390  66.028  1.00  0.00    -0.431 A  
HETATM   10  C   UNL     1     -12.259  12.814  64.938  1.00  0.00    -0.463 A  
HETATM   11  O   UNL     1     -13.266  13.721  65.081  1.00  0.00    -0.757 OA 
HETATM   12  C   UNL     1     -12.016  12.312  63.663  1.00  0.00    -0.633 A  
HETATM   13  C   UNL     1     -11.018  11.351  63.474  1.00  0.00    -0.406 A  
HETATM   14  H   UNL     1     -13.781  14.009  64.337  1.00  0.00     0.000 HD 
ENDBRANCH   5   7
ENDBRANCH   4   5
ENDBRANCH   3   4
ENDBRANCH   2   3
TORSDOF 4
ENDMDL
MODEL      106
REMARK 921   NORMALIZED FREE ENERGY PREDICTED BY IDOCK:   -3.31 KCAL/MOL
REMARK 922        TOTAL FREE ENERGY PREDICTED BY IDOCK:   -4.51 KCAL/MOL
REMARK 923 INTER-LIGAND FREE ENERGY PREDICTED BY IDOCK:   -4.13 KCAL/MOL
REMARK 924 INTRA-LIGAND FREE ENERGY PREDICTED BY IDOCK:   -0.38 KCAL/MOL
REMARK 927      BINDING AFFINITY PREDICTED BY RF-SCORE:    0.00 PKD
ROOT
HETATM    1  C   UNL     1      -9.287  10.696  63.948  1.00  0.00    -0.302 C  
HETATM    2  C   UNL     1      -8.437   9.755  64.789  1.00  0.00    -0.172 C  
ENDROOT
BRANCH   2   3
HETATM    3  C   UNL     1      -9.307   9.002  65.786  1.00  0.00    -0.236 C  
BRANCH   3   4
HETATM    4  O   UNL     1     -10.447   9.772  66.190  1.00  0.00    -0.179 OA 
BRANCH   4   5
HETATM    5  C   UNL     1     -10.746   9.743  67.513  1.00  0.00    -0.264 C  
HETATM    6  O   UNL     1     -10.645   8.781  68.256  1.00  0.00    -0.210 OA 
BRANCH   5   7
HETATM    7  C   UNL     1     -11.149  11.101  67.976  1.00  0.00    -0.334 A  
HETATM    8  C   UNL     1     -11.392  11.377  69.331  1.00  0.00    -0.365 A  
HETATM    9  C   UNL     1     -11.870  12.632  69.720  1.00  0.00    -0.379 A  
HETATM   10  C   UNL     1     -12.097  13.607  68.755  1.00  0.00    -0.297 A  
HETATM   11  O   UNL     1     -12.586  14.835  69.089  1.00  0.00    -0.574 OA 
HETATM   12  C   UNL     1     -11.843  13.355  67.410  1.00  0.00    -0.418 A  
HETATM   13  C   UNL     1     -11.378  12.097  67.017  1.00  0.00    -0.398 A  
HETATM   14  H   UNL     1     -12.741  15.501  68.429  1.00  0.00     0.000 HD 
ENDBRANCH   5   7
ENDBRANCH   4   5
ENDBRANCH   3   4
ENDBRANCH   2   3
TORSDOF 4
ENDMDL
MODEL      107
REMARK 921   NORMALIZED FREE ENERGY PREDICTED BY IDOCK:   -3.30 KCAL/MOL
REMARK 922        TOTAL FREE ENERGY PREDICTED BY IDOCK:   -4.50 KCAL/MOL
REMARK 923 INTER-LIGAND FREE ENERGY PREDICTED BY IDOCK:   -4.22 KCAL/MOL
REMARK 924 INTRA-LIGAND FREE ENERGY PREDICTED BY IDOCK:   -0.27 KCAL/MOL
REMARK 927      BINDING AFFINITY PREDICTED BY RF-SCORE:    0.00 PKD
ROOT
HETATM    1  C   UNL     1      -9.294   4.028  69.024  1.00  0.00    -0.237 C  
HETATM    2  C   UNL     1      -9.856   4.175  70.431  1.00  0.00    -0.237 C  
ENDROOT
BRANCH   2   3
HETATM    3  C   UNL     1      -9.658   5.598  70.936  1.00  0.00    -0.169 C  
BRANCH   3   4
HETATM    4  O   UNL     1     -10.771   6.441  70.608  1.00  0.00    -0.230 OA 
BRANCH   4   5
HETATM    5  C   UNL     1     -10.472   7.593  69.957  1.00  0.00    -0.229 C  
HETATM    6  O   UNL     1      -9.683   7.718  69.036  1.00  0.00    -0.154 OA 
BRANCH   5   7
HETATM    7  C   UNL     1     -11.318   8.706  70.472  1.00  0.00    -0.241 A  
HETATM    8  C   UNL     1     -11.188  10.018  69.989  1.00  0.00    -0.345 A  
HETATM    9  C   UNL     1     -11.922  11.058  70.565  1.00  0.00    -0.474 A  
HETATM   10  C   UNL     1     -12.789  10.783  71.618  1.00  0.00    -0.457 A  
HETATM   11  O   UNL     1     -13.504  11.772  72.225  1.00  0.00    -0.611 OA 
HETATM   12  C   UNL     1     -12.943   9.485  72.096  1.00  0.00    -0.497 A  
HETATM   13  C   UNL     1     -12.200   8.445  71.530  1.00  0.00    -0.340 A  
HETATM   14  H   UNL     1     -14.095  11.584  72.944  1.00  0.00     0.000 HD 
ENDBRANCH   5   7
ENDBRANCH   4   5
ENDBRANCH   3   4
ENDBRANCH   2   3
TORSDOF 4
ENDMDL
MODEL      108
REMARK 921   NORMALIZED FREE ENERGY PREDICTED BY IDOCK:   -3.29 KCAL/MOL
REMARK 922        TOTAL FREE ENERGY PREDICTED BY IDOCK:   -4.49 KCAL/MOL
REMARK 923 INTER-LIGAND FREE ENERGY PREDICTED BY IDOCK:   -4.11 KCAL/MOL
REMARK 924 INTRA-LIGAND FREE ENERGY PREDICTED BY IDOCK:   -0.38 KCAL/MOL
REMARK 927      BINDING AFFINITY PREDICTED BY RF-SCORE:    0.00 PKD
ROOT
HETATM    1  C   UNL     1     -11.185  10.909  70.274  1.00  0.00    -0.271 C  
HETATM    2  C   UNL     1     -11.154   9.591  69.514  1.00  0.00    -0.168 C  
ENDROOT
BRANCH   2   3
HETATM    3  C   UNL     1      -9.832   9.435  68.775  1.00  0.00    -0.163 C  
BRANCH   3   4
HETATM    4  O   UNL     1      -9.991   9.579  67.357  1.00  0.00    -0.167 OA 
BRANCH   4   5
HETATM    5  C   UNL     1      -9.353  10.635  66.791  1.00  0.00    -0.157 C  
HETATM    6  O   UNL     1      -8.189  10.954  66.966  1.00  0.00    -0.126 OA 
BRANCH   5   7
HETATM    7  C   UNL     1     -10.262  11.330  65.837  1.00  0.00    -0.298 A  
HETATM    8  C   UNL     1     -11.379  12.058  66.277  1.00  0.00    -0.415 A  
HETATM    9  C   UNL     1     -12.270  12.611  65.354  1.00  0.00    -0.517 A  
HETATM   10  C   UNL     1     -12.040  12.438  63.993  1.00  0.00    -0.475 A  
HETATM   11  O   UNL     1     -12.898  12.939  63.059  1.00  0.00    -0.487 OA 
HETATM   12  C   UNL     1     -10.928  11.734  63.540  1.00  0.00    -0.499 A  
HETATM   13  C   UNL     1     -10.042  11.170  64.462  1.00  0.00    -0.364 A  
HETATM   14  H   UNL     1     -12.740  12.820  62.130  1.00  0.00     0.000 HD 
ENDBRANCH   5   7
ENDBRANCH   4   5
ENDBRANCH   3   4
ENDBRANCH   2   3
TORSDOF 4
ENDMDL
MODEL      109
REMARK 921   NORMALIZED FREE ENERGY PREDICTED BY IDOCK:   -3.24 KCAL/MOL
REMARK 922        TOTAL FREE ENERGY PREDICTED BY IDOCK:   -4.42 KCAL/MOL
REMARK 923 INTER-LIGAND FREE ENERGY PREDICTED BY IDOCK:   -4.26 KCAL/MOL
REMARK 924 INTRA-LIGAND FREE ENERGY PREDICTED BY IDOCK:   -0.17 KCAL/MOL
REMARK 927      BINDING AFFINITY PREDICTED BY RF-SCORE:    0.00 PKD
ROOT
HETATM    1  C   UNL     1      -9.066   9.602  64.687  1.00  0.00    -0.286 C  
HETATM    2  C   UNL     1      -8.880   9.635  66.197  1.00  0.00    -0.173 C  
ENDROOT
BRANCH   2   3
HETATM    3  C   UNL     1      -9.878   8.706  66.875  1.00  0.00    -0.238 C  
BRANCH   3   4
HETATM    4  O   UNL     1     -10.307   9.216  68.145  1.00  0.00    -0.198 OA 
BRANCH   4   5
HETATM    5  C   UNL     1      -9.791   8.600  69.238  1.00  0.00    -0.188 C  
HETATM    6  O   UNL     1      -8.647   8.199  69.369  1.00  0.00    -0.132 OA 
BRANCH   5   7
HETATM    7  C   UNL     1     -10.811   8.547  70.323  1.00  0.00    -0.249 A  
HETATM    8  C   UNL     1     -11.445   7.347  70.682  1.00  0.00    -0.307 A  
HETATM    9  C   UNL     1     -12.471   7.347  71.631  1.00  0.00    -0.381 A  
HETATM   10  C   UNL     1     -12.856   8.547  72.223  1.00  0.00    -0.355 A  
HETATM   11  O   UNL     1     -13.869   8.595  73.134  1.00  0.00    -0.940 OA 
HETATM   12  C   UNL     1     -12.224   9.742  71.891  1.00  0.00    -0.378 A  
HETATM   13  C   UNL     1     -11.206   9.745  70.933  1.00  0.00    -0.429 A  
HETATM   14  H   UNL     1     -14.131   9.414  73.537  1.00  0.00     0.000 HD 
ENDBRANCH   5   7
ENDBRANCH   4   5
ENDBRANCH   3   4
ENDBRANCH   2   3
TORSDOF 4
ENDMDL
MODEL      110
REMARK 921   NORMALIZED FREE ENERGY PREDICTED BY IDOCK:   -3.23 KCAL/MOL
REMARK 922        TOTAL FREE ENERGY PREDICTED BY IDOCK:   -4.42 KCAL/MOL
REMARK 923 INTER-LIGAND FREE ENERGY PREDICTED BY IDOCK:   -4.15 KCAL/MOL
REMARK 924 INTRA-LIGAND FREE ENERGY PREDICTED BY IDOCK:   -0.27 KCAL/MOL
REMARK 927      BINDING AFFINITY PREDICTED BY RF-SCORE:    0.00 PKD
ROOT
HETATM    1  C   UNL     1      -5.346  19.711  64.966  1.00  0.00    -0.194 C  
HETATM    2  C   UNL     1      -6.738  20.281  65.195  1.00  0.00    -0.337 C  
ENDROOT
BRANCH   2   3
HETATM    3  C   UNL     1      -7.549  19.357  66.095  1.00  0.00    -0.297 C  
BRANCH   3   4
HETATM    4  O   UNL     1      -7.655  18.036  65.549  1.00  0.00    -0.530 OA 
BRANCH   4   5
HETATM    5  C   UNL     1      -7.377  17.017  66.400  1.00  0.00    -0.293 C  
HETATM    6  O   UNL     1      -6.269  16.674  66.780  1.00  0.00    -0.221 OA 
BRANCH   5   7
HETATM    7  C   UNL     1      -8.642  16.401  66.891  1.00  0.00    -0.245 A  
HETATM    8  C   UNL     1      -9.552  15.787  66.017  1.00  0.00    -0.388 A  
HETATM    9  C   UNL     1     -10.777  15.312  66.493  1.00  0.00    -0.311 A  
HETATM   10  C   UNL     1     -11.085  15.447  67.843  1.00  0.00    -0.323 A  
HETATM   11  O   UNL     1     -12.279  15.020  68.344  1.00  0.00    -0.573 OA 
HETATM   12  C   UNL     1     -10.186  16.037  68.726  1.00  0.00    -0.225 A  
HETATM   13  C   UNL     1      -8.965  16.524  68.249  1.00  0.00    -0.214 A  
HETATM   14  H   UNL     1     -12.490  15.113  69.266  1.00  0.00     0.000 HD 
ENDBRANCH   5   7
ENDBRANCH   4   5
ENDBRANCH   3   4
ENDBRANCH   2   3
TORSDOF 4
ENDMDL
MODEL      111
REMARK 921   NORMALIZED FREE ENERGY PREDICTED BY IDOCK:   -3.23 KCAL/MOL
REMARK 922        TOTAL FREE ENERGY PREDICTED BY IDOCK:   -4.42 KCAL/MOL
REMARK 923 INTER-LIGAND FREE ENERGY PREDICTED BY IDOCK:   -4.12 KCAL/MOL
REMARK 924 INTRA-LIGAND FREE ENERGY PREDICTED BY IDOCK:   -0.30 KCAL/MOL
REMARK 927      BINDING AFFINITY PREDICTED BY RF-SCORE:    0.00 PKD
ROOT
HETATM    1  C   UNL     1     -11.867  12.562  64.767  1.00  0.00    -0.440 C  
HETATM    2  C   UNL     1     -11.070  11.529  65.550  1.00  0.00    -0.254 C  
ENDROOT
BRANCH   2   3
HETATM    3  C   UNL     1     -10.242  12.207  66.633  1.00  0.00    -0.201 C  
BRANCH   3   4
HETATM    4  O   UNL     1     -10.214  13.632  66.473  1.00  0.00    -0.272 OA 
BRANCH   4   5
HETATM    5  C   UNL     1     -10.593  14.359  67.553  1.00  0.00    -0.265 C  
HETATM    6  O   UNL     1     -10.914  13.918  68.644  1.00  0.00    -0.244 OA 
BRANCH   5   7
HETATM    7  C   UNL     1     -10.487  15.814  67.253  1.00  0.00    -0.308 A  
HETATM    8  C   UNL     1     -10.565  16.785  68.264  1.00  0.00    -0.352 A  
HETATM    9  C   UNL     1     -10.566  18.145  67.939  1.00  0.00    -0.389 A  
HETATM   10  C   UNL     1     -10.484  18.529  66.604  1.00  0.00    -0.398 A  
HETATM   11  O   UNL     1     -10.509  19.843  66.242  1.00  0.00    -0.470 OA 
HETATM   12  C   UNL     1     -10.389  17.579  65.591  1.00  0.00    -0.145 A  
HETATM   13  C   UNL     1     -10.399  16.219  65.914  1.00  0.00    -0.381 A  
HETATM   14  H   UNL     1     -10.453  20.105  65.330  1.00  0.00     0.000 HD 
ENDBRANCH   5   7
ENDBRANCH   4   5
ENDBRANCH   3   4
ENDBRANCH   2   3
TORSDOF 4
ENDMDL
MODEL      112
REMARK 921   NORMALIZED FREE ENERGY PREDICTED BY IDOCK:   -3.22 KCAL/MOL
REMARK 922        TOTAL FREE ENERGY PREDICTED BY IDOCK:   -4.39 KCAL/MOL
REMARK 923 INTER-LIGAND FREE ENERGY PREDICTED BY IDOCK:   -4.07 KCAL/MOL
REMARK 924 INTRA-LIGAND FREE ENERGY PREDICTED BY IDOCK:   -0.32 KCAL/MOL
REMARK 927      BINDING AFFINITY PREDICTED BY RF-SCORE:    0.00 PKD
ROOT
HETATM    1  C   UNL     1     -11.619  11.812  69.292  1.00  0.00    -0.378 C  
HETATM    2  C   UNL     1     -12.386  12.188  70.551  1.00  0.00    -0.358 C  
ENDROOT
BRANCH   2   3
HETATM    3  C   UNL     1     -12.743  10.941  71.349  1.00  0.00    -0.434 C  
BRANCH   3   4
HETATM    4  O   UNL     1     -12.050   9.782  70.867  1.00  0.00    -0.296 OA 
BRANCH   4   5
HETATM    5  C   UNL     1     -12.190   8.654  71.609  1.00  0.00    -0.333 C  
HETATM    6  O   UNL     1     -13.213   8.006  71.752  1.00  0.00    -0.335 OA 
BRANCH   5   7
HETATM    7  C   UNL     1     -10.874   8.251  72.180  1.00  0.00    -0.390 A  
HETATM    8  C   UNL     1     -10.778   7.333  73.238  1.00  0.00    -0.428 A  
HETATM    9  C   UNL     1      -9.538   7.055  73.820  1.00  0.00    -0.281 A  
HETATM   10  C   UNL     1      -8.398   7.690  73.339  1.00  0.00    -0.158 A  
HETATM   11  O   UNL     1      -7.173   7.467  73.895  1.00  0.00    -0.085 OA 
HETATM   12  C   UNL     1      -8.475   8.589  72.279  1.00  0.00    -0.216 A  
HETATM   13  C   UNL     1      -9.715   8.879  71.704  1.00  0.00    -0.379 A  
HETATM   14  H   UNL     1      -6.395   7.901  73.567  1.00  0.00     0.000 HD 
ENDBRANCH   5   7
ENDBRANCH   4   5
ENDBRANCH   3   4
ENDBRANCH   2   3
TORSDOF 4
ENDMDL
MODEL      113
REMARK 921   NORMALIZED FREE ENERGY PREDICTED BY IDOCK:   -3.21 KCAL/MOL
REMARK 922        TOTAL FREE ENERGY PREDICTED BY IDOCK:   -4.39 KCAL/MOL
REMARK 923 INTER-LIGAND FREE ENERGY PREDICTED BY IDOCK:   -4.16 KCAL/MOL
REMARK 924 INTRA-LIGAND FREE ENERGY PREDICTED BY IDOCK:   -0.24 KCAL/MOL
REMARK 927      BINDING AFFINITY PREDICTED BY RF-SCORE:    0.00 PKD
ROOT
HETATM    1  C   UNL     1     -12.343  12.185  63.471  1.00  0.00    -0.682 C  
HETATM    2  C   UNL     1     -11.735  13.266  64.352  1.00  0.00    -0.433 C  
ENDROOT
BRANCH   2   3
HETATM    3  C   UNL     1     -11.908  12.914  65.823  1.00  0.00    -0.419 C  
BRANCH   3   4
HETATM    4  O   UNL     1     -11.502  11.567  66.102  1.00  0.00    -0.308 OA 
BRANCH   4   5
HETATM    5  C   UNL     1     -10.334  11.427  66.778  1.00  0.00    -0.234 C  
HETATM    6  O   UNL     1      -9.279  11.981  66.521  1.00  0.00    -0.209 OA 
BRANCH   5   7
HETATM    7  C   UNL     1     -10.532  10.544  67.962  1.00  0.00    -0.232 A  
HETATM    8  C   UNL     1     -10.178   9.186  67.938  1.00  0.00    -0.266 A  
HETATM    9  C   UNL     1     -10.472   8.360  69.027  1.00  0.00    -0.216 A  
HETATM   10  C   UNL     1     -11.114   8.897  70.139  1.00  0.00    -0.201 A  
HETATM   11  O   UNL     1     -11.441   8.122  71.212  1.00  0.00    -0.256 OA 
HETATM   12  C   UNL     1     -11.455  10.245  70.185  1.00  0.00    -0.383 A  
HETATM   13  C   UNL     1     -11.173  11.070  69.092  1.00  0.00    -0.318 A  
HETATM   14  H   UNL     1     -11.880   8.488  71.970  1.00  0.00     0.000 HD 
ENDBRANCH   5   7
ENDBRANCH   4   5
ENDBRANCH   3   4
ENDBRANCH   2   3
TORSDOF 4
ENDMDL
MODEL      114
REMARK 921   NORMALIZED FREE ENERGY PREDICTED BY IDOCK:   -3.21 KCAL/MOL
REMARK 922        TOTAL FREE ENERGY PREDICTED BY IDOCK:   -4.39 KCAL/MOL
REMARK 923 INTER-LIGAND FREE ENERGY PREDICTED BY IDOCK:   -4.15 KCAL/MOL
REMARK 924 INTRA-LIGAND FREE ENERGY PREDICTED BY IDOCK:   -0.24 KCAL/MOL
REMARK 927      BINDING AFFINITY PREDICTED BY RF-SCORE:    0.00 PKD
ROOT
HETATM    1  C   UNL     1     -12.709  12.682  64.686  1.00  0.00    -0.458 C  
HETATM    2  C   UNL     1     -12.873  13.960  65.496  1.00  0.00    -0.471 C  
ENDROOT
BRANCH   2   3
HETATM    3  C   UNL     1     -12.191  13.821  66.851  1.00  0.00    -0.366 C  
BRANCH   3   4
HETATM    4  O   UNL     1     -11.838  15.096  67.405  1.00  0.00    -0.264 OA 
BRANCH   4   5
HETATM    5  C   UNL     1     -10.603  15.181  67.960  1.00  0.00    -0.258 C  
HETATM    6  O   UNL     1     -10.163  14.477  68.854  1.00  0.00    -0.231 OA 
BRANCH   5   7
HETATM    7  C   UNL     1      -9.800  16.224  67.263  1.00  0.00    -0.243 A  
HETATM    8  C   UNL     1      -8.462  16.004  66.899  1.00  0.00    -0.275 A  
HETATM    9  C   UNL     1      -7.704  17.037  66.340  1.00  0.00    -0.350 A  
HETATM   10  C   UNL     1      -8.288  18.284  66.141  1.00  0.00    -0.129 A  
HETATM   11  O   UNL     1      -7.577  19.326  65.622  1.00  0.00    -0.443 OA 
HETATM   12  C   UNL     1      -9.618  18.512  66.479  1.00  0.00    -0.335 A  
HETATM   13  C   UNL     1     -10.374  17.484  67.050  1.00  0.00    -0.324 A  
HETATM   14  H   UNL     1      -7.976  20.177  65.487  1.00  0.00     0.000 HD 
ENDBRANCH   5   7
ENDBRANCH   4   5
ENDBRANCH   3   4
ENDBRANCH   2   3
TORSDOF 4
ENDMDL
MODEL      115
REMARK 921   NORMALIZED FREE ENERGY PREDICTED BY IDOCK:   -3.19 KCAL/MOL
REMARK 922        TOTAL FREE ENERGY PREDICTED BY IDOCK:   -4.37 KCAL/MOL
REMARK 923 INTER-LIGAND FREE ENERGY PREDICTED BY IDOCK:   -4.19 KCAL/MOL
REMARK 924 INTRA-LIGAND FREE ENERGY PREDICTED BY IDOCK:   -0.18 KCAL/MOL
REMARK 927      BINDING AFFINITY PREDICTED BY RF-SCORE:    0.00 PKD
ROOT
HETATM    1  C   UNL     1      -7.850  18.918  66.909  1.00  0.00    -0.256 C  
HETATM    2  C   UNL     1      -8.047  17.458  66.530  1.00  0.00    -0.312 C  
ENDROOT
BRANCH   2   3
HETATM    3  C   UNL     1      -9.529  17.141  66.386  1.00  0.00    -0.269 C  
BRANCH   3   4
HETATM    4  O   UNL     1      -9.867  15.882  66.983  1.00  0.00    -0.226 OA 
BRANCH   4   5
HETATM    5  C   UNL     1     -10.993  15.866  67.740  1.00  0.00    -0.315 C  
HETATM    6  O   UNL     1     -11.653  16.836  68.073  1.00  0.00     0.001 OA 
BRANCH   5   7
HETATM    7  C   UNL     1     -11.379  14.462  68.054  1.00  0.00    -0.316 A  
HETATM    8  C   UNL     1     -11.536  14.017  69.376  1.00  0.00    -0.343 A  
HETATM    9  C   UNL     1     -11.795  12.669  69.641  1.00  0.00    -0.379 A  
HETATM   10  C   UNL     1     -11.903  11.772  68.583  1.00  0.00    -0.310 A  
HETATM   11  O   UNL     1     -12.129  10.445  68.799  1.00  0.00    -0.723 OA 
HETATM   12  C   UNL     1     -11.767  12.201  67.266  1.00  0.00    -0.369 A  
HETATM   13  C   UNL     1     -11.496  13.546  66.999  1.00  0.00    -0.369 A  
HETATM   14  H   UNL     1     -12.202   9.832  68.076  1.00  0.00     0.000 HD 
ENDBRANCH   5   7
ENDBRANCH   4   5
ENDBRANCH   3   4
ENDBRANCH   2   3
TORSDOF 4
ENDMDL
MODEL      116
REMARK 921   NORMALIZED FREE ENERGY PREDICTED BY IDOCK:   -3.19 KCAL/MOL
REMARK 922        TOTAL FREE ENERGY PREDICTED BY IDOCK:   -4.36 KCAL/MOL
REMARK 923 INTER-LIGAND FREE ENERGY PREDICTED BY IDOCK:   -4.08 KCAL/MOL
REMARK 924 INTRA-LIGAND FREE ENERGY PREDICTED BY IDOCK:   -0.28 KCAL/MOL
REMARK 927      BINDING AFFINITY PREDICTED BY RF-SCORE:    0.00 PKD
ROOT
HETATM    1  C   UNL     1      -6.130  15.680  67.882  1.00  0.00    -0.163 C  
HETATM    2  C   UNL     1      -7.399  16.508  67.744  1.00  0.00    -0.154 C  
ENDROOT
BRANCH   2   3
HETATM    3  C   UNL     1      -8.362  15.845  66.768  1.00  0.00    -0.271 C  
BRANCH   3   4
HETATM    4  O   UNL     1      -9.511  15.305  67.434  1.00  0.00    -0.197 OA 
BRANCH   4   5
HETATM    5  C   UNL     1      -9.618  13.952  67.431  1.00  0.00    -0.235 C  
HETATM    6  O   UNL     1      -9.142  13.188  68.254  1.00  0.00    -0.196 OA 
BRANCH   5   7
HETATM    7  C   UNL     1     -10.488  13.511  66.305  1.00  0.00    -0.290 A  
HETATM    8  C   UNL     1     -11.880  13.689  66.333  1.00  0.00    -0.433 A  
HETATM    9  C   UNL     1     -12.679  13.171  65.309  1.00  0.00    -0.457 A  
HETATM   10  C   UNL     1     -12.082  12.484  64.257  1.00  0.00    -0.428 A  
HETATM   11  O   UNL     1     -12.826  11.941  63.252  1.00  0.00    -0.751 OA 
HETATM   12  C   UNL     1     -10.702  12.315  64.205  1.00  0.00    -0.389 A  
HETATM   13  C   UNL     1      -9.903  12.821  65.234  1.00  0.00    -0.118 A  
HETATM   14  H   UNL     1     -12.419  11.471  62.534  1.00  0.00     0.000 HD 
ENDBRANCH   5   7
ENDBRANCH   4   5
ENDBRANCH   3   4
ENDBRANCH   2   3
TORSDOF 4
ENDMDL
MODEL      117
REMARK 921   NORMALIZED FREE ENERGY PREDICTED BY IDOCK:   -3.18 KCAL/MOL
REMARK 922        TOTAL FREE ENERGY PREDICTED BY IDOCK:   -4.35 KCAL/MOL
REMARK 923 INTER-LIGAND FREE ENERGY PREDICTED BY IDOCK:   -3.99 KCAL/MOL
REMARK 924 INTRA-LIGAND FREE ENERGY PREDICTED BY IDOCK:   -0.37 KCAL/MOL
REMARK 927      BINDING AFFINITY PREDICTED BY RF-SCORE:    0.00 PKD
ROOT
HETATM    1  C   UNL     1     -11.176  15.654  71.577  1.00  0.00    -0.373 C  
HETATM    2  C   UNL     1     -11.252  16.574  70.367  1.00  0.00    -0.125 C  
ENDROOT
BRANCH   2   3
HETATM    3  C   UNL     1     -11.061  15.779  69.082  1.00  0.00    -0.283 C  
BRANCH   3   4
HETATM    4  O   UNL     1     -12.060  14.762  68.929  1.00  0.00    -0.279 OA 
BRANCH   4   5
HETATM    5  C   UNL     1     -11.861  13.880  67.917  1.00  0.00    -0.378 C  
HETATM    6  O   UNL     1     -11.841  14.141  66.726  1.00  0.00    -0.386 OA 
BRANCH   5   7
HETATM    7  C   UNL     1     -11.579  12.525  68.469  1.00  0.00    -0.364 A  
HETATM    8  C   UNL     1     -11.852  12.200  69.807  1.00  0.00    -0.397 A  
HETATM    9  C   UNL     1     -11.481  10.955  70.321  1.00  0.00    -0.391 A  
HETATM   10  C   UNL     1     -10.843  10.036  69.494  1.00  0.00    -0.253 A  
HETATM   11  O   UNL     1     -10.442   8.820  69.962  1.00  0.00    -0.202 OA 
HETATM   12  C   UNL     1     -10.582  10.336  68.160  1.00  0.00    -0.258 A  
HETATM   13  C   UNL     1     -10.941  11.585  67.647  1.00  0.00    -0.296 A  
HETATM   14  H   UNL     1     -10.006   8.192  69.397  1.00  0.00     0.000 HD 
ENDBRANCH   5   7
ENDBRANCH   4   5
ENDBRANCH   3   4
ENDBRANCH   2   3
TORSDOF 4
ENDMDL
MODEL      118
REMARK 921   NORMALIZED FREE ENERGY PREDICTED BY IDOCK:   -3.16 KCAL/MOL
REMARK 922        TOTAL FREE ENERGY PREDICTED BY IDOCK:   -4.32 KCAL/MOL
REMARK 923 INTER-LIGAND FREE ENERGY PREDICTED BY IDOCK:   -4.11 KCAL/MOL
REMARK 924 INTRA-LIGAND FREE ENERGY PREDICTED BY IDOCK:   -0.22 KCAL/MOL
REMARK 927      BINDING AFFINITY PREDICTED BY RF-SCORE:    0.00 PKD
ROOT
HETATM    1  C   UNL     1      -6.426  12.206  69.266  1.00  0.00    -0.111 C  
HETATM    2  C   UNL     1      -6.998  13.116  68.188  1.00  0.00    -0.108 C  
ENDROOT
BRANCH   2   3
HETATM    3  C   UNL     1      -8.520  13.064  68.202  1.00  0.00    -0.176 C  
BRANCH   3   4
HETATM    4  O   UNL     1      -9.101  14.357  67.982  1.00  0.00    -0.176 OA 
BRANCH   4   5
HETATM    5  C   UNL     1      -9.246  14.730  66.686  1.00  0.00    -0.275 C  
HETATM    6  O   UNL     1      -8.556  15.538  66.086  1.00  0.00    -0.265 OA 
BRANCH   5   7
HETATM    7  C   UNL     1     -10.337  13.944  66.046  1.00  0.00    -0.310 A  
HETATM    8  C   UNL     1     -10.070  12.950  65.091  1.00  0.00    -0.241 A  
HETATM    9  C   UNL     1     -11.119  12.303  64.433  1.00  0.00    -0.381 A  
HETATM   10  C   UNL     1     -12.433  12.647  64.736  1.00  0.00    -0.484 A  
HETATM   11  O   UNL     1     -13.485  12.058  64.099  1.00  0.00    -0.672 OA 
HETATM   12  C   UNL     1     -12.715  13.617  65.693  1.00  0.00    -0.505 A  
HETATM   13  C   UNL     1     -11.667  14.274  66.343  1.00  0.00    -0.403 A  
HETATM   14  H   UNL     1     -14.382  12.294  64.306  1.00  0.00     0.000 HD 
ENDBRANCH   5   7
ENDBRANCH   4   5
ENDBRANCH   3   4
ENDBRANCH   2   3
TORSDOF 4
ENDMDL
MODEL      119
REMARK 921   NORMALIZED FREE ENERGY PREDICTED BY IDOCK:   -3.16 KCAL/MOL
REMARK 922        TOTAL FREE ENERGY PREDICTED BY IDOCK:   -4.32 KCAL/MOL
REMARK 923 INTER-LIGAND FREE ENERGY PREDICTED BY IDOCK:   -4.09 KCAL/MOL
REMARK 924 INTRA-LIGAND FREE ENERGY PREDICTED BY IDOCK:   -0.23 KCAL/MOL
REMARK 927      BINDING AFFINITY PREDICTED BY RF-SCORE:    0.00 PKD
ROOT
HETATM    1  C   UNL     1      -7.755   6.914  70.793  1.00  0.00    -0.092 C  
HETATM    2  C   UNL     1      -8.440   8.222  70.425  1.00  0.00    -0.129 C  
ENDROOT
BRANCH   2   3
HETATM    3  C   UNL     1      -9.774   8.346  71.148  1.00  0.00    -0.186 C  
BRANCH   3   4
HETATM    4  O   UNL     1     -10.793   8.893  70.301  1.00  0.00    -0.230 OA 
BRANCH   4   5
HETATM    5  C   UNL     1     -11.687   9.717  70.903  1.00  0.00    -0.347 C  
HETATM    6  O   UNL     1     -12.304   9.488  71.929  1.00  0.00    -0.373 OA 
BRANCH   5   7
HETATM    7  C   UNL     1     -11.761  11.013  70.170  1.00  0.00    -0.442 A  
HETATM    8  C   UNL     1     -12.196  12.192  70.796  1.00  0.00    -0.367 A  
HETATM    9  C   UNL     1     -12.353  13.367  70.057  1.00  0.00    -0.294 A  
HETATM   10  C   UNL     1     -12.071  13.361  68.695  1.00  0.00    -0.246 A  
HETATM   11  O   UNL     1     -12.235  14.479  67.931  1.00  0.00    -0.599 OA 
HETATM   12  C   UNL     1     -11.622  12.205  68.063  1.00  0.00    -0.411 A  
HETATM   13  C   UNL     1     -11.475  11.026  68.798  1.00  0.00    -0.372 A  
HETATM   14  H   UNL     1     -12.042  14.475  67.001  1.00  0.00     0.000 HD 
ENDBRANCH   5   7
ENDBRANCH   4   5
ENDBRANCH   3   4
ENDBRANCH   2   3
TORSDOF 4
ENDMDL
MODEL      120
REMARK 921   NORMALIZED FREE ENERGY PREDICTED BY IDOCK:   -3.15 KCAL/MOL
REMARK 922        TOTAL FREE ENERGY PREDICTED BY IDOCK:   -4.31 KCAL/MOL
REMARK 923 INTER-LIGAND FREE ENERGY PREDICTED BY IDOCK:   -3.84 KCAL/MOL
REMARK 924 INTRA-LIGAND FREE ENERGY PREDICTED BY IDOCK:   -0.47 KCAL/MOL
REMARK 927      BINDING AFFINITY PREDICTED BY RF-SCORE:    0.00 PKD
ROOT
HETATM    1  C   UNL     1      -9.286   4.939  73.144  1.00  0.00    -0.125 C  
HETATM    2  C   UNL     1     -10.574   5.555  73.670  1.00  0.00    -0.316 C  
ENDROOT
BRANCH   2   3
HETATM    3  C   UNL     1     -10.395   7.050  73.894  1.00  0.00    -0.348 C  
BRANCH   3   4
HETATM    4  O   UNL     1     -10.027   7.732  72.688  1.00  0.00    -0.195 OA 
BRANCH   4   5
HETATM    5  C   UNL     1     -11.052   8.191  71.928  1.00  0.00    -0.285 C  
HETATM    6  O   UNL     1     -11.975   8.893  72.307  1.00  0.00    -0.355 OA 
BRANCH   5   7
HETATM    7  C   UNL     1     -10.859   7.784  70.508  1.00  0.00    -0.245 A  
HETATM    8  C   UNL     1     -10.542   8.717  69.508  1.00  0.00    -0.224 A  
HETATM    9  C   UNL     1     -10.470   8.321  68.170  1.00  0.00    -0.226 A  
HETATM   10  C   UNL     1     -10.708   6.991  67.836  1.00  0.00    -0.210 A  
HETATM   11  O   UNL     1     -10.672   6.568  66.540  1.00  0.00    -0.499 OA 
HETATM   12  C   UNL     1     -11.004   6.050  68.817  1.00  0.00    -0.384 A  
HETATM   13  C   UNL     1     -11.090   6.447  70.155  1.00  0.00    -0.428 A  
HETATM   14  H   UNL     1     -10.835   5.660  66.313  1.00  0.00     0.000 HD 
ENDBRANCH   5   7
ENDBRANCH   4   5
ENDBRANCH   3   4
ENDBRANCH   2   3
TORSDOF 4
ENDMDL
MODEL      121
REMARK 921   NORMALIZED FREE ENERGY PREDICTED BY IDOCK:   -3.15 KCAL/MOL
REMARK 922        TOTAL FREE ENERGY PREDICTED BY IDOCK:   -4.31 KCAL/MOL
REMARK 923 INTER-LIGAND FREE ENERGY PREDICTED BY IDOCK:   -4.12 KCAL/MOL
REMARK 924 INTRA-LIGAND FREE ENERGY PREDICTED BY IDOCK:   -0.19 KCAL/MOL
REMARK 927      BINDING AFFINITY PREDICTED BY RF-SCORE:    0.00 PKD
ROOT
HETATM    1  C   UNL     1     -10.869   7.800  72.913  1.00  0.00    -0.453 C  
HETATM    2  C   UNL     1     -10.700   7.865  71.402  1.00  0.00    -0.258 C  
ENDROOT
BRANCH   2   3
HETATM    3  C   UNL     1     -10.949   9.281  70.900  1.00  0.00    -0.299 C  
BRANCH   3   4
HETATM    4  O   UNL     1     -10.967   9.345  69.468  1.00  0.00    -0.234 OA 
BRANCH   4   5
HETATM    5  C   UNL     1     -10.017  10.127  68.895  1.00  0.00    -0.199 C  
HETATM    6  O   UNL     1      -8.811   9.950  68.943  1.00  0.00    -0.131 OA 
BRANCH   5   7
HETATM    7  C   UNL     1     -10.658  11.217  68.108  1.00  0.00    -0.225 A  
HETATM    8  C   UNL     1     -11.322  12.286  68.731  1.00  0.00    -0.337 A  
HETATM    9  C   UNL     1     -12.002  13.237  67.966  1.00  0.00    -0.351 A  
HETATM   10  C   UNL     1     -12.013  13.119  66.579  1.00  0.00    -0.398 A  
HETATM   11  O   UNL     1     -12.686  14.010  65.797  1.00  0.00    -0.516 OA 
HETATM   12  C   UNL     1     -11.345  12.076  65.946  1.00  0.00    -0.391 A  
HETATM   13  C   UNL     1     -10.674  11.117  66.710  1.00  0.00    -0.326 A  
HETATM   14  H   UNL     1     -12.693  13.930  64.850  1.00  0.00     0.000 HD 
ENDBRANCH   5   7
ENDBRANCH   4   5
ENDBRANCH   3   4
ENDBRANCH   2   3
TORSDOF 4
ENDMDL
MODEL      122
REMARK 921   NORMALIZED FREE ENERGY PREDICTED BY IDOCK:   -3.13 KCAL/MOL
REMARK 922        TOTAL FREE ENERGY PREDICTED BY IDOCK:   -4.29 KCAL/MOL
REMARK 923 INTER-LIGAND FREE ENERGY PREDICTED BY IDOCK:   -4.06 KCAL/MOL
REMARK 924 INTRA-LIGAND FREE ENERGY PREDICTED BY IDOCK:   -0.22 KCAL/MOL
REMARK 927      BINDING AFFINITY PREDICTED BY RF-SCORE:    0.00 PKD
ROOT
HETATM    1  C   UNL     1     -12.912   9.510  72.078  1.00  0.00    -0.514 C  
HETATM    2  C   UNL     1     -13.275  10.344  70.858  1.00  0.00    -0.321 C  
ENDROOT
BRANCH   2   3
HETATM    3  C   UNL     1     -12.053  11.095  70.346  1.00  0.00    -0.385 C  
BRANCH   3   4
HETATM    4  O   UNL     1     -11.712  10.713  69.006  1.00  0.00    -0.277 OA 
BRANCH   4   5
HETATM    5  C   UNL     1     -10.447  10.257  68.822  1.00  0.00    -0.203 C  
HETATM    6  O   UNL     1      -9.688   9.864  69.691  1.00  0.00    -0.204 OA 
BRANCH   5   7
HETATM    7  C   UNL     1     -10.124  10.222  67.368  1.00  0.00    -0.246 A  
HETATM    8  C   UNL     1     -10.585  11.211  66.484  1.00  0.00    -0.314 A  
HETATM    9  C   UNL     1     -10.353  11.094  65.111  1.00  0.00    -0.354 A  
HETATM   10  C   UNL     1      -9.656   9.992  64.626  1.00  0.00    -0.297 A  
HETATM   11  O   UNL     1      -9.431   9.826  63.292  1.00  0.00    -0.466 OA 
HETATM   12  C   UNL     1      -9.177   9.012  65.491  1.00  0.00    -0.262 A  
HETATM   13  C   UNL     1      -9.418   9.121  66.863  1.00  0.00    -0.222 A  
HETATM   14  H   UNL     1      -8.955   9.073  62.961  1.00  0.00     0.000 HD 
ENDBRANCH   5   7
ENDBRANCH   4   5
ENDBRANCH   3   4
ENDBRANCH   2   3
TORSDOF 4
ENDMDL
MODEL      123
REMARK 921   NORMALIZED FREE ENERGY PREDICTED BY IDOCK:   -3.11 KCAL/MOL
REMARK 922        TOTAL FREE ENERGY PREDICTED BY IDOCK:   -4.26 KCAL/MOL
REMARK 923 INTER-LIGAND FREE ENERGY PREDICTED BY IDOCK:   -4.08 KCAL/MOL
REMARK 924 INTRA-LIGAND FREE ENERGY PREDICTED BY IDOCK:   -0.18 KCAL/MOL
REMARK 927      BINDING AFFINITY PREDICTED BY RF-SCORE:    0.00 PKD
ROOT
HETATM    1  C   UNL     1     -13.809  15.387  72.642  1.00  0.00    -0.625 C  
HETATM    2  C   UNL     1     -12.366  15.414  72.160  1.00  0.00    -0.458 C  
ENDROOT
BRANCH   2   3
HETATM    3  C   UNL     1     -12.268  14.865  70.743  1.00  0.00    -0.325 C  
BRANCH   3   4
HETATM    4  O   UNL     1     -11.978  15.895  69.789  1.00  0.00    -0.332 OA 
BRANCH   4   5
HETATM    5  C   UNL     1     -11.619  15.475  68.550  1.00  0.00    -0.368 C  
HETATM    6  O   UNL     1     -11.992  14.454  67.998  1.00  0.00    -0.334 OA 
BRANCH   5   7
HETATM    7  C   UNL     1     -10.746  16.492  67.898  1.00  0.00    -0.337 A  
HETATM    8  C   UNL     1     -11.033  17.001  66.622  1.00  0.00     0.176 A  
HETATM    9  C   UNL     1     -10.141  17.875  65.994  1.00  0.00    -0.258 A  
HETATM   10  C   UNL     1      -8.968  18.241  66.647  1.00  0.00    -0.288 A  
HETATM   11  O   UNL     1      -8.059  19.070  66.060  1.00  0.00    -0.417 OA 
HETATM   12  C   UNL     1      -8.678  17.759  67.920  1.00  0.00    -0.251 A  
HETATM   13  C   UNL     1      -9.563  16.875  68.544  1.00  0.00    -0.262 A  
HETATM   14  H   UNL     1      -7.258  19.320  66.506  1.00  0.00     0.000 HD 
ENDBRANCH   5   7
ENDBRANCH   4   5
ENDBRANCH   3   4
ENDBRANCH   2   3
TORSDOF 4
ENDMDL
MODEL      124
REMARK 921   NORMALIZED FREE ENERGY PREDICTED BY IDOCK:   -3.10 KCAL/MOL
REMARK 922        TOTAL FREE ENERGY PREDICTED BY IDOCK:   -4.25 KCAL/MOL
REMARK 923 INTER-LIGAND FREE ENERGY PREDICTED BY IDOCK:   -4.01 KCAL/MOL
REMARK 924 INTRA-LIGAND FREE ENERGY PREDICTED BY IDOCK:   -0.23 KCAL/MOL
REMARK 927      BINDING AFFINITY PREDICTED BY RF-SCORE:    0.00 PKD
ROOT
HETATM    1  C   UNL     1     -12.365  14.692  64.318  1.00  0.00    -0.375 C  
HETATM    2  C   UNL     1     -12.144  13.262  63.847  1.00  0.00    -0.531 C  
ENDROOT
BRANCH   2   3
HETATM    3  C   UNL     1     -11.341  12.481  64.879  1.00  0.00    -0.310 C  
BRANCH   3   4
HETATM    4  O   UNL     1     -12.126  12.158  66.034  1.00  0.00    -0.612 OA 
BRANCH   4   5
HETATM    5  C   UNL     1     -11.719  12.712  67.204  1.00  0.00    -0.371 C  
HETATM    6  O   UNL     1     -12.056  13.798  67.644  1.00  0.00    -0.363 OA 
BRANCH   5   7
HETATM    7  C   UNL     1     -10.842  11.761  67.943  1.00  0.00    -0.255 A  
HETATM    8  C   UNL     1      -9.496  12.055  68.213  1.00  0.00    -0.199 A  
HETATM    9  C   UNL     1      -8.672  11.100  68.816  1.00  0.00    -0.130 A  
HETATM   10  C   UNL     1      -9.199   9.856  69.151  1.00  0.00    -0.180 A  
HETATM   11  O   UNL     1      -8.424   8.887  69.717  1.00  0.00    -0.121 OA 
HETATM   12  C   UNL     1     -10.535   9.556  68.906  1.00  0.00    -0.235 A  
HETATM   13  C   UNL     1     -11.357  10.506  68.292  1.00  0.00    -0.332 A  
HETATM   14  H   UNL     1      -8.783   8.038  69.946  1.00  0.00     0.000 HD 
ENDBRANCH   5   7
ENDBRANCH   4   5
ENDBRANCH   3   4
ENDBRANCH   2   3
TORSDOF 4
ENDMDL
MODEL      125
REMARK 921   NORMALIZED FREE ENERGY PREDICTED BY IDOCK:   -3.09 KCAL/MOL
REMARK 922        TOTAL FREE ENERGY PREDICTED BY IDOCK:   -4.24 KCAL/MOL
REMARK 923 INTER-LIGAND FREE ENERGY PREDICTED BY IDOCK:   -4.01 KCAL/MOL
REMARK 924 INTRA-LIGAND FREE ENERGY PREDICTED BY IDOCK:   -0.23 KCAL/MOL
REMARK 927      BINDING AFFINITY PREDICTED BY RF-SCORE:    0.00 PKD
ROOT
HETATM    1  C   UNL     1      -9.698  20.297  66.774  1.00  0.00    -0.571 C  
HETATM    2  C   UNL     1     -10.281  19.773  68.078  1.00  0.00    -0.581 C  
ENDROOT
BRANCH   2   3
HETATM    3  C   UNL     1     -10.758  18.337  67.906  1.00  0.00    -0.311 C  
BRANCH   3   4
HETATM    4  O   UNL     1     -10.486  17.541  69.067  1.00  0.00    -0.350 OA 
BRANCH   4   5
HETATM    5  C   UNL     1     -11.139  16.354  69.141  1.00  0.00    -0.303 C  
HETATM    6  O   UNL     1     -12.266  16.175  69.571  1.00  0.00    -0.151 OA 
BRANCH   5   7
HETATM    7  C   UNL     1     -10.309  15.275  68.535  1.00  0.00    -0.231 A  
HETATM    8  C   UNL     1      -8.956  15.108  68.869  1.00  0.00    -0.206 A  
HETATM    9  C   UNL     1      -8.177  14.155  68.207  1.00  0.00    -0.148 A  
HETATM   10  C   UNL     1      -8.756  13.367  67.217  1.00  0.00    -0.218 A  
HETATM   11  O   UNL     1      -8.026  12.443  66.529  1.00  0.00    -0.395 OA 
HETATM   12  C   UNL     1     -10.100  13.508  66.887  1.00  0.00    -0.256 A  
HETATM   13  C   UNL     1     -10.877  14.469  67.539  1.00  0.00    -0.289 A  
HETATM   14  H   UNL     1      -8.421  11.906  65.853  1.00  0.00     0.000 HD 
ENDBRANCH   5   7
ENDBRANCH   4   5
ENDBRANCH   3   4
ENDBRANCH   2   3
TORSDOF 4
ENDMDL
MODEL      126
REMARK 921   NORMALIZED FREE ENERGY PREDICTED BY IDOCK:   -3.09 KCAL/MOL
REMARK 922        TOTAL FREE ENERGY PREDICTED BY IDOCK:   -4.24 KCAL/MOL
REMARK 923 INTER-LIGAND FREE ENERGY PREDICTED BY IDOCK:   -3.94 KCAL/MOL
REMARK 924 INTRA-LIGAND FREE ENERGY PREDICTED BY IDOCK:   -0.29 KCAL/MOL
REMARK 927      BINDING AFFINITY PREDICTED BY RF-SCORE:    0.00 PKD
ROOT
HETATM    1  C   UNL     1     -13.010  11.761  71.756  1.00  0.00    -0.466 C  
HETATM    2  C   UNL     1     -12.515  11.045  70.507  1.00  0.00    -0.432 C  
ENDROOT
BRANCH   2   3
HETATM    3  C   UNL     1     -11.556   9.924  70.883  1.00  0.00    -0.373 C  
BRANCH   3   4
HETATM    4  O   UNL     1     -11.919   9.303  72.124  1.00  0.00    -0.344 OA 
BRANCH   4   5
HETATM    5  C   UNL     1     -12.406   8.039  72.036  1.00  0.00    -0.326 C  
HETATM    6  O   UNL     1     -13.525   7.721  71.670  1.00  0.00    -0.347 OA 
BRANCH   5   7
HETATM    7  C   UNL     1     -11.340   7.056  72.378  1.00  0.00    -0.307 A  
HETATM    8  C   UNL     1     -10.436   7.281  73.428  1.00  0.00    -0.423 A  
HETATM    9  C   UNL     1      -9.384   6.390  73.657  1.00  0.00    -0.150 A  
HETATM   10  C   UNL     1      -9.243   5.273  72.839  1.00  0.00    -0.131 A  
HETATM   11  O   UNL     1      -8.216   4.393  73.012  1.00  0.00    -0.093 OA 
HETATM   12  C   UNL     1     -10.141   5.026  71.805  1.00  0.00    -0.262 A  
HETATM   13  C   UNL     1     -11.187   5.923  71.567  1.00  0.00    -0.290 A  
HETATM   14  H   UNL     1      -8.119   3.631  72.453  1.00  0.00     0.000 HD 
ENDBRANCH   5   7
ENDBRANCH   4   5
ENDBRANCH   3   4
ENDBRANCH   2   3
TORSDOF 4
ENDMDL
MODEL      127
REMARK 921   NORMALIZED FREE ENERGY PREDICTED BY IDOCK:   -3.08 KCAL/MOL
REMARK 922        TOTAL FREE ENERGY PREDICTED BY IDOCK:   -4.23 KCAL/MOL
REMARK 923 INTER-LIGAND FREE ENERGY PREDICTED BY IDOCK:   -3.78 KCAL/MOL
REMARK 924 INTRA-LIGAND FREE ENERGY PREDICTED BY IDOCK:   -0.44 KCAL/MOL
REMARK 927      BINDING AFFINITY PREDICTED BY RF-SCORE:    0.00 PKD
ROOT
HETATM    1  C   UNL     1      -9.380   7.977  73.397  1.00  0.00    -0.323 C  
HETATM    2  C   UNL     1     -10.729   7.272  73.422  1.00  0.00    -0.415 C  
ENDROOT
BRANCH   2   3
HETATM    3  C   UNL     1     -11.716   7.983  72.507  1.00  0.00    -0.387 C  
BRANCH   3   4
HETATM    4  O   UNL     1     -11.990   7.224  71.321  1.00  0.00    -0.294 OA 
BRANCH   4   5
HETATM    5  C   UNL     1     -11.277   7.566  70.218  1.00  0.00    -0.236 C  
HETATM    6  O   UNL     1     -10.988   8.697  69.868  1.00  0.00    -0.234 OA 
BRANCH   5   7
HETATM    7  C   UNL     1     -10.810   6.340  69.512  1.00  0.00    -0.404 A  
HETATM    8  C   UNL     1     -10.249   5.256  70.205  1.00  0.00    -0.345 A  
HETATM    9  C   UNL     1      -9.725   4.165  69.506  1.00  0.00    -0.254 A  
HETATM   10  C   UNL     1      -9.770   4.160  68.115  1.00  0.00    -0.088 A  
HETATM   11  O   UNL     1      -9.247   3.128  67.393  1.00  0.00    -0.163 OA 
HETATM   12  C   UNL     1     -10.339   5.218  67.414  1.00  0.00    -0.237 A  
HETATM   13  C   UNL     1     -10.852   6.316  68.111  1.00  0.00    -0.401 A  
HETATM   14  H   UNL     1      -9.277   3.124  66.444  1.00  0.00     0.000 HD 
ENDBRANCH   5   7
ENDBRANCH   4   5
ENDBRANCH   3   4
ENDBRANCH   2   3
TORSDOF 4
ENDMDL
MODEL      128
REMARK 921   NORMALIZED FREE ENERGY PREDICTED BY IDOCK:   -3.07 KCAL/MOL
REMARK 922        TOTAL FREE ENERGY PREDICTED BY IDOCK:   -4.21 KCAL/MOL
REMARK 923 INTER-LIGAND FREE ENERGY PREDICTED BY IDOCK:   -3.92 KCAL/MOL
REMARK 924 INTRA-LIGAND FREE ENERGY PREDICTED BY IDOCK:   -0.29 KCAL/MOL
REMARK 927      BINDING AFFINITY PREDICTED BY RF-SCORE:    0.00 PKD
ROOT
HETATM    1  C   UNL     1     -10.557   5.283  66.421  1.00  0.00    -0.338 C  
HETATM    2  C   UNL     1     -11.103   6.551  67.060  1.00  0.00    -0.411 C  
ENDROOT
BRANCH   2   3
HETATM    3  C   UNL     1     -10.260   6.944  68.266  1.00  0.00    -0.180 C  
BRANCH   3   4
HETATM    4  O   UNL     1      -9.805   8.301  68.182  1.00  0.00    -0.161 OA 
BRANCH   4   5
HETATM    5  C   UNL     1     -10.299   9.153  69.116  1.00  0.00    -0.212 C  
HETATM    6  O   UNL     1     -10.336   8.961  70.320  1.00  0.00    -0.192 OA 
BRANCH   5   7
HETATM    7  C   UNL     1     -10.728  10.425  68.471  1.00  0.00    -0.255 A  
HETATM    8  C   UNL     1     -11.330  11.459  69.206  1.00  0.00    -0.355 A  
HETATM    9  C   UNL     1     -11.815  12.597  68.556  1.00  0.00    -0.342 A  
HETATM   10  C   UNL     1     -11.692  12.701  67.174  1.00  0.00    -0.371 A  
HETATM   11  O   UNL     1     -12.174  13.782  66.498  1.00  0.00    -0.435 OA 
HETATM   12  C   UNL     1     -11.081  11.693  66.434  1.00  0.00    -0.347 A  
HETATM   13  C   UNL     1     -10.606  10.548  67.081  1.00  0.00    -0.319 A  
HETATM   14  H   UNL     1     -12.091  13.852  65.554  1.00  0.00     0.000 HD 
ENDBRANCH   5   7
ENDBRANCH   4   5
ENDBRANCH   3   4
ENDBRANCH   2   3
TORSDOF 4
ENDMDL
MODEL      129
REMARK 921   NORMALIZED FREE ENERGY PREDICTED BY IDOCK:   -3.06 KCAL/MOL
REMARK 922        TOTAL FREE ENERGY PREDICTED BY IDOCK:   -4.20 KCAL/MOL
REMARK 923 INTER-LIGAND FREE ENERGY PREDICTED BY IDOCK:   -3.85 KCAL/MOL
REMARK 924 INTRA-LIGAND FREE ENERGY PREDICTED BY IDOCK:   -0.35 KCAL/MOL
REMARK 927      BINDING AFFINITY PREDICTED BY RF-SCORE:    0.00 PKD
ROOT
HETATM    1  C   UNL     1      -9.763  11.905  67.052  1.00  0.00    -0.204 C  
HETATM    2  C   UNL     1     -11.251  12.219  66.997  1.00  0.00    -0.367 C  
ENDROOT
BRANCH   2   3
HETATM    3  C   UNL     1     -11.482  13.588  66.373  1.00  0.00    -0.331 C  
BRANCH   3   4
HETATM    4  O   UNL     1     -12.252  14.443  67.229  1.00  0.00    -0.383 OA 
BRANCH   4   5
HETATM    5  C   UNL     1     -11.774  14.610  68.488  1.00  0.00    -0.316 C  
HETATM    6  O   UNL     1     -12.136  14.005  69.483  1.00  0.00    -0.320 OA 
BRANCH   5   7
HETATM    7  C   UNL     1     -10.661  15.600  68.485  1.00  0.00    -0.264 A  
HETATM    8  C   UNL     1      -9.362  15.252  68.888  1.00  0.00    -0.213 A  
HETATM    9  C   UNL     1      -8.364  16.227  68.974  1.00  0.00    -0.239 A  
HETATM   10  C   UNL     1      -8.667  17.546  68.651  1.00  0.00    -0.258 A  
HETATM   11  O   UNL     1      -7.731  18.532  68.746  1.00  0.00    -0.305 OA 
HETATM   12  C   UNL     1      -9.945  17.904  68.233  1.00  0.00    -0.360 A  
HETATM   13  C   UNL     1     -10.948  16.932  68.158  1.00  0.00    -0.290 A  
HETATM   14  H   UNL     1      -7.938  19.433  68.526  1.00  0.00     0.000 HD 
ENDBRANCH   5   7
ENDBRANCH   4   5
ENDBRANCH   3   4
ENDBRANCH   2   3
TORSDOF 4
ENDMDL
MODEL      130
REMARK 921   NORMALIZED FREE ENERGY PREDICTED BY IDOCK:   -3.03 KCAL/MOL
REMARK 922        TOTAL FREE ENERGY PREDICTED BY IDOCK:   -4.17 KCAL/MOL
REMARK 923 INTER-LIGAND FREE ENERGY PREDICTED BY IDOCK:   -4.04 KCAL/MOL
REMARK 924 INTRA-LIGAND FREE ENERGY PREDICTED BY IDOCK:   -0.13 KCAL/MOL
REMARK 927      BINDING AFFINITY PREDICTED BY RF-SCORE:    0.00 PKD
ROOT
HETATM    1  C   UNL     1      -5.731   7.671  70.516  1.00  0.00    -0.026 C  
HETATM    2  C   UNL     1      -6.701   6.951  69.590  1.00  0.00    -0.050 C  
ENDROOT
BRANCH   2   3
HETATM    3  C   UNL     1      -8.072   6.835  70.243  1.00  0.00    -0.120 C  
BRANCH   3   4
HETATM    4  O   UNL     1      -8.965   7.865  69.798  1.00  0.00    -0.144 OA 
BRANCH   4   5
HETATM    5  C   UNL     1      -9.160   8.896  70.658  1.00  0.00    -0.207 C  
HETATM    6  O   UNL     1      -8.349   9.760  70.945  1.00  0.00    -0.210 OA 
BRANCH   5   7
HETATM    7  C   UNL     1     -10.562   8.883  71.162  1.00  0.00    -0.335 A  
HETATM    8  C   UNL     1     -11.435   9.960  70.945  1.00  0.00    -0.456 A  
HETATM    9  C   UNL     1     -12.709   9.963  71.519  1.00  0.00    -0.515 A  
HETATM   10  C   UNL     1     -13.109   8.886  72.304  1.00  0.00    -0.436 A  
HETATM   11  O   UNL     1     -14.333   8.861  72.903  1.00  0.00    -1.050 OA 
HETATM   12  C   UNL     1     -12.261   7.803  72.514  1.00  0.00    -0.193 A  
HETATM   13  C   UNL     1     -10.982   7.803  71.951  1.00  0.00    -0.294 A  
HETATM   14  H   UNL     1     -14.605   8.126  73.439  1.00  0.00     0.000 HD 
ENDBRANCH   5   7
ENDBRANCH   4   5
ENDBRANCH   3   4
ENDBRANCH   2   3
TORSDOF 4
ENDMDL
MODEL      131
REMARK 921   NORMALIZED FREE ENERGY PREDICTED BY IDOCK:   -3.03 KCAL/MOL
REMARK 922        TOTAL FREE ENERGY PREDICTED BY IDOCK:   -4.17 KCAL/MOL
REMARK 923 INTER-LIGAND FREE ENERGY PREDICTED BY IDOCK:   -3.66 KCAL/MOL
REMARK 924 INTRA-LIGAND FREE ENERGY PREDICTED BY IDOCK:   -0.50 KCAL/MOL
REMARK 927      BINDING AFFINITY PREDICTED BY RF-SCORE:    0.00 PKD
ROOT
HETATM    1  C   UNL     1     -12.271  13.926  69.967  1.00  0.00    -0.408 C  
HETATM    2  C   UNL     1     -11.373  14.827  69.130  1.00  0.00    -0.302 C  
ENDROOT
BRANCH   2   3
HETATM    3  C   UNL     1     -11.447  14.434  67.661  1.00  0.00    -0.346 C  
BRANCH   3   4
HETATM    4  O   UNL     1     -12.242  13.257  67.461  1.00  0.00    -0.304 OA 
BRANCH   4   5
HETATM    5  C   UNL     1     -11.770  12.368  66.551  1.00  0.00    -0.379 C  
HETATM    6  O   UNL     1     -11.889  12.443  65.340  1.00  0.00    -0.387 OA 
BRANCH   5   7
HETATM    7  C   UNL     1     -10.993  11.298  67.237  1.00  0.00    -0.342 A  
HETATM    8  C   UNL     1     -11.475  10.658  68.390  1.00  0.00    -0.330 A  
HETATM    9  C   UNL     1     -10.678   9.733  69.069  1.00  0.00    -0.238 A  
HETATM   10  C   UNL     1      -9.404   9.445  68.590  1.00  0.00    -0.142 A  
HETATM   11  O   UNL     1      -8.585   8.568  69.237  1.00  0.00    -0.126 OA 
HETATM   12  C   UNL     1      -8.919  10.057  67.439  1.00  0.00    -0.139 A  
HETATM   13  C   UNL     1      -9.709  10.992  66.764  1.00  0.00    -0.222 A  
HETATM   14  H   UNL     1      -7.715   8.372  68.910  1.00  0.00     0.000 HD 
ENDBRANCH   5   7
ENDBRANCH   4   5
ENDBRANCH   3   4
ENDBRANCH   2   3
TORSDOF 4
ENDMDL
MODEL      132
REMARK 921   NORMALIZED FREE ENERGY PREDICTED BY IDOCK:   -3.03 KCAL/MOL
REMARK 922        TOTAL FREE ENERGY PREDICTED BY IDOCK:   -4.16 KCAL/MOL
REMARK 923 INTER-LIGAND FREE ENERGY PREDICTED BY IDOCK:   -3.82 KCAL/MOL
REMARK 924 INTRA-LIGAND FREE ENERGY PREDICTED BY IDOCK:   -0.35 KCAL/MOL
REMARK 927      BINDING AFFINITY PREDICTED BY RF-SCORE:    0.00 PKD
ROOT
HETATM    1  C   UNL     1      -9.549  10.850  64.653  1.00  0.00    -0.305 C  
HETATM    2  C   UNL     1      -8.945  11.026  66.039  1.00  0.00    -0.209 C  
ENDROOT
BRANCH   2   3
HETATM    3  C   UNL     1      -9.920  10.551  67.108  1.00  0.00    -0.193 C  
BRANCH   3   4
HETATM    4  O   UNL     1     -10.084  11.521  68.151  1.00  0.00    -0.181 OA 
BRANCH   4   5
HETATM    5  C   UNL     1     -11.303  12.110  68.230  1.00  0.00    -0.289 C  
HETATM    6  O   UNL     1     -12.376  11.538  68.331  1.00  0.00    -0.461 OA 
BRANCH   5   7
HETATM    7  C   UNL     1     -11.154  13.592  68.261  1.00  0.00    -0.287 A  
HETATM    8  C   UNL     1     -11.992  14.403  69.042  1.00  0.00    -0.342 A  
HETATM    9  C   UNL     1     -11.896  15.795  68.969  1.00  0.00    -0.367 A  
HETATM   10  C   UNL     1     -10.957  16.372  68.120  1.00  0.00    -0.339 A  
HETATM   11  O   UNL     1     -10.846  17.726  68.000  1.00  0.00    -0.354 OA 
HETATM   12  C   UNL     1     -10.106  15.582  67.353  1.00  0.00    -0.246 A  
HETATM   13  C   UNL     1     -10.210  14.189  67.415  1.00  0.00    -0.244 A  
HETATM   14  H   UNL     1     -10.206  18.120  67.420  1.00  0.00     0.000 HD 
ENDBRANCH   5   7
ENDBRANCH   4   5
ENDBRANCH   3   4
ENDBRANCH   2   3
TORSDOF 4
ENDMDL
MODEL      133
REMARK 921   NORMALIZED FREE ENERGY PREDICTED BY IDOCK:   -3.02 KCAL/MOL
REMARK 922        TOTAL FREE ENERGY PREDICTED BY IDOCK:   -4.16 KCAL/MOL
REMARK 923 INTER-LIGAND FREE ENERGY PREDICTED BY IDOCK:   -3.81 KCAL/MOL
REMARK 924 INTRA-LIGAND FREE ENERGY PREDICTED BY IDOCK:   -0.34 KCAL/MOL
REMARK 927      BINDING AFFINITY PREDICTED BY RF-SCORE:    0.00 PKD
ROOT
HETATM    1  C   UNL     1      -5.733  15.700  68.502  1.00  0.00    -0.102 C  
HETATM    2  C   UNL     1      -6.882  16.018  69.447  1.00  0.00    -0.215 C  
ENDROOT
BRANCH   2   3
HETATM    3  C   UNL     1      -7.874  14.863  69.484  1.00  0.00    -0.102 C  
BRANCH   3   4
HETATM    4  O   UNL     1      -9.232  15.324  69.493  1.00  0.00    -0.243 OA 
BRANCH   4   5
HETATM    5  C   UNL     1      -9.781  15.582  68.280  1.00  0.00    -0.201 C  
HETATM    6  O   UNL     1     -10.354  14.781  67.561  1.00  0.00    -0.237 OA 
BRANCH   5   7
HETATM    7  C   UNL     1      -9.661  17.033  67.963  1.00  0.00    -0.260 A  
HETATM    8  C   UNL     1     -10.083  18.023  68.864  1.00  0.00    -0.352 A  
HETATM    9  C   UNL     1     -10.054  19.371  68.497  1.00  0.00    -0.527 A  
HETATM   10  C   UNL     1      -9.598  19.725  67.231  1.00  0.00    -0.359 A  
HETATM   11  O   UNL     1      -9.577  21.026  66.823  1.00  0.00    -0.631 OA 
HETATM   12  C   UNL     1      -9.159  18.757  66.333  1.00  0.00    -0.305 A  
HETATM   13  C   UNL     1      -9.198  17.408  66.694  1.00  0.00    -0.278 A  
HETATM   14  H   UNL     1      -9.266  21.268  65.958  1.00  0.00     0.000 HD 
ENDBRANCH   5   7
ENDBRANCH   4   5
ENDBRANCH   3   4
ENDBRANCH   2   3
TORSDOF 4
ENDMDL
MODEL      134
REMARK 921   NORMALIZED FREE ENERGY PREDICTED BY IDOCK:   -3.02 KCAL/MOL
REMARK 922        TOTAL FREE ENERGY PREDICTED BY IDOCK:   -4.16 KCAL/MOL
REMARK 923 INTER-LIGAND FREE ENERGY PREDICTED BY IDOCK:   -3.98 KCAL/MOL
REMARK 924 INTRA-LIGAND FREE ENERGY PREDICTED BY IDOCK:   -0.18 KCAL/MOL
REMARK 927      BINDING AFFINITY PREDICTED BY RF-SCORE:    0.00 PKD
ROOT
HETATM    1  C   UNL     1      -8.404   7.112  66.062  1.00  0.00    -0.134 C  
HETATM    2  C   UNL     1      -8.374   7.738  67.449  1.00  0.00    -0.123 C  
ENDROOT
BRANCH   2   3
HETATM    3  C   UNL     1      -8.902   6.755  68.486  1.00  0.00    -0.123 C  
BRANCH   3   4
HETATM    4  O   UNL     1      -9.901   7.349  69.326  1.00  0.00    -0.164 OA 
BRANCH   4   5
HETATM    5  C   UNL     1     -10.607   6.493  70.106  1.00  0.00    -0.227 C  
HETATM    6  O   UNL     1     -10.436   5.288  70.195  1.00  0.00    -0.282 OA 
BRANCH   5   7
HETATM    7  C   UNL     1     -11.595   7.246  70.928  1.00  0.00    -0.331 A  
HETATM    8  C   UNL     1     -12.869   6.729  71.210  1.00  0.00    -0.260 A  
HETATM    9  C   UNL     1     -13.810   7.503  71.895  1.00  0.00    -0.352 A  
HETATM   10  C   UNL     1     -13.471   8.790  72.301  1.00  0.00    -0.420 A  
HETATM   11  O   UNL     1     -14.367   9.588  72.948  1.00  0.00    -0.816 OA 
HETATM   12  C   UNL     1     -12.206   9.311  72.045  1.00  0.00    -0.418 A  
HETATM   13  C   UNL     1     -11.268   8.543  71.349  1.00  0.00    -0.327 A  
HETATM   14  H   UNL     1     -14.136  10.467  73.225  1.00  0.00     0.000 HD 
ENDBRANCH   5   7
ENDBRANCH   4   5
ENDBRANCH   3   4
ENDBRANCH   2   3
TORSDOF 4
ENDMDL
MODEL      135
REMARK 921   NORMALIZED FREE ENERGY PREDICTED BY IDOCK:   -3.01 KCAL/MOL
REMARK 922        TOTAL FREE ENERGY PREDICTED BY IDOCK:   -4.14 KCAL/MOL
REMARK 923 INTER-LIGAND FREE ENERGY PREDICTED BY IDOCK:   -3.80 KCAL/MOL
REMARK 924 INTRA-LIGAND FREE ENERGY PREDICTED BY IDOCK:   -0.34 KCAL/MOL
REMARK 927      BINDING AFFINITY PREDICTED BY RF-SCORE:    0.00 PKD
ROOT
HETATM    1  C   UNL     1      -8.780  14.828  69.015  1.00  0.00    -0.139 C  
HETATM    2  C   UNL     1      -8.339  13.773  68.011  1.00  0.00    -0.171 C  
ENDROOT
BRANCH   2   3
HETATM    3  C   UNL     1      -9.451  13.495  67.009  1.00  0.00    -0.251 C  
BRANCH   3   4
HETATM    4  O   UNL     1      -9.980  12.170  67.150  1.00  0.00    -0.199 OA 
BRANCH   4   5
HETATM    5  C   UNL     1     -11.284  12.085  67.514  1.00  0.00    -0.294 C  
HETATM    6  O   UNL     1     -12.233  12.568  66.918  1.00  0.00    -0.511 OA 
BRANCH   5   7
HETATM    7  C   UNL     1     -11.421  11.232  68.728  1.00  0.00    -0.359 A  
HETATM    8  C   UNL     1     -10.971   9.903  68.751  1.00  0.00    -0.217 A  
HETATM    9  C   UNL     1     -11.208   9.097  69.868  1.00  0.00    -0.118 A  
HETATM   10  C   UNL     1     -11.889   9.625  70.961  1.00  0.00    -0.347 A  
HETATM   11  O   UNL     1     -12.163   8.866  72.059  1.00  0.00    -0.338 OA 
HETATM   12  C   UNL     1     -12.326  10.946  70.960  1.00  0.00    -0.498 A  
HETATM   13  C   UNL     1     -12.101  11.750  69.839  1.00  0.00    -0.359 A  
HETATM   14  H   UNL     1     -12.628   9.226  72.805  1.00  0.00     0.000 HD 
ENDBRANCH   5   7
ENDBRANCH   4   5
ENDBRANCH   3   4
ENDBRANCH   2   3
TORSDOF 4
ENDMDL
MODEL      136
REMARK 921   NORMALIZED FREE ENERGY PREDICTED BY IDOCK:   -3.00 KCAL/MOL
REMARK 922        TOTAL FREE ENERGY PREDICTED BY IDOCK:   -4.13 KCAL/MOL
REMARK 923 INTER-LIGAND FREE ENERGY PREDICTED BY IDOCK:   -3.93 KCAL/MOL
REMARK 924 INTRA-LIGAND FREE ENERGY PREDICTED BY IDOCK:   -0.20 KCAL/MOL
REMARK 927      BINDING AFFINITY PREDICTED BY RF-SCORE:    0.00 PKD
ROOT
HETATM    1  C   UNL     1      -5.901  18.860  65.032  1.00  0.00    -0.301 C  
HETATM    2  C   UNL     1      -6.978  19.038  66.092  1.00  0.00    -0.272 C  
ENDROOT
BRANCH   2   3
HETATM    3  C   UNL     1      -7.830  17.780  66.200  1.00  0.00    -0.227 C  
BRANCH   3   4
HETATM    4  O   UNL     1      -9.172  18.077  66.612  1.00  0.00    -0.269 OA 
BRANCH   4   5
HETATM    5  C   UNL     1     -10.154  17.390  65.976  1.00  0.00    -0.262 C  
HETATM    6  O   UNL     1     -10.866  17.812  65.080  1.00  0.00    -0.671 OA 
BRANCH   5   7
HETATM    7  C   UNL     1     -10.200  15.986  66.472  1.00  0.00    -0.301 A  
HETATM    8  C   UNL     1     -10.207  14.892  65.592  1.00  0.00    -0.382 A  
HETATM    9  C   UNL     1     -10.356  13.592  66.084  1.00  0.00    -0.296 A  
HETATM   10  C   UNL     1     -10.490  13.390  67.454  1.00  0.00    -0.243 A  
HETATM   11  O   UNL     1     -10.662  12.141  67.972  1.00  0.00    -0.200 OA 
HETATM   12  C   UNL     1     -10.466  14.462  68.340  1.00  0.00    -0.246 A  
HETATM   13  C   UNL     1     -10.330  15.764  67.850  1.00  0.00    -0.261 A  
HETATM   14  H   UNL     1     -10.754  12.003  68.908  1.00  0.00     0.000 HD 
ENDBRANCH   5   7
ENDBRANCH   4   5
ENDBRANCH   3   4
ENDBRANCH   2   3
TORSDOF 4
ENDMDL
MODEL      137
REMARK 921   NORMALIZED FREE ENERGY PREDICTED BY IDOCK:   -3.00 KCAL/MOL
REMARK 922        TOTAL FREE ENERGY PREDICTED BY IDOCK:   -4.13 KCAL/MOL
REMARK 923 INTER-LIGAND FREE ENERGY PREDICTED BY IDOCK:   -3.97 KCAL/MOL
REMARK 924 INTRA-LIGAND FREE ENERGY PREDICTED BY IDOCK:   -0.15 KCAL/MOL
REMARK 927      BINDING AFFINITY PREDICTED BY RF-SCORE:    0.00 PKD
ROOT
HETATM    1  C   UNL     1      -6.037  11.577  69.861  1.00  0.00    -0.141 C  
HETATM    2  C   UNL     1      -6.186  12.866  69.066  1.00  0.00    -0.095 C  
ENDROOT
BRANCH   2   3
HETATM    3  C   UNL     1      -6.798  12.581  67.701  1.00  0.00    -0.136 C  
BRANCH   3   4
HETATM    4  O   UNL     1      -7.662  13.641  67.270  1.00  0.00    -0.154 OA 
BRANCH   4   5
HETATM    5  C   UNL     1      -8.976  13.500  67.578  1.00  0.00    -0.210 C  
HETATM    6  O   UNL     1      -9.444  13.350  68.694  1.00  0.00    -0.154 OA 
BRANCH   5   7
HETATM    7  C   UNL     1      -9.807  13.637  66.349  1.00  0.00    -0.302 A  
HETATM    8  C   UNL     1     -10.259  14.887  65.898  1.00  0.00    -0.333 A  
HETATM    9  C   UNL     1     -11.122  14.973  64.802  1.00  0.00    -0.388 A  
HETATM   10  C   UNL     1     -11.525  13.808  64.157  1.00  0.00    -0.293 A  
HETATM   11  O   UNL     1     -12.386  13.845  63.100  1.00  0.00    -1.122 OA 
HETATM   12  C   UNL     1     -11.071  12.563  64.580  1.00  0.00    -0.357 A  
HETATM   13  C   UNL     1     -10.218  12.474  65.683  1.00  0.00    -0.287 A  
HETATM   14  H   UNL     1     -12.662  13.050  62.659  1.00  0.00     0.000 HD 
ENDBRANCH   5   7
ENDBRANCH   4   5
ENDBRANCH   3   4
ENDBRANCH   2   3
TORSDOF 4
ENDMDL
MODEL      138
REMARK 921   NORMALIZED FREE ENERGY PREDICTED BY IDOCK:   -2.99 KCAL/MOL
REMARK 922        TOTAL FREE ENERGY PREDICTED BY IDOCK:   -4.11 KCAL/MOL
REMARK 923 INTER-LIGAND FREE ENERGY PREDICTED BY IDOCK:   -3.82 KCAL/MOL
REMARK 924 INTRA-LIGAND FREE ENERGY PREDICTED BY IDOCK:   -0.29 KCAL/MOL
REMARK 927      BINDING AFFINITY PREDICTED BY RF-SCORE:    0.00 PKD
ROOT
HETATM    1  C   UNL     1     -11.521   7.247  72.653  1.00  0.00    -0.304 C  
HETATM    2  C   UNL     1     -12.368   7.888  71.563  1.00  0.00    -0.340 C  
ENDROOT
BRANCH   2   3
HETATM    3  C   UNL     1     -12.131   9.392  71.521  1.00  0.00    -0.379 C  
BRANCH   3   4
HETATM    4  O   UNL     1     -11.783   9.842  70.205  1.00  0.00    -0.253 OA 
BRANCH   4   5
HETATM    5  C   UNL     1     -10.472   9.741  69.869  1.00  0.00    -0.261 C  
HETATM    6  O   UNL     1      -9.533   9.649  70.642  1.00  0.00    -0.244 OA 
BRANCH   5   7
HETATM    7  C   UNL     1     -10.328   9.673  68.388  1.00  0.00    -0.233 A  
HETATM    8  C   UNL     1      -9.827   8.529  67.746  1.00  0.00    -0.218 A  
HETATM    9  C   UNL     1      -9.606   8.533  66.366  1.00  0.00    -0.314 A  
HETATM   10  C   UNL     1      -9.892   9.679  65.631  1.00  0.00    -0.299 A  
HETATM   11  O   UNL     1      -9.667   9.735  64.288  1.00  0.00    -0.405 OA 
HETATM   12  C   UNL     1     -10.406  10.815  66.250  1.00  0.00    -0.303 A  
HETATM   13  C   UNL     1     -10.616  10.817  67.632  1.00  0.00    -0.271 A  
HETATM   14  H   UNL     1      -9.862  10.518  63.786  1.00  0.00     0.000 HD 
ENDBRANCH   5   7
ENDBRANCH   4   5
ENDBRANCH   3   4
ENDBRANCH   2   3
TORSDOF 4
ENDMDL
MODEL      139
REMARK 921   NORMALIZED FREE ENERGY PREDICTED BY IDOCK:   -2.99 KCAL/MOL
REMARK 922        TOTAL FREE ENERGY PREDICTED BY IDOCK:   -4.11 KCAL/MOL
REMARK 923 INTER-LIGAND FREE ENERGY PREDICTED BY IDOCK:   -3.92 KCAL/MOL
REMARK 924 INTRA-LIGAND FREE ENERGY PREDICTED BY IDOCK:   -0.19 KCAL/MOL
REMARK 927      BINDING AFFINITY PREDICTED BY RF-SCORE:    0.00 PKD
ROOT
HETATM    1  C   UNL     1      -8.504   3.499  71.143  1.00  0.00    -0.096 C  
HETATM    2  C   UNL     1      -9.929   3.509  71.676  1.00  0.00    -0.190 C  
ENDROOT
BRANCH   2   3
HETATM    3  C   UNL     1     -10.059   4.498  72.827  1.00  0.00    -0.166 C  
BRANCH   3   4
HETATM    4  O   UNL     1     -10.966   5.564  72.518  1.00  0.00    -0.236 OA 
BRANCH   4   5
HETATM    5  C   UNL     1     -10.774   6.724  73.195  1.00  0.00    -0.296 C  
HETATM    6  O   UNL     1     -10.388   6.832  74.346  1.00  0.00    -0.340 OA 
BRANCH   5   7
HETATM    7  C   UNL     1     -11.026   7.887  72.298  1.00  0.00    -0.359 A  
HETATM    8  C   UNL     1     -10.024   8.405  71.462  1.00  0.00    -0.283 A  
HETATM    9  C   UNL     1     -10.259   9.559  70.710  1.00  0.00    -0.363 A  
HETATM   10  C   UNL     1     -11.497  10.189  70.792  1.00  0.00    -0.357 A  
HETATM   11  O   UNL     1     -11.759  11.331  70.095  1.00  0.00    -0.309 OA 
HETATM   12  C   UNL     1     -12.506   9.677  71.602  1.00  0.00    -0.494 A  
HETATM   13  C   UNL     1     -12.269   8.530  72.364  1.00  0.00    -0.432 A  
HETATM   14  H   UNL     1     -12.604  11.761  70.152  1.00  0.00     0.000 HD 
ENDBRANCH   5   7
ENDBRANCH   4   5
ENDBRANCH   3   4
ENDBRANCH   2   3
TORSDOF 4
ENDMDL
MODEL      140
REMARK 921   NORMALIZED FREE ENERGY PREDICTED BY IDOCK:   -2.98 KCAL/MOL
REMARK 922        TOTAL FREE ENERGY PREDICTED BY IDOCK:   -4.11 KCAL/MOL
REMARK 923 INTER-LIGAND FREE ENERGY PREDICTED BY IDOCK:   -3.63 KCAL/MOL
REMARK 924 INTRA-LIGAND FREE ENERGY PREDICTED BY IDOCK:   -0.47 KCAL/MOL
REMARK 927      BINDING AFFINITY PREDICTED BY RF-SCORE:    0.00 PKD
ROOT
HETATM    1  C   UNL     1      -8.020  12.350  68.329  1.00  0.00    -0.160 C  
HETATM    2  C   UNL     1      -7.145  11.215  68.840  1.00  0.00    -0.101 C  
ENDROOT
BRANCH   2   3
HETATM    3  C   UNL     1      -7.901   9.895  68.787  1.00  0.00    -0.091 C  
BRANCH   3   4
HETATM    4  O   UNL     1      -9.108  10.000  68.021  1.00  0.00    -0.131 OA 
BRANCH   4   5
HETATM    5  C   UNL     1     -10.122   9.179  68.392  1.00  0.00    -0.196 C  
HETATM    6  O   UNL     1     -10.261   8.011  68.070  1.00  0.00    -0.194 OA 
BRANCH   5   7
HETATM    7  C   UNL     1     -11.030   9.884  69.340  1.00  0.00    -0.263 A  
HETATM    8  C   UNL     1     -11.428  11.214  69.131  1.00  0.00    -0.366 A  
HETATM    9  C   UNL     1     -12.195  11.880  70.090  1.00  0.00    -0.319 A  
HETATM   10  C   UNL     1     -12.568  11.213  71.253  1.00  0.00    -0.398 A  
HETATM   11  O   UNL     1     -13.294  11.834  72.225  1.00  0.00    -0.613 OA 
HETATM   12  C   UNL     1     -12.197   9.888  71.466  1.00  0.00    -0.505 A  
HETATM   13  C   UNL     1     -11.419   9.224  70.514  1.00  0.00    -0.296 A  
HETATM   14  H   UNL     1     -13.548  11.378  73.019  1.00  0.00     0.000 HD 
ENDBRANCH   5   7
ENDBRANCH   4   5
ENDBRANCH   3   4
ENDBRANCH   2   3
TORSDOF 4
ENDMDL
MODEL      141
REMARK 921   NORMALIZED FREE ENERGY PREDICTED BY IDOCK:   -2.97 KCAL/MOL
REMARK 922        TOTAL FREE ENERGY PREDICTED BY IDOCK:   -4.10 KCAL/MOL
REMARK 923 INTER-LIGAND FREE ENERGY PREDICTED BY IDOCK:   -3.72 KCAL/MOL
REMARK 924 INTRA-LIGAND FREE ENERGY PREDICTED BY IDOCK:   -0.38 KCAL/MOL
REMARK 927      BINDING AFFINITY PREDICTED BY RF-SCORE:    0.00 PKD
ROOT
HETATM    1  C   UNL     1     -12.471  14.924  64.527  1.00  0.00    -0.223 C  
HETATM    2  C   UNL     1     -11.713  13.689  64.061  1.00  0.00    -0.405 C  
ENDROOT
BRANCH   2   3
HETATM    3  C   UNL     1     -10.377  13.581  64.783  1.00  0.00    -0.385 C  
BRANCH   3   4
HETATM    4  O   UNL     1     -10.400  12.573  65.803  1.00  0.00    -0.255 OA 
BRANCH   4   5
HETATM    5  C   UNL     1      -9.452  12.680  66.767  1.00  0.00    -0.237 C  
HETATM    6  O   UNL     1      -8.326  12.213  66.728  1.00  0.00    -0.175 OA 
BRANCH   5   7
HETATM    7  C   UNL     1      -9.949  13.539  67.879  1.00  0.00    -0.245 A  
HETATM    8  C   UNL     1     -11.276  13.469  68.329  1.00  0.00    -0.305 A  
HETATM    9  C   UNL     1     -11.739  14.360  69.302  1.00  0.00    -0.358 A  
HETATM   10  C   UNL     1     -10.871  15.312  69.826  1.00  0.00    -0.289 A  
HETATM   11  O   UNL     1     -11.289  16.216  70.758  1.00  0.00    -0.385 OA 
HETATM   12  C   UNL     1      -9.547  15.382  69.403  1.00  0.00    -0.270 A  
HETATM   13  C   UNL     1      -9.086  14.501  68.422  1.00  0.00    -0.191 A  
HETATM   14  H   UNL     1     -10.696  16.867  71.115  1.00  0.00     0.000 HD 
ENDBRANCH   5   7
ENDBRANCH   4   5
ENDBRANCH   3   4
ENDBRANCH   2   3
TORSDOF 4
ENDMDL
MODEL      142
REMARK 921   NORMALIZED FREE ENERGY PREDICTED BY IDOCK:   -2.97 KCAL/MOL
REMARK 922        TOTAL FREE ENERGY PREDICTED BY IDOCK:   -4.10 KCAL/MOL
REMARK 923 INTER-LIGAND FREE ENERGY PREDICTED BY IDOCK:   -3.91 KCAL/MOL
REMARK 924 INTRA-LIGAND FREE ENERGY PREDICTED BY IDOCK:   -0.18 KCAL/MOL
REMARK 927      BINDING AFFINITY PREDICTED BY RF-SCORE:    0.00 PKD
ROOT
HETATM    1  C   UNL     1     -12.118  13.268  70.473  1.00  0.00    -0.391 C  
HETATM    2  C   UNL     1     -11.793  13.848  69.104  1.00  0.00    -0.401 C  
ENDROOT
BRANCH   2   3
HETATM    3  C   UNL     1     -11.702  12.739  68.065  1.00  0.00    -0.356 C  
BRANCH   3   4
HETATM    4  O   UNL     1     -11.838  11.440  68.655  1.00  0.00    -0.362 OA 
BRANCH   4   5
HETATM    5  C   UNL     1     -10.745  10.639  68.589  1.00  0.00    -0.207 C  
HETATM    6  O   UNL     1      -9.875  10.674  67.735  1.00  0.00    -0.162 OA 
BRANCH   5   7
HETATM    7  C   UNL     1     -10.699   9.737  69.774  1.00  0.00    -0.283 A  
HETATM    8  C   UNL     1      -9.946   8.552  69.772  1.00  0.00    -0.191 A  
HETATM    9  C   UNL     1     -10.006   7.676  70.859  1.00  0.00    -0.183 A  
HETATM   10  C   UNL     1     -10.815   7.989  71.947  1.00  0.00    -0.257 A  
HETATM   11  O   UNL     1     -10.922   7.150  73.016  1.00  0.00    -0.297 OA 
HETATM   12  C   UNL     1     -11.553   9.168  71.972  1.00  0.00    -0.371 A  
HETATM   13  C   UNL     1     -11.504  10.040  70.880  1.00  0.00    -0.452 A  
HETATM   14  H   UNL     1     -11.474   7.364  73.759  1.00  0.00     0.000 HD 
ENDBRANCH   5   7
ENDBRANCH   4   5
ENDBRANCH   3   4
ENDBRANCH   2   3
TORSDOF 4
ENDMDL
MODEL      143
REMARK 921   NORMALIZED FREE ENERGY PREDICTED BY IDOCK:   -2.96 KCAL/MOL
REMARK 922        TOTAL FREE ENERGY PREDICTED BY IDOCK:   -4.08 KCAL/MOL
REMARK 923 INTER-LIGAND FREE ENERGY PREDICTED BY IDOCK:   -4.43 KCAL/MOL
REMARK 924 INTRA-LIGAND FREE ENERGY PREDICTED BY IDOCK:    0.35 KCAL/MOL
REMARK 927      BINDING AFFINITY PREDICTED BY RF-SCORE:    0.00 PKD
ROOT
HETATM    1  C   UNL     1     -10.236  13.763  65.831  1.00  0.00    -0.322 C  
HETATM    2  C   UNL     1      -9.296  14.959  65.789  1.00  0.00    -0.134 C  
ENDROOT
BRANCH   2   3
HETATM    3  C   UNL     1     -10.064  16.247  66.057  1.00  0.00    -0.356 C  
BRANCH   3   4
HETATM    4  O   UNL     1     -10.785  16.193  67.295  1.00  0.00    -0.311 OA 
BRANCH   4   5
HETATM    5  C   UNL     1     -10.181  16.776  68.361  1.00  0.00    -0.296 C  
HETATM    6  O   UNL     1     -10.247  16.404  69.520  1.00  0.00    -0.270 OA 
BRANCH   5   7
HETATM    7  C   UNL     1      -9.335  17.915  67.909  1.00  0.00    -0.271 A  
HETATM    8  C   UNL     1      -7.992  18.039  68.299  1.00  0.00    -0.294 A  
HETATM    9  C   UNL     1      -7.255  19.172  67.944  1.00  0.00    -0.269 A  
HETATM   10  C   UNL     1      -7.861  20.175  67.195  1.00  0.00    -0.322 A  
HETATM   11  O   UNL     1      -7.186  21.308  66.849  1.00  0.00    -0.709 OA 
HETATM   12  C   UNL     1      -9.186  20.060  66.785  1.00  0.00    -0.494 A  
HETATM   13  C   UNL     1      -9.928  18.933  67.149  1.00  0.00    -0.382 A  
HETATM   14  H   UNL     1      -7.600  21.994  66.338  1.00  0.00     0.000 HD 
ENDBRANCH   5   7
ENDBRANCH   4   5
ENDBRANCH   3   4
ENDBRANCH   2   3
TORSDOF 4
ENDMDL
MODEL      144
REMARK 921   NORMALIZED FREE ENERGY PREDICTED BY IDOCK:   -2.96 KCAL/MOL
REMARK 922        TOTAL FREE ENERGY PREDICTED BY IDOCK:   -4.08 KCAL/MOL
REMARK 923 INTER-LIGAND FREE ENERGY PREDICTED BY IDOCK:   -3.67 KCAL/MOL
REMARK 924 INTRA-LIGAND FREE ENERGY PREDICTED BY IDOCK:   -0.41 KCAL/MOL
REMARK 927      BINDING AFFINITY PREDICTED BY RF-SCORE:    0.00 PKD
ROOT
HETATM    1  C   UNL     1     -10.888   5.726  66.424  1.00  0.00    -0.141 C  
HETATM    2  C   UNL     1     -10.853   6.717  67.579  1.00  0.00    -0.417 C  
ENDROOT
BRANCH   2   3
HETATM    3  C   UNL     1      -9.416   6.994  67.998  1.00  0.00    -0.125 C  
BRANCH   3   4
HETATM    4  O   UNL     1      -8.820   8.034  67.210  1.00  0.00    -0.128 OA 
BRANCH   4   5
HETATM    5  C   UNL     1      -9.136   9.305  67.567  1.00  0.00    -0.120 C  
HETATM    6  O   UNL     1      -8.927   9.824  68.650  1.00  0.00    -0.125 OA 
BRANCH   5   7
HETATM    7  C   UNL     1      -9.714  10.033  66.403  1.00  0.00    -0.266 A  
HETATM    8  C   UNL     1      -9.352   9.722  65.083  1.00  0.00    -0.322 A  
HETATM    9  C   UNL     1      -9.831  10.492  64.019  1.00  0.00    -0.387 A  
HETATM   10  C   UNL     1     -10.676  11.566  64.278  1.00  0.00    -0.355 A  
HETATM   11  O   UNL     1     -11.145  12.358  63.272  1.00  0.00    -0.610 OA 
HETATM   12  C   UNL     1     -11.058  11.877  65.580  1.00  0.00    -0.356 A  
HETATM   13  C   UNL     1     -10.570  11.116  66.646  1.00  0.00    -0.314 A  
HETATM   14  H   UNL     1     -11.722  13.092  63.450  1.00  0.00     0.000 HD 
ENDBRANCH   5   7
ENDBRANCH   4   5
ENDBRANCH   3   4
ENDBRANCH   2   3
TORSDOF 4
ENDMDL
MODEL      145
REMARK 921   NORMALIZED FREE ENERGY PREDICTED BY IDOCK:   -2.94 KCAL/MOL
REMARK 922        TOTAL FREE ENERGY PREDICTED BY IDOCK:   -4.06 KCAL/MOL
REMARK 923 INTER-LIGAND FREE ENERGY PREDICTED BY IDOCK:   -3.84 KCAL/MOL
REMARK 924 INTRA-LIGAND FREE ENERGY PREDICTED BY IDOCK:   -0.22 KCAL/MOL
REMARK 927      BINDING AFFINITY PREDICTED BY RF-SCORE:    0.00 PKD
ROOT
HETATM    1  C   UNL     1      -9.377   4.901  72.902  1.00  0.00    -0.145 C  
HETATM    2  C   UNL     1     -10.815   5.240  73.268  1.00  0.00    -0.349 C  
ENDROOT
BRANCH   2   3
HETATM    3  C   UNL     1     -11.524   5.891  72.088  1.00  0.00    -0.276 C  
BRANCH   3   4
HETATM    4  O   UNL     1     -10.740   6.941  71.505  1.00  0.00    -0.221 OA 
BRANCH   4   5
HETATM    5  C   UNL     1     -11.033   7.259  70.220  1.00  0.00    -0.260 C  
HETATM    6  O   UNL     1     -11.173   6.475  69.296  1.00  0.00    -0.328 OA 
BRANCH   5   7
HETATM    7  C   UNL     1     -11.250   8.727  70.093  1.00  0.00    -0.162 A  
HETATM    8  C   UNL     1     -10.607   9.486  69.102  1.00  0.00    -0.237 A  
HETATM    9  C   UNL     1     -10.749  10.876  69.074  1.00  0.00    -0.262 A  
HETATM   10  C   UNL     1     -11.539  11.503  70.033  1.00  0.00    -0.282 A  
HETATM   11  O   UNL     1     -11.684  12.858  70.057  1.00  0.00    -0.458 OA 
HETATM   12  C   UNL     1     -12.197  10.763  71.011  1.00  0.00    -0.485 A  
HETATM   13  C   UNL     1     -12.046   9.374  71.048  1.00  0.00    -0.373 A  
HETATM   14  H   UNL     1     -12.223  13.286  70.713  1.00  0.00     0.000 HD 
ENDBRANCH   5   7
ENDBRANCH   4   5
ENDBRANCH   3   4
ENDBRANCH   2   3
TORSDOF 4
ENDMDL
MODEL      146
REMARK 921   NORMALIZED FREE ENERGY PREDICTED BY IDOCK:   -2.94 KCAL/MOL
REMARK 922        TOTAL FREE ENERGY PREDICTED BY IDOCK:   -4.05 KCAL/MOL
REMARK 923 INTER-LIGAND FREE ENERGY PREDICTED BY IDOCK:   -4.01 KCAL/MOL
REMARK 924 INTRA-LIGAND FREE ENERGY PREDICTED BY IDOCK:   -0.04 KCAL/MOL
REMARK 927      BINDING AFFINITY PREDICTED BY RF-SCORE:    0.00 PKD
ROOT
HETATM    1  C   UNL     1     -11.394   8.310  72.455  1.00  0.00    -0.457 C  
HETATM    2  C   UNL     1     -10.838   8.344  71.038  1.00  0.00    -0.280 C  
ENDROOT
BRANCH   2   3
HETATM    3  C   UNL     1     -11.152   9.679  70.376  1.00  0.00    -0.290 C  
BRANCH   3   4
HETATM    4  O   UNL     1     -10.180  10.024  69.380  1.00  0.00    -0.194 OA 
BRANCH   4   5
HETATM    5  C   UNL     1     -10.404   9.533  68.136  1.00  0.00    -0.208 C  
HETATM    6  O   UNL     1     -10.634   8.370  67.849  1.00  0.00    -0.220 OA 
BRANCH   5   7
HETATM    7  C   UNL     1     -10.413  10.642  67.142  1.00  0.00    -0.295 A  
HETATM    8  C   UNL     1     -10.160  10.416  65.779  1.00  0.00    -0.329 A  
HETATM    9  C   UNL     1     -10.072  11.490  64.890  1.00  0.00    -0.314 A  
HETATM   10  C   UNL     1     -10.244  12.787  65.364  1.00  0.00    -0.283 A  
HETATM   11  O   UNL     1     -10.141  13.865  64.535  1.00  0.00    -0.637 OA 
HETATM   12  C   UNL     1     -10.513  13.027  66.708  1.00  0.00    -0.264 A  
HETATM   13  C   UNL     1     -10.589  11.955  67.601  1.00  0.00    -0.241 A  
HETATM   14  H   UNL     1     -10.258  14.750  64.859  1.00  0.00     0.000 HD 
ENDBRANCH   5   7
ENDBRANCH   4   5
ENDBRANCH   3   4
ENDBRANCH   2   3
TORSDOF 4
ENDMDL
MODEL      147
REMARK 921   NORMALIZED FREE ENERGY PREDICTED BY IDOCK:   -2.94 KCAL/MOL
REMARK 922        TOTAL FREE ENERGY PREDICTED BY IDOCK:   -4.05 KCAL/MOL
REMARK 923 INTER-LIGAND FREE ENERGY PREDICTED BY IDOCK:   -3.89 KCAL/MOL
REMARK 924 INTRA-LIGAND FREE ENERGY PREDICTED BY IDOCK:   -0.16 KCAL/MOL
REMARK 927      BINDING AFFINITY PREDICTED BY RF-SCORE:    0.00 PKD
ROOT
HETATM    1  C   UNL     1      -9.613  10.099  65.005  1.00  0.00    -0.362 C  
HETATM    2  C   UNL     1      -9.039  10.655  66.300  1.00  0.00    -0.186 C  
ENDROOT
BRANCH   2   3
HETATM    3  C   UNL     1      -9.062  12.178  66.281  1.00  0.00    -0.141 C  
BRANCH   3   4
HETATM    4  O   UNL     1      -9.883  12.714  67.328  1.00  0.00    -0.202 OA 
BRANCH   4   5
HETATM    5  C   UNL     1     -10.297  13.995  67.162  1.00  0.00    -0.265 C  
HETATM    6  O   UNL     1     -10.226  14.649  66.136  1.00  0.00    -0.277 OA 
BRANCH   5   7
HETATM    7  C   UNL     1     -10.945  14.488  68.410  1.00  0.00    -0.255 A  
HETATM    8  C   UNL     1     -11.942  13.749  69.066  1.00  0.00    -0.399 A  
HETATM    9  C   UNL     1     -12.604  14.285  70.175  1.00  0.00    -0.338 A  
HETATM   10  C   UNL     1     -12.263  15.556  70.626  1.00  0.00    -0.402 A  
HETATM   11  O   UNL     1     -12.900  16.126  71.688  1.00  0.00    -0.512 OA 
HETATM   12  C   UNL     1     -11.264  16.293  69.997  1.00  0.00    -0.324 A  
HETATM   13  C   UNL     1     -10.610  15.764  68.881  1.00  0.00    -0.233 A  
HETATM   14  H   UNL     1     -12.668  16.994  71.996  1.00  0.00     0.000 HD 
ENDBRANCH   5   7
ENDBRANCH   4   5
ENDBRANCH   3   4
ENDBRANCH   2   3
TORSDOF 4
ENDMDL
MODEL      148
REMARK 921   NORMALIZED FREE ENERGY PREDICTED BY IDOCK:   -2.93 KCAL/MOL
REMARK 922        TOTAL FREE ENERGY PREDICTED BY IDOCK:   -4.04 KCAL/MOL
REMARK 923 INTER-LIGAND FREE ENERGY PREDICTED BY IDOCK:   -3.83 KCAL/MOL
REMARK 924 INTRA-LIGAND FREE ENERGY PREDICTED BY IDOCK:   -0.21 KCAL/MOL
REMARK 927      BINDING AFFINITY PREDICTED BY RF-SCORE:    0.00 PKD
ROOT
HETATM    1  C   UNL     1      -8.347   7.118  65.849  1.00  0.00    -0.141 C  
HETATM    2  C   UNL     1      -8.382   7.681  67.262  1.00  0.00    -0.115 C  
ENDROOT
BRANCH   2   3
HETATM    3  C   UNL     1      -9.380   6.910  68.116  1.00  0.00    -0.124 C  
BRANCH   3   4
HETATM    4  O   UNL     1     -10.395   7.766  68.656  1.00  0.00    -0.199 OA 
BRANCH   4   5
HETATM    5  C   UNL     1     -10.545   7.735  70.004  1.00  0.00    -0.238 C  
HETATM    6  O   UNL     1     -10.052   6.920  70.767  1.00  0.00    -0.194 OA 
BRANCH   5   7
HETATM    7  C   UNL     1     -11.345   8.907  70.457  1.00  0.00    -0.268 A  
HETATM    8  C   UNL     1     -11.185  10.178  69.883  1.00  0.00    -0.343 A  
HETATM    9  C   UNL     1     -11.875  11.278  70.399  1.00  0.00    -0.443 A  
HETATM   10  C   UNL     1     -12.727  11.104  71.485  1.00  0.00    -0.394 A  
HETATM   11  O   UNL     1     -13.399  12.154  72.035  1.00  0.00    -0.503 OA 
HETATM   12  C   UNL     1     -12.910   9.847  72.054  1.00  0.00    -0.488 A  
HETATM   13  C   UNL     1     -12.212   8.748  71.547  1.00  0.00    -0.382 A  
HETATM   14  H   UNL     1     -13.980  12.035  72.777  1.00  0.00     0.000 HD 
ENDBRANCH   5   7
ENDBRANCH   4   5
ENDBRANCH   3   4
ENDBRANCH   2   3
TORSDOF 4
ENDMDL
MODEL      149
REMARK 921   NORMALIZED FREE ENERGY PREDICTED BY IDOCK:   -2.90 KCAL/MOL
REMARK 922        TOTAL FREE ENERGY PREDICTED BY IDOCK:   -4.01 KCAL/MOL
REMARK 923 INTER-LIGAND FREE ENERGY PREDICTED BY IDOCK:   -3.75 KCAL/MOL
REMARK 924 INTRA-LIGAND FREE ENERGY PREDICTED BY IDOCK:   -0.25 KCAL/MOL
REMARK 927      BINDING AFFINITY PREDICTED BY RF-SCORE:    0.00 PKD
ROOT
HETATM    1  C   UNL     1     -10.107   5.209  70.163  1.00  0.00    -0.342 C  
HETATM    2  C   UNL     1     -11.220   6.238  70.032  1.00  0.00    -0.480 C  
ENDROOT
BRANCH   2   3
HETATM    3  C   UNL     1     -10.780   7.384  69.131  1.00  0.00    -0.166 C  
BRANCH   3   4
HETATM    4  O   UNL     1      -9.993   8.350  69.840  1.00  0.00    -0.184 OA 
BRANCH   4   5
HETATM    5  C   UNL     1     -10.669   9.410  70.349  1.00  0.00    -0.263 C  
HETATM    6  O   UNL     1     -11.162   9.486  71.462  1.00  0.00    -0.372 OA 
BRANCH   5   7
HETATM    7  C   UNL     1     -10.663  10.537  69.373  1.00  0.00    -0.277 A  
HETATM    8  C   UNL     1     -11.818  11.291  69.108  1.00  0.00    -0.423 A  
HETATM    9  C   UNL     1     -11.807  12.272  68.113  1.00  0.00    -0.372 A  
HETATM   10  C   UNL     1     -10.640  12.500  67.390  1.00  0.00    -0.223 A  
HETATM   11  O   UNL     1     -10.594  13.429  66.393  1.00  0.00    -0.280 OA 
HETATM   12  C   UNL     1      -9.483  11.774  67.653  1.00  0.00    -0.180 A  
HETATM   13  C   UNL     1      -9.495  10.783  68.639  1.00  0.00    -0.188 A  
HETATM   14  H   UNL     1      -9.798  13.585  65.899  1.00  0.00     0.000 HD 
ENDBRANCH   5   7
ENDBRANCH   4   5
ENDBRANCH   3   4
ENDBRANCH   2   3
TORSDOF 4
ENDMDL
MODEL      150
REMARK 921   NORMALIZED FREE ENERGY PREDICTED BY IDOCK:   -2.90 KCAL/MOL
REMARK 922        TOTAL FREE ENERGY PREDICTED BY IDOCK:   -4.00 KCAL/MOL
REMARK 923 INTER-LIGAND FREE ENERGY PREDICTED BY IDOCK:   -3.62 KCAL/MOL
REMARK 924 INTRA-LIGAND FREE ENERGY PREDICTED BY IDOCK:   -0.39 KCAL/MOL
REMARK 927      BINDING AFFINITY PREDICTED BY RF-SCORE:    0.00 PKD
ROOT
HETATM    1  C   UNL     1     -11.937  12.539  65.357  1.00  0.00    -0.492 C  
HETATM    2  C   UNL     1     -11.790  13.828  66.153  1.00  0.00    -0.424 C  
ENDROOT
BRANCH   2   3
HETATM    3  C   UNL     1     -11.885  13.545  67.646  1.00  0.00    -0.363 C  
BRANCH   3   4
HETATM    4  O   UNL     1     -10.820  12.698  68.098  1.00  0.00    -0.211 OA 
BRANCH   4   5
HETATM    5  C   UNL     1     -11.126  11.846  69.109  1.00  0.00    -0.228 C  
HETATM    6  O   UNL     1     -11.825  12.096  70.077  1.00  0.00    -0.328 OA 
BRANCH   5   7
HETATM    7  C   UNL     1     -10.548  10.501  68.836  1.00  0.00    -0.243 A  
HETATM    8  C   UNL     1      -9.652   9.887  69.727  1.00  0.00    -0.261 A  
HETATM    9  C   UNL     1      -9.047   8.672  69.394  1.00  0.00    -0.149 A  
HETATM   10  C   UNL     1      -9.343   8.072  68.174  1.00  0.00    -0.139 A  
HETATM   11  O   UNL     1      -8.755   6.900  67.799  1.00  0.00    -0.121 OA 
HETATM   12  C   UNL     1     -10.242   8.658  67.289  1.00  0.00    -0.337 A  
HETATM   13  C   UNL     1     -10.839   9.879  67.614  1.00  0.00    -0.318 A  
HETATM   14  H   UNL     1      -8.957   6.490  66.966  1.00  0.00     0.000 HD 
ENDBRANCH   5   7
ENDBRANCH   4   5
ENDBRANCH   3   4
ENDBRANCH   2   3
TORSDOF 4
ENDMDL
MODEL      151
REMARK 921   NORMALIZED FREE ENERGY PREDICTED BY IDOCK:   -2.89 KCAL/MOL
REMARK 922        TOTAL FREE ENERGY PREDICTED BY IDOCK:   -4.00 KCAL/MOL
REMARK 923 INTER-LIGAND FREE ENERGY PREDICTED BY IDOCK:   -3.69 KCAL/MOL
REMARK 924 INTRA-LIGAND FREE ENERGY PREDICTED BY IDOCK:   -0.30 KCAL/MOL
REMARK 927      BINDING AFFINITY PREDICTED BY RF-SCORE:    0.00 PKD
ROOT
HETATM    1  C   UNL     1      -8.784   3.870  65.870  1.00  0.00    -0.114 C  
HETATM    2  C   UNL     1      -9.773   4.461  66.863  1.00  0.00    -0.233 C  
ENDROOT
BRANCH   2   3
HETATM    3  C   UNL     1     -10.348   5.766  66.329  1.00  0.00    -0.074 C  
BRANCH   3   4
HETATM    4  O   UNL     1     -11.073   6.484  67.336  1.00  0.00    -0.357 OA 
BRANCH   4   5
HETATM    5  C   UNL     1     -10.394   7.477  67.964  1.00  0.00    -0.204 C  
HETATM    6  O   UNL     1      -9.688   8.317  67.432  1.00  0.00    -0.155 OA 
BRANCH   5   7
HETATM    7  C   UNL     1     -10.697   7.459  69.423  1.00  0.00    -0.220 A  
HETATM    8  C   UNL     1     -11.422   6.413  70.014  1.00  0.00    -0.496 A  
HETATM    9  C   UNL     1     -11.779   6.476  71.364  1.00  0.00    -0.378 A  
HETATM   10  C   UNL     1     -11.404   7.583  72.119  1.00  0.00    -0.283 A  
HETATM   11  O   UNL     1     -11.754   7.697  73.432  1.00  0.00    -0.615 OA 
HETATM   12  C   UNL     1     -10.669   8.620  71.552  1.00  0.00    -0.352 A  
HETATM   13  C   UNL     1     -10.322   8.564  70.200  1.00  0.00    -0.214 A  
HETATM   14  H   UNL     1     -11.498   8.452  73.948  1.00  0.00     0.000 HD 
ENDBRANCH   5   7
ENDBRANCH   4   5
ENDBRANCH   3   4
ENDBRANCH   2   3
TORSDOF 4
ENDMDL
MODEL      152
REMARK 921   NORMALIZED FREE ENERGY PREDICTED BY IDOCK:   -2.87 KCAL/MOL
REMARK 922        TOTAL FREE ENERGY PREDICTED BY IDOCK:   -3.97 KCAL/MOL
REMARK 923 INTER-LIGAND FREE ENERGY PREDICTED BY IDOCK:   -3.71 KCAL/MOL
REMARK 924 INTRA-LIGAND FREE ENERGY PREDICTED BY IDOCK:   -0.26 KCAL/MOL
REMARK 927      BINDING AFFINITY PREDICTED BY RF-SCORE:    0.00 PKD
ROOT
HETATM    1  C   UNL     1     -10.070  20.330  67.445  1.00  0.00    -0.534 C  
HETATM    2  C   UNL     1      -9.940  19.446  68.678  1.00  0.00    -0.527 C  
ENDROOT
BRANCH   2   3
HETATM    3  C   UNL     1      -9.022  18.266  68.391  1.00  0.00    -0.309 C  
BRANCH   3   4
HETATM    4  O   UNL     1      -9.222  17.741  67.072  1.00  0.00    -0.244 OA 
BRANCH   4   5
HETATM    5  C   UNL     1      -8.114  17.273  66.444  1.00  0.00    -0.293 C  
HETATM    6  O   UNL     1      -7.478  17.849  65.577  1.00  0.00    -0.524 OA 
BRANCH   5   7
HETATM    7  C   UNL     1      -7.714  15.960  67.023  1.00  0.00    -0.268 A  
HETATM    8  C   UNL     1      -6.429  15.744  67.547  1.00  0.00    -0.203 A  
HETATM    9  C   UNL     1      -6.051  14.473  67.987  1.00  0.00    -0.161 A  
HETATM   10  C   UNL     1      -6.960  13.423  67.909  1.00  0.00    -0.141 A  
HETATM   11  O   UNL     1      -6.624  12.162  68.304  1.00  0.00    -0.051 OA 
HETATM   12  C   UNL     1      -8.243  13.625  67.409  1.00  0.00    -0.187 A  
HETATM   13  C   UNL     1      -8.619  14.892  66.957  1.00  0.00    -0.265 A  
HETATM   14  H   UNL     1      -7.244  11.445  68.250  1.00  0.00     0.000 HD 
ENDBRANCH   5   7
ENDBRANCH   4   5
ENDBRANCH   3   4
ENDBRANCH   2   3
TORSDOF 4
ENDMDL
MODEL      153
REMARK 921   NORMALIZED FREE ENERGY PREDICTED BY IDOCK:   -2.86 KCAL/MOL
REMARK 922        TOTAL FREE ENERGY PREDICTED BY IDOCK:   -3.95 KCAL/MOL
REMARK 923 INTER-LIGAND FREE ENERGY PREDICTED BY IDOCK:   -3.71 KCAL/MOL
REMARK 924 INTRA-LIGAND FREE ENERGY PREDICTED BY IDOCK:   -0.24 KCAL/MOL
REMARK 927      BINDING AFFINITY PREDICTED BY RF-SCORE:    0.00 PKD
ROOT
HETATM    1  C   UNL     1      -7.989  11.856  67.397  1.00  0.00    -0.162 C  
HETATM    2  C   UNL     1      -9.460  12.245  67.431  1.00  0.00    -0.181 C  
ENDROOT
BRANCH   2   3
HETATM    3  C   UNL     1      -9.618  13.746  67.227  1.00  0.00    -0.237 C  
BRANCH   3   4
HETATM    4  O   UNL     1      -8.749  14.497  68.086  1.00  0.00    -0.158 OA 
BRANCH   4   5
HETATM    5  C   UNL     1      -9.325  15.521  68.765  1.00  0.00    -0.209 C  
HETATM    6  O   UNL     1      -9.751  15.480  69.907  1.00  0.00    -0.290 OA 
BRANCH   5   7
HETATM    7  C   UNL     1      -9.295  16.762  67.941  1.00  0.00    -0.229 A  
HETATM    8  C   UNL     1      -8.086  17.354  67.541  1.00  0.00    -0.205 A  
HETATM    9  C   UNL     1      -8.090  18.573  66.858  1.00  0.00    -0.254 A  
HETATM   10  C   UNL     1      -9.302  19.193  66.572  1.00  0.00    -0.348 A  
HETATM   11  O   UNL     1      -9.349  20.395  65.930  1.00  0.00    -0.621 OA 
HETATM   12  C   UNL     1     -10.509  18.610  66.945  1.00  0.00    -0.449 A  
HETATM   13  C   UNL     1     -10.507  17.397  67.639  1.00  0.00    -0.368 A  
HETATM   14  H   UNL     1     -10.176  20.819  65.735  1.00  0.00     0.000 HD 
ENDBRANCH   5   7
ENDBRANCH   4   5
ENDBRANCH   3   4
ENDBRANCH   2   3
TORSDOF 4
ENDMDL
MODEL      154
REMARK 921   NORMALIZED FREE ENERGY PREDICTED BY IDOCK:   -2.83 KCAL/MOL
REMARK 922        TOTAL FREE ENERGY PREDICTED BY IDOCK:   -3.92 KCAL/MOL
REMARK 923 INTER-LIGAND FREE ENERGY PREDICTED BY IDOCK:   -3.68 KCAL/MOL
REMARK 924 INTRA-LIGAND FREE ENERGY PREDICTED BY IDOCK:   -0.24 KCAL/MOL
REMARK 927      BINDING AFFINITY PREDICTED BY RF-SCORE:    0.00 PKD
ROOT
HETATM    1  C   UNL     1     -10.541  11.396  69.281  1.00  0.00    -0.148 C  
HETATM    2  C   UNL     1     -10.836  12.239  68.049  1.00  0.00    -0.253 C  
ENDROOT
BRANCH   2   3
HETATM    3  C   UNL     1      -9.577  12.414  67.211  1.00  0.00    -0.199 C  
BRANCH   3   4
HETATM    4  O   UNL     1      -9.160  13.785  67.151  1.00  0.00    -0.220 OA 
BRANCH   4   5
HETATM    5  C   UNL     1      -9.751  14.545  66.195  1.00  0.00    -0.316 C  
HETATM    6  O   UNL     1     -10.344  14.135  65.211  1.00  0.00    -0.344 OA 
BRANCH   5   7
HETATM    7  C   UNL     1      -9.652  15.987  66.554  1.00  0.00    -0.283 A  
HETATM    8  C   UNL     1      -8.577  16.783  66.127  1.00  0.00    -0.299 A  
HETATM    9  C   UNL     1      -8.457  18.104  66.566  1.00  0.00    -0.283 A  
HETATM   10  C   UNL     1      -9.417  18.628  67.427  1.00  0.00    -0.297 A  
HETATM   11  O   UNL     1      -9.325  19.903  67.900  1.00  0.00    -0.336 OA 
HETATM   12  C   UNL     1     -10.498  17.858  67.845  1.00  0.00    -0.404 A  
HETATM   13  C   UNL     1     -10.612  16.533  67.417  1.00  0.00    -0.300 A  
HETATM   14  H   UNL     1      -9.979  20.261  68.488  1.00  0.00     0.000 HD 
ENDBRANCH   5   7
ENDBRANCH   4   5
ENDBRANCH   3   4
ENDBRANCH   2   3
TORSDOF 4
ENDMDL
MODEL      155
REMARK 921   NORMALIZED FREE ENERGY PREDICTED BY IDOCK:   -2.81 KCAL/MOL
REMARK 922        TOTAL FREE ENERGY PREDICTED BY IDOCK:   -3.90 KCAL/MOL
REMARK 923 INTER-LIGAND FREE ENERGY PREDICTED BY IDOCK:   -3.50 KCAL/MOL
REMARK 924 INTRA-LIGAND FREE ENERGY PREDICTED BY IDOCK:   -0.40 KCAL/MOL
REMARK 927      BINDING AFFINITY PREDICTED BY RF-SCORE:    0.00 PKD
ROOT
HETATM    1  C   UNL     1      -7.619   5.783  69.471  1.00  0.00    -0.087 C  
HETATM    2  C   UNL     1      -7.488   6.253  70.913  1.00  0.00    -0.088 C  
ENDROOT
BRANCH   2   3
HETATM    3  C   UNL     1      -7.859   5.132  71.873  1.00  0.00    -0.110 C  
BRANCH   3   4
HETATM    4  O   UNL     1      -9.259   5.134  72.183  1.00  0.00    -0.135 OA 
BRANCH   4   5
HETATM    5  C   UNL     1      -9.675   6.089  73.051  1.00  0.00    -0.158 C  
HETATM    6  O   UNL     1      -9.260   6.265  74.184  1.00  0.00    -0.137 OA 
BRANCH   5   7
HETATM    7  C   UNL     1     -10.677   6.975  72.395  1.00  0.00    -0.262 A  
HETATM    8  C   UNL     1     -10.469   8.357  72.267  1.00  0.00    -0.407 A  
HETATM    9  C   UNL     1     -11.472   9.177  71.741  1.00  0.00    -0.452 A  
HETATM   10  C   UNL     1     -12.678   8.610  71.340  1.00  0.00    -0.276 A  
HETATM   11  O   UNL     1     -13.692   9.376  70.846  1.00  0.00    -0.584 OA 
HETATM   12  C   UNL     1     -12.893   7.239  71.444  1.00  0.00    -0.425 A  
HETATM   13  C   UNL     1     -11.896   6.420  71.981  1.00  0.00    -0.382 A  
HETATM   14  H   UNL     1     -14.515   8.989  70.572  1.00  0.00     0.000 HD 
ENDBRANCH   5   7
ENDBRANCH   4   5
ENDBRANCH   3   4
ENDBRANCH   2   3
TORSDOF 4
ENDMDL
MODEL      156
REMARK 921   NORMALIZED FREE ENERGY PREDICTED BY IDOCK:   -2.81 KCAL/MOL
REMARK 922        TOTAL FREE ENERGY PREDICTED BY IDOCK:   -3.89 KCAL/MOL
REMARK 923 INTER-LIGAND FREE ENERGY PREDICTED BY IDOCK:   -3.63 KCAL/MOL
REMARK 924 INTRA-LIGAND FREE ENERGY PREDICTED BY IDOCK:   -0.26 KCAL/MOL
REMARK 927      BINDING AFFINITY PREDICTED BY RF-SCORE:    0.00 PKD
ROOT
HETATM    1  C   UNL     1     -12.745  12.650  64.719  1.00  0.00    -0.460 C  
HETATM    2  C   UNL     1     -12.589  13.958  65.480  1.00  0.00    -0.560 C  
ENDROOT
BRANCH   2   3
HETATM    3  C   UNL     1     -11.957  13.707  66.843  1.00  0.00    -0.410 C  
BRANCH   3   4
HETATM    4  O   UNL     1     -11.171  12.508  66.856  1.00  0.00    -0.271 OA 
BRANCH   4   5
HETATM    5  C   UNL     1     -11.290  11.731  67.962  1.00  0.00    -0.288 C  
HETATM    6  O   UNL     1     -12.333  11.378  68.488  1.00  0.00    -0.504 OA 
BRANCH   5   7
HETATM    7  C   UNL     1      -9.945  11.283  68.419  1.00  0.00    -0.201 A  
HETATM    8  C   UNL     1      -9.790  10.266  69.374  1.00  0.00    -0.247 A  
HETATM    9  C   UNL     1      -8.521   9.940  69.859  1.00  0.00    -0.210 A  
HETATM   10  C   UNL     1      -7.409  10.628  69.383  1.00  0.00    -0.133 A  
HETATM   11  O   UNL     1      -6.156  10.359  69.848  1.00  0.00    -0.050 OA 
HETATM   12  C   UNL     1      -7.544  11.627  68.423  1.00  0.00    -0.126 A  
HETATM   13  C   UNL     1      -8.814  11.962  67.946  1.00  0.00    -0.172 A  
HETATM   14  H   UNL     1      -5.397  10.830  69.523  1.00  0.00     0.000 HD 
ENDBRANCH   5   7
ENDBRANCH   4   5
ENDBRANCH   3   4
ENDBRANCH   2   3
TORSDOF 4
ENDMDL
MODEL      157
REMARK 921   NORMALIZED FREE ENERGY PREDICTED BY IDOCK:   -2.80 KCAL/MOL
REMARK 922        TOTAL FREE ENERGY PREDICTED BY IDOCK:   -3.89 KCAL/MOL
REMARK 923 INTER-LIGAND FREE ENERGY PREDICTED BY IDOCK:   -3.70 KCAL/MOL
REMARK 924 INTRA-LIGAND FREE ENERGY PREDICTED BY IDOCK:   -0.19 KCAL/MOL
REMARK 927      BINDING AFFINITY PREDICTED BY RF-SCORE:    0.00 PKD
ROOT
HETATM    1  C   UNL     1     -12.479   8.580  72.242  1.00  0.00    -0.448 C  
HETATM    2  C   UNL     1     -11.397   7.746  72.911  1.00  0.00    -0.406 C  
ENDROOT
BRANCH   2   3
HETATM    3  C   UNL     1     -11.300   6.376  72.254  1.00  0.00    -0.290 C  
BRANCH   3   4
HETATM    4  O   UNL     1     -11.245   6.471  70.824  1.00  0.00    -0.280 OA 
BRANCH   4   5
HETATM    5  C   UNL     1     -10.005   6.441  70.273  1.00  0.00    -0.168 C  
HETATM    6  O   UNL     1      -8.963   6.752  70.825  1.00  0.00    -0.149 OA 
BRANCH   5   7
HETATM    7  C   UNL     1     -10.072   5.886  68.892  1.00  0.00    -0.231 A  
HETATM    8  C   UNL     1     -10.760   6.548  67.863  1.00  0.00    -0.357 A  
HETATM    9  C   UNL     1     -10.893   5.952  66.606  1.00  0.00    -0.292 A  
HETATM   10  C   UNL     1     -10.333   4.698  66.381  1.00  0.00    -0.226 A  
HETATM   11  O   UNL     1     -10.462   4.070  65.177  1.00  0.00    -0.418 OA 
HETATM   12  C   UNL     1      -9.633   4.037  67.385  1.00  0.00    -0.222 A  
HETATM   13  C   UNL     1      -9.509   4.626  68.647  1.00  0.00    -0.213 A  
HETATM   14  H   UNL     1     -10.080   3.214  65.024  1.00  0.00     0.000 HD 
ENDBRANCH   5   7
ENDBRANCH   4   5
ENDBRANCH   3   4
ENDBRANCH   2   3
TORSDOF 4
ENDMDL
MODEL      158
REMARK 921   NORMALIZED FREE ENERGY PREDICTED BY IDOCK:   -2.79 KCAL/MOL
REMARK 922        TOTAL FREE ENERGY PREDICTED BY IDOCK:   -3.87 KCAL/MOL
REMARK 923 INTER-LIGAND FREE ENERGY PREDICTED BY IDOCK:   -4.05 KCAL/MOL
REMARK 924 INTRA-LIGAND FREE ENERGY PREDICTED BY IDOCK:    0.18 KCAL/MOL
REMARK 927      BINDING AFFINITY PREDICTED BY RF-SCORE:    0.00 PKD
ROOT
HETATM    1  C   UNL     1     -13.180  14.462  71.898  1.00  0.00    -0.444 C  
HETATM    2  C   UNL     1     -12.254  15.182  70.929  1.00  0.00    -0.398 C  
ENDROOT
BRANCH   2   3
HETATM    3  C   UNL     1     -12.123  14.394  69.633  1.00  0.00    -0.334 C  
BRANCH   3   4
HETATM    4  O   UNL     1     -12.324  12.989  69.839  1.00  0.00    -0.224 OA 
BRANCH   4   5
HETATM    5  C   UNL     1     -11.410  12.167  69.265  1.00  0.00    -0.266 C  
HETATM    6  O   UNL     1     -10.926  11.165  69.764  1.00  0.00    -0.233 OA 
BRANCH   5   7
HETATM    7  C   UNL     1     -11.126  12.612  67.871  1.00  0.00    -0.285 A  
HETATM    8  C   UNL     1     -10.021  13.422  67.566  1.00  0.00    -0.230 A  
HETATM    9  C   UNL     1      -9.839  13.909  66.268  1.00  0.00    -0.318 A  
HETATM   10  C   UNL     1     -10.761  13.579  65.279  1.00  0.00    -0.323 A  
HETATM   11  O   UNL     1     -10.635  14.054  64.007  1.00  0.00    -0.505 OA 
HETATM   12  C   UNL     1     -11.852  12.763  65.562  1.00  0.00    -0.466 A  
HETATM   13  C   UNL     1     -12.042  12.286  66.862  1.00  0.00    -0.026 A  
HETATM   14  H   UNL     1     -11.265  13.829  63.332  1.00  0.00     0.000 HD 
ENDBRANCH   5   7
ENDBRANCH   4   5
ENDBRANCH   3   4
ENDBRANCH   2   3
TORSDOF 4
ENDMDL
MODEL      159
REMARK 921   NORMALIZED FREE ENERGY PREDICTED BY IDOCK:   -2.79 KCAL/MOL
REMARK 922        TOTAL FREE ENERGY PREDICTED BY IDOCK:   -3.87 KCAL/MOL
REMARK 923 INTER-LIGAND FREE ENERGY PREDICTED BY IDOCK:   -3.49 KCAL/MOL
REMARK 924 INTRA-LIGAND FREE ENERGY PREDICTED BY IDOCK:   -0.38 KCAL/MOL
REMARK 927      BINDING AFFINITY PREDICTED BY RF-SCORE:    0.00 PKD
ROOT
HETATM    1  C   UNL     1      -9.607   8.912  71.389  1.00  0.00    -0.359 C  
HETATM    2  C   UNL     1     -10.902   9.020  70.598  1.00  0.00    -0.295 C  
ENDROOT
BRANCH   2   3
HETATM    3  C   UNL     1     -11.193  10.474  70.252  1.00  0.00    -0.313 C  
BRANCH   3   4
HETATM    4  O   UNL     1     -10.423  10.921  69.128  1.00  0.00    -0.212 OA 
BRANCH   4   5
HETATM    5  C   UNL     1     -11.073  10.957  67.938  1.00  0.00    -0.302 C  
HETATM    6  O   UNL     1     -12.185  11.413  67.736  1.00  0.00    -0.537 OA 
BRANCH   5   7
HETATM    7  C   UNL     1     -10.194  10.424  66.860  1.00  0.00    -0.281 A  
HETATM    8  C   UNL     1      -9.204   9.463  67.121  1.00  0.00    -0.159 A  
HETATM    9  C   UNL     1      -8.327   9.060  66.110  1.00  0.00    -0.124 A  
HETATM   10  C   UNL     1      -8.446   9.615  64.839  1.00  0.00    -0.151 A  
HETATM   11  O   UNL     1      -7.596   9.269  63.831  1.00  0.00    -0.106 OA 
HETATM   12  C   UNL     1      -9.434  10.555  64.560  1.00  0.00    -0.329 A  
HETATM   13  C   UNL     1     -10.304  10.968  65.573  1.00  0.00    -0.321 A  
HETATM   14  H   UNL     1      -7.677   9.648  62.964  1.00  0.00     0.000 HD 
ENDBRANCH   5   7
ENDBRANCH   4   5
ENDBRANCH   3   4
ENDBRANCH   2   3
TORSDOF 4
ENDMDL
MODEL      160
REMARK 921   NORMALIZED FREE ENERGY PREDICTED BY IDOCK:   -2.78 KCAL/MOL
REMARK 922        TOTAL FREE ENERGY PREDICTED BY IDOCK:   -3.85 KCAL/MOL
REMARK 923 INTER-LIGAND FREE ENERGY PREDICTED BY IDOCK:   -3.35 KCAL/MOL
REMARK 924 INTRA-LIGAND FREE ENERGY PREDICTED BY IDOCK:   -0.50 KCAL/MOL
REMARK 927      BINDING AFFINITY PREDICTED BY RF-SCORE:    0.00 PKD
ROOT
HETATM    1  C   UNL     1      -7.376  10.985  69.399  1.00  0.00    -0.092 C  
HETATM    2  C   UNL     1      -7.002   9.510  69.388  1.00  0.00    -0.050 C  
ENDROOT
BRANCH   2   3
HETATM    3  C   UNL     1      -7.819   8.763  68.343  1.00  0.00    -0.104 C  
BRANCH   3   4
HETATM    4  O   UNL     1      -9.002   9.483  67.973  1.00  0.00    -0.124 OA 
BRANCH   4   5
HETATM    5  C   UNL     1     -10.153   8.765  67.949  1.00  0.00    -0.207 C  
HETATM    6  O   UNL     1     -10.690   8.292  66.962  1.00  0.00    -0.307 OA 
BRANCH   5   7
HETATM    7  C   UNL     1     -10.651   8.553  69.338  1.00  0.00    -0.203 A  
HETATM    8  C   UNL     1     -10.725   9.604  70.265  1.00  0.00    -0.335 A  
HETATM    9  C   UNL     1     -11.097   9.354  71.588  1.00  0.00    -0.409 A  
HETATM   10  C   UNL     1     -11.399   8.053  71.979  1.00  0.00    -0.302 A  
HETATM   11  O   UNL     1     -11.742   7.761  73.266  1.00  0.00    -0.659 OA 
HETATM   12  C   UNL     1     -11.348   7.003  71.068  1.00  0.00    -0.325 A  
HETATM   13  C   UNL     1     -10.965   7.250  69.747  1.00  0.00    -0.235 A  
HETATM   14  H   UNL     1     -11.948   6.873  73.533  1.00  0.00     0.000 HD 
ENDBRANCH   5   7
ENDBRANCH   4   5
ENDBRANCH   3   4
ENDBRANCH   2   3
TORSDOF 4
ENDMDL
MODEL      161
REMARK 921   NORMALIZED FREE ENERGY PREDICTED BY IDOCK:   -2.77 KCAL/MOL
REMARK 922        TOTAL FREE ENERGY PREDICTED BY IDOCK:   -3.84 KCAL/MOL
REMARK 923 INTER-LIGAND FREE ENERGY PREDICTED BY IDOCK:   -3.62 KCAL/MOL
REMARK 924 INTRA-LIGAND FREE ENERGY PREDICTED BY IDOCK:   -0.22 KCAL/MOL
REMARK 927      BINDING AFFINITY PREDICTED BY RF-SCORE:    0.00 PKD
ROOT
HETATM    1  C   UNL     1      -8.546   4.359  65.166  1.00  0.00    -0.126 C  
HETATM    2  C   UNL     1      -9.684   4.387  66.177  1.00  0.00    -0.220 C  
ENDROOT
BRANCH   2   3
HETATM    3  C   UNL     1      -9.985   5.819  66.598  1.00  0.00    -0.176 C  
BRANCH   3   4
HETATM    4  O   UNL     1     -10.987   5.876  67.622  1.00  0.00    -0.282 OA 
BRANCH   4   5
HETATM    5  C   UNL     1     -10.898   6.919  68.485  1.00  0.00    -0.180 C  
HETATM    6  O   UNL     1     -10.757   8.093  68.186  1.00  0.00    -0.147 OA 
BRANCH   5   7
HETATM    7  C   UNL     1     -11.081   6.442  69.884  1.00  0.00    -0.444 A  
HETATM    8  C   UNL     1     -12.041   7.008  70.738  1.00  0.00    -0.374 A  
HETATM    9  C   UNL     1     -12.118   6.611  72.076  1.00  0.00    -0.353 A  
HETATM   10  C   UNL     1     -11.239   5.644  72.554  1.00  0.00    -0.293 A  
HETATM   11  O   UNL     1     -11.264   5.247  73.858  1.00  0.00    -0.421 OA 
HETATM   12  C   UNL     1     -10.294   5.060  71.716  1.00  0.00    -0.268 A  
HETATM   13  C   UNL     1     -10.208   5.465  70.381  1.00  0.00    -0.332 A  
HETATM   14  H   UNL     1     -10.663   4.587  74.185  1.00  0.00     0.000 HD 
ENDBRANCH   5   7
ENDBRANCH   4   5
ENDBRANCH   3   4
ENDBRANCH   2   3
TORSDOF 4
ENDMDL
MODEL      162
REMARK 921   NORMALIZED FREE ENERGY PREDICTED BY IDOCK:   -2.76 KCAL/MOL
REMARK 922        TOTAL FREE ENERGY PREDICTED BY IDOCK:   -3.84 KCAL/MOL
REMARK 923 INTER-LIGAND FREE ENERGY PREDICTED BY IDOCK:   -3.57 KCAL/MOL
REMARK 924 INTRA-LIGAND FREE ENERGY PREDICTED BY IDOCK:   -0.27 KCAL/MOL
REMARK 927      BINDING AFFINITY PREDICTED BY RF-SCORE:    0.00 PKD
ROOT
HETATM    1  C   UNL     1     -11.604  13.642  68.495  1.00  0.00    -0.371 C  
HETATM    2  C   UNL     1     -11.533  12.339  69.276  1.00  0.00    -0.352 C  
ENDROOT
BRANCH   2   3
HETATM    3  C   UNL     1     -10.380  11.480  68.774  1.00  0.00    -0.196 C  
BRANCH   3   4
HETATM    4  O   UNL     1     -10.599  10.087  69.031  1.00  0.00    -0.195 OA 
BRANCH   4   5
HETATM    5  C   UNL     1      -9.823   9.531  69.996  1.00  0.00    -0.233 C  
HETATM    6  O   UNL     1      -8.703   9.890  70.317  1.00  0.00    -0.183 OA 
BRANCH   5   7
HETATM    7  C   UNL     1     -10.569   8.443  70.688  1.00  0.00    -0.234 A  
HETATM    8  C   UNL     1     -11.964   8.482  70.837  1.00  0.00    -0.204 A  
HETATM    9  C   UNL     1     -12.623   7.500  71.581  1.00  0.00    -0.376 A  
HETATM   10  C   UNL     1     -11.885   6.478  72.170  1.00  0.00    -0.305 A  
HETATM   11  O   UNL     1     -12.485   5.514  72.925  1.00  0.00    -0.500 OA 
HETATM   12  C   UNL     1     -10.504   6.414  72.016  1.00  0.00    -0.236 A  
HETATM   13  C   UNL     1      -9.842   7.402  71.282  1.00  0.00    -0.182 A  
HETATM   14  H   UNL     1     -11.981   4.816  73.327  1.00  0.00     0.000 HD 
ENDBRANCH   5   7
ENDBRANCH   4   5
ENDBRANCH   3   4
ENDBRANCH   2   3
TORSDOF 4
ENDMDL
MODEL      163
REMARK 921   NORMALIZED FREE ENERGY PREDICTED BY IDOCK:   -2.75 KCAL/MOL
REMARK 922        TOTAL FREE ENERGY PREDICTED BY IDOCK:   -3.83 KCAL/MOL
REMARK 923 INTER-LIGAND FREE ENERGY PREDICTED BY IDOCK:   -3.45 KCAL/MOL
REMARK 924 INTRA-LIGAND FREE ENERGY PREDICTED BY IDOCK:   -0.38 KCAL/MOL
REMARK 927      BINDING AFFINITY PREDICTED BY RF-SCORE:    0.00 PKD
ROOT
HETATM    1  C   UNL     1     -11.900  14.794  70.363  1.00  0.00    -0.352 C  
HETATM    2  C   UNL     1     -10.676  15.691  70.259  1.00  0.00    -0.354 C  
ENDROOT
BRANCH   2   3
HETATM    3  C   UNL     1     -10.523  16.219  68.839  1.00  0.00    -0.273 C  
BRANCH   3   4
HETATM    4  O   UNL     1      -9.357  15.690  68.194  1.00  0.00    -0.191 OA 
BRANCH   4   5
HETATM    5  C   UNL     1      -9.477  15.430  66.868  1.00  0.00    -0.230 C  
HETATM    6  O   UNL     1      -9.425  16.247  65.964  1.00  0.00    -0.312 OA 
BRANCH   5   7
HETATM    7  C   UNL     1      -9.605  13.963  66.644  1.00  0.00    -0.297 A  
HETATM    8  C   UNL     1     -10.337  13.441  65.567  1.00  0.00    -0.302 A  
HETATM    9  C   UNL     1     -10.525  12.061  65.443  1.00  0.00    -0.313 A  
HETATM   10  C   UNL     1      -9.975  11.208  66.394  1.00  0.00    -0.217 A  
HETATM   11  O   UNL     1     -10.156   9.858  66.326  1.00  0.00    -0.237 OA 
HETATM   12  C   UNL     1      -9.231  11.709  67.458  1.00  0.00    -0.172 A  
HETATM   13  C   UNL     1      -9.052  13.089  67.590  1.00  0.00    -0.198 A  
HETATM   14  H   UNL     1      -9.781   9.276  66.975  1.00  0.00     0.000 HD 
ENDBRANCH   5   7
ENDBRANCH   4   5
ENDBRANCH   3   4
ENDBRANCH   2   3
TORSDOF 4
ENDMDL
MODEL      164
REMARK 921   NORMALIZED FREE ENERGY PREDICTED BY IDOCK:   -2.75 KCAL/MOL
REMARK 922        TOTAL FREE ENERGY PREDICTED BY IDOCK:   -3.82 KCAL/MOL
REMARK 923 INTER-LIGAND FREE ENERGY PREDICTED BY IDOCK:   -4.06 KCAL/MOL
REMARK 924 INTRA-LIGAND FREE ENERGY PREDICTED BY IDOCK:    0.24 KCAL/MOL
REMARK 927      BINDING AFFINITY PREDICTED BY RF-SCORE:    0.00 PKD
ROOT
HETATM    1  C   UNL     1     -11.732  15.122  68.817  1.00  0.00    -0.366 C  
HETATM    2  C   UNL     1     -12.087  13.871  69.606  1.00  0.00    -0.404 C  
ENDROOT
BRANCH   2   3
HETATM    3  C   UNL     1     -11.292  12.676  69.095  1.00  0.00    -0.282 C  
BRANCH   3   4
HETATM    4  O   UNL     1     -12.047  11.460  69.170  1.00  0.00    -0.324 OA 
BRANCH   4   5
HETATM    5  C   UNL     1     -12.190  10.924  70.408  1.00  0.00    -0.365 C  
HETATM    6  O   UNL     1     -13.125  11.105  71.170  1.00  0.00    -0.331 OA 
BRANCH   5   7
HETATM    7  C   UNL     1     -11.063   9.992  70.695  1.00  0.00    -0.408 A  
HETATM    8  C   UNL     1     -11.065   9.155  71.822  1.00  0.00    -0.437 A  
HETATM    9  C   UNL     1      -9.948   8.370  72.120  1.00  0.00    -0.376 A  
HETATM   10  C   UNL     1      -8.835   8.419  71.286  1.00  0.00    -0.167 A  
HETATM   11  O   UNL     1      -7.716   7.688  71.554  1.00  0.00    -0.081 OA 
HETATM   12  C   UNL     1      -8.825   9.229  70.155  1.00  0.00    -0.235 A  
HETATM   13  C   UNL     1      -9.936  10.025  69.863  1.00  0.00    -0.280 A  
HETATM   14  H   UNL     1      -6.956   7.722  70.985  1.00  0.00     0.000 HD 
ENDBRANCH   5   7
ENDBRANCH   4   5
ENDBRANCH   3   4
ENDBRANCH   2   3
TORSDOF 4
ENDMDL
MODEL      165
REMARK 921   NORMALIZED FREE ENERGY PREDICTED BY IDOCK:   -2.73 KCAL/MOL
REMARK 922        TOTAL FREE ENERGY PREDICTED BY IDOCK:   -3.80 KCAL/MOL
REMARK 923 INTER-LIGAND FREE ENERGY PREDICTED BY IDOCK:   -3.32 KCAL/MOL
REMARK 924 INTRA-LIGAND FREE ENERGY PREDICTED BY IDOCK:   -0.47 KCAL/MOL
REMARK 927      BINDING AFFINITY PREDICTED BY RF-SCORE:    0.00 PKD
ROOT
HETATM    1  C   UNL     1      -9.231   9.453  67.390  1.00  0.00    -0.145 C  
HETATM    2  C   UNL     1      -8.237  10.274  68.198  1.00  0.00    -0.114 C  
ENDROOT
BRANCH   2   3
HETATM    3  C   UNL     1      -7.333   9.361  69.015  1.00  0.00    -0.072 C  
BRANCH   3   4
HETATM    4  O   UNL     1      -8.070   8.313  69.658  1.00  0.00    -0.112 OA 
BRANCH   4   5
HETATM    5  C   UNL     1      -8.356   8.506  70.971  1.00  0.00    -0.147 C  
HETATM    6  O   UNL     1      -7.611   8.987  71.808  1.00  0.00    -0.321 OA 
BRANCH   5   7
HETATM    7  C   UNL     1      -9.767   8.119  71.249  1.00  0.00    -0.207 A  
HETATM    8  C   UNL     1     -10.356   8.329  72.506  1.00  0.00    -0.401 A  
HETATM    9  C   UNL     1     -11.647   7.861  72.768  1.00  0.00    -0.387 A  
HETATM   10  C   UNL     1     -12.346   7.188  71.770  1.00  0.00    -0.350 A  
HETATM   11  O   UNL     1     -13.596   6.692  71.992  1.00  0.00    -0.481 OA 
HETATM   12  C   UNL     1     -11.782   6.987  70.514  1.00  0.00    -0.359 A  
HETATM   13  C   UNL     1     -10.487   7.444  70.254  1.00  0.00    -0.229 A  
HETATM   14  H   UNL     1     -14.073   6.232  71.311  1.00  0.00     0.000 HD 
ENDBRANCH   5   7
ENDBRANCH   4   5
ENDBRANCH   3   4
ENDBRANCH   2   3
TORSDOF 4
ENDMDL
MODEL      166
REMARK 921   NORMALIZED FREE ENERGY PREDICTED BY IDOCK:   -2.72 KCAL/MOL
REMARK 922        TOTAL FREE ENERGY PREDICTED BY IDOCK:   -3.78 KCAL/MOL
REMARK 923 INTER-LIGAND FREE ENERGY PREDICTED BY IDOCK:   -3.82 KCAL/MOL
REMARK 924 INTRA-LIGAND FREE ENERGY PREDICTED BY IDOCK:    0.03 KCAL/MOL
REMARK 927      BINDING AFFINITY PREDICTED BY RF-SCORE:    0.00 PKD
ROOT
HETATM    1  C   UNL     1      -9.883  15.871  68.604  1.00  0.00    -0.212 C  
HETATM    2  C   UNL     1      -8.892  15.527  67.501  1.00  0.00    -0.191 C  
ENDROOT
BRANCH   2   3
HETATM    3  C   UNL     1      -9.486  14.490  66.558  1.00  0.00    -0.289 C  
BRANCH   3   4
HETATM    4  O   UNL     1     -10.673  13.892  67.098  1.00  0.00    -0.279 OA 
BRANCH   4   5
HETATM    5  C   UNL     1     -10.578  12.582  67.435  1.00  0.00    -0.223 C  
HETATM    6  O   UNL     1     -10.699  12.113  68.554  1.00  0.00    -0.217 OA 
BRANCH   5   7
HETATM    7  C   UNL     1     -10.382  11.752  66.213  1.00  0.00    -0.259 A  
HETATM    8  C   UNL     1      -9.519  10.645  66.201  1.00  0.00    -0.218 A  
HETATM    9  C   UNL     1      -9.277   9.951  65.013  1.00  0.00    -0.295 A  
HETATM   10  C   UNL     1      -9.903  10.362  63.841  1.00  0.00    -0.267 A  
HETATM   11  O   UNL     1      -9.675   9.729  62.655  1.00  0.00    -0.549 OA 
HETATM   12  C   UNL     1     -10.776  11.447  63.839  1.00  0.00    -0.462 A  
HETATM   13  C   UNL     1     -11.009  12.150  65.024  1.00  0.00    -0.355 A  
HETATM   14  H   UNL     1     -10.102  10.010  61.854  1.00  0.00     0.000 HD 
ENDBRANCH   5   7
ENDBRANCH   4   5
ENDBRANCH   3   4
ENDBRANCH   2   3
TORSDOF 4
ENDMDL
MODEL      167
REMARK 921   NORMALIZED FREE ENERGY PREDICTED BY IDOCK:   -2.68 KCAL/MOL
REMARK 922        TOTAL FREE ENERGY PREDICTED BY IDOCK:   -3.74 KCAL/MOL
REMARK 923 INTER-LIGAND FREE ENERGY PREDICTED BY IDOCK:   -3.60 KCAL/MOL
REMARK 924 INTRA-LIGAND FREE ENERGY PREDICTED BY IDOCK:   -0.14 KCAL/MOL
REMARK 927      BINDING AFFINITY PREDICTED BY RF-SCORE:    0.00 PKD
ROOT
HETATM    1  C   UNL     1      -8.891  11.103  62.514  1.00  0.00    -0.331 C  
HETATM    2  C   UNL     1      -9.776  10.897  63.734  1.00  0.00    -0.354 C  
ENDROOT
BRANCH   2   3
HETATM    3  C   UNL     1      -9.125   9.918  64.703  1.00  0.00    -0.242 C  
BRANCH   3   4
HETATM    4  O   UNL     1      -9.819   9.866  65.957  1.00  0.00    -0.227 OA 
BRANCH   4   5
HETATM    5  C   UNL     1      -9.470  10.808  66.869  1.00  0.00    -0.168 C  
HETATM    6  O   UNL     1      -8.580  11.633  66.751  1.00  0.00    -0.171 OA 
BRANCH   5   7
HETATM    7  C   UNL     1     -10.395  10.757  68.036  1.00  0.00    -0.211 A  
HETATM    8  C   UNL     1     -11.404  11.716  68.221  1.00  0.00    -0.348 A  
HETATM    9  C   UNL     1     -12.188  11.702  69.378  1.00  0.00    -0.246 A  
HETATM   10  C   UNL     1     -11.965  10.725  70.343  1.00  0.00    -0.357 A  
HETATM   11  O   UNL     1     -12.689  10.690  71.498  1.00  0.00    -0.391 OA 
HETATM   12  C   UNL     1     -10.981   9.756  70.166  1.00  0.00    -0.339 A  
HETATM   13  C   UNL     1     -10.188   9.776  69.015  1.00  0.00    -0.214 A  
HETATM   14  H   UNL     1     -12.537  10.023  72.157  1.00  0.00     0.000 HD 
ENDBRANCH   5   7
ENDBRANCH   4   5
ENDBRANCH   3   4
ENDBRANCH   2   3
TORSDOF 4
ENDMDL
MODEL      168
REMARK 921   NORMALIZED FREE ENERGY PREDICTED BY IDOCK:   -2.68 KCAL/MOL
REMARK 922        TOTAL FREE ENERGY PREDICTED BY IDOCK:   -3.73 KCAL/MOL
REMARK 923 INTER-LIGAND FREE ENERGY PREDICTED BY IDOCK:   -3.79 KCAL/MOL
REMARK 924 INTRA-LIGAND FREE ENERGY PREDICTED BY IDOCK:    0.06 KCAL/MOL
REMARK 927      BINDING AFFINITY PREDICTED BY RF-SCORE:    0.00 PKD
ROOT
HETATM    1  C   UNL     1      -5.736  14.478  69.566  1.00  0.00    -0.095 C  
HETATM    2  C   UNL     1      -6.664  15.684  69.545  1.00  0.00    -0.185 C  
ENDROOT
BRANCH   2   3
HETATM    3  C   UNL     1      -8.113  15.238  69.404  1.00  0.00    -0.230 C  
BRANCH   3   4
HETATM    4  O   UNL     1      -8.780  15.917  68.331  1.00  0.00    -0.173 OA 
BRANCH   4   5
HETATM    5  C   UNL     1      -8.360  15.606  67.079  1.00  0.00    -0.228 C  
HETATM    6  O   UNL     1      -7.233  15.755  66.637  1.00  0.00    -0.168 OA 
BRANCH   5   7
HETATM    7  C   UNL     1      -9.466  14.966  66.314  1.00  0.00    -0.339 A  
HETATM    8  C   UNL     1     -10.355  15.718  65.530  1.00  0.00    -0.430 A  
HETATM    9  C   UNL     1     -11.444  15.101  64.908  1.00  0.00    -0.374 A  
HETATM   10  C   UNL     1     -11.638  13.733  65.067  1.00  0.00    -0.341 A  
HETATM   11  O   UNL     1     -12.701  13.096  64.499  1.00  0.00    -0.647 OA 
HETATM   12  C   UNL     1     -10.756  12.970  65.827  1.00  0.00    -0.291 A  
HETATM   13  C   UNL     1      -9.673  13.587  66.459  1.00  0.00    -0.287 A  
HETATM   14  H   UNL     1     -12.834  12.162  64.609  1.00  0.00     0.000 HD 
ENDBRANCH   5   7
ENDBRANCH   4   5
ENDBRANCH   3   4
ENDBRANCH   2   3
TORSDOF 4
ENDMDL
MODEL      169
REMARK 921   NORMALIZED FREE ENERGY PREDICTED BY IDOCK:   -2.67 KCAL/MOL
REMARK 922        TOTAL FREE ENERGY PREDICTED BY IDOCK:   -3.72 KCAL/MOL
REMARK 923 INTER-LIGAND FREE ENERGY PREDICTED BY IDOCK:   -3.55 KCAL/MOL
REMARK 924 INTRA-LIGAND FREE ENERGY PREDICTED BY IDOCK:   -0.17 KCAL/MOL
REMARK 927      BINDING AFFINITY PREDICTED BY RF-SCORE:    0.00 PKD
ROOT
HETATM    1  C   UNL     1      -9.757   4.216  70.221  1.00  0.00    -0.277 C  
HETATM    2  C   UNL     1     -10.419   5.585  70.165  1.00  0.00    -0.370 C  
ENDROOT
BRANCH   2   3
HETATM    3  C   UNL     1      -9.484   6.600  69.521  1.00  0.00    -0.147 C  
BRANCH   3   4
HETATM    4  O   UNL     1     -10.199   7.728  68.998  1.00  0.00    -0.198 OA 
BRANCH   4   5
HETATM    5  C   UNL     1     -10.395   7.738  67.656  1.00  0.00    -0.239 C  
HETATM    6  O   UNL     1     -10.624   6.769  66.953  1.00  0.00    -0.280 OA 
BRANCH   5   7
HETATM    7  C   UNL     1     -10.374   9.138  67.147  1.00  0.00    -0.337 A  
HETATM    8  C   UNL     1      -9.560   9.520  66.068  1.00  0.00    -0.316 A  
HETATM    9  C   UNL     1      -9.485  10.861  65.681  1.00  0.00    -0.252 A  
HETATM   10  C   UNL     1     -10.227  11.815  66.369  1.00  0.00    -0.215 A  
HETATM   11  O   UNL     1     -10.163  13.136  66.041  1.00  0.00    -0.275 OA 
HETATM   12  C   UNL     1     -11.053  11.450  67.429  1.00  0.00    -0.349 A  
HETATM   13  C   UNL     1     -11.120  10.111  67.826  1.00  0.00    -0.293 A  
HETATM   14  H   UNL     1     -10.670  13.788  66.511  1.00  0.00     0.000 HD 
ENDBRANCH   5   7
ENDBRANCH   4   5
ENDBRANCH   3   4
ENDBRANCH   2   3
TORSDOF 4
ENDMDL
MODEL      170
REMARK 921   NORMALIZED FREE ENERGY PREDICTED BY IDOCK:   -2.66 KCAL/MOL
REMARK 922        TOTAL FREE ENERGY PREDICTED BY IDOCK:   -3.71 KCAL/MOL
REMARK 923 INTER-LIGAND FREE ENERGY PREDICTED BY IDOCK:   -3.56 KCAL/MOL
REMARK 924 INTRA-LIGAND FREE ENERGY PREDICTED BY IDOCK:   -0.15 KCAL/MOL
REMARK 927      BINDING AFFINITY PREDICTED BY RF-SCORE:    0.00 PKD
ROOT
HETATM    1  C   UNL     1     -10.632  10.423  69.671  1.00  0.00    -0.289 C  
HETATM    2  C   UNL     1     -11.715  10.289  70.731  1.00  0.00    -0.453 C  
ENDROOT
BRANCH   2   3
HETATM    3  C   UNL     1     -11.906   8.828  71.113  1.00  0.00    -0.295 C  
BRANCH   3   4
HETATM    4  O   UNL     1     -11.454   8.560  72.447  1.00  0.00    -0.369 OA 
BRANCH   4   5
HETATM    5  C   UNL     1     -10.176   8.121  72.565  1.00  0.00    -0.313 C  
HETATM    6  O   UNL     1      -9.167   8.789  72.420  1.00  0.00    -0.361 OA 
BRANCH   5   7
HETATM    7  C   UNL     1     -10.164   6.692  72.988  1.00  0.00    -0.225 A  
HETATM    8  C   UNL     1     -11.249   5.837  72.734  1.00  0.00    -0.336 A  
HETATM    9  C   UNL     1     -11.251   4.532  73.234  1.00  0.00    -0.388 A  
HETATM   10  C   UNL     1     -10.166   4.084  73.981  1.00  0.00    -0.167 A  
HETATM   11  O   UNL     1     -10.139   2.827  74.509  1.00  0.00    -0.118 OA 
HETATM   12  C   UNL     1      -9.075   4.913  74.226  1.00  0.00    -0.111 A  
HETATM   13  C   UNL     1      -9.077   6.222  73.737  1.00  0.00    -0.136 A  
HETATM   14  H   UNL     1      -9.399   2.521  75.019  1.00  0.00     0.000 HD 
ENDBRANCH   5   7
ENDBRANCH   4   5
ENDBRANCH   3   4
ENDBRANCH   2   3
TORSDOF 4
ENDMDL
MODEL      171
REMARK 921   NORMALIZED FREE ENERGY PREDICTED BY IDOCK:   -2.64 KCAL/MOL
REMARK 922        TOTAL FREE ENERGY PREDICTED BY IDOCK:   -3.69 KCAL/MOL
REMARK 923 INTER-LIGAND FREE ENERGY PREDICTED BY IDOCK:   -3.51 KCAL/MOL
REMARK 924 INTRA-LIGAND FREE ENERGY PREDICTED BY IDOCK:   -0.18 KCAL/MOL
REMARK 927      BINDING AFFINITY PREDICTED BY RF-SCORE:    0.00 PKD
ROOT
HETATM    1  C   UNL     1     -14.289   7.273  71.831  1.00  0.00    -0.507 C  
HETATM    2  C   UNL     1     -13.229   8.159  71.192  1.00  0.00    -0.052 C  
ENDROOT
BRANCH   2   3
HETATM    3  C   UNL     1     -12.192   8.576  72.226  1.00  0.00    -0.389 C  
BRANCH   3   4
HETATM    4  O   UNL     1     -10.857   8.278  71.795  1.00  0.00    -0.235 OA 
BRANCH   4   5
HETATM    5  C   UNL     1     -10.454   8.880  70.649  1.00  0.00    -0.221 C  
HETATM    6  O   UNL     1     -10.054  10.027  70.537  1.00  0.00    -0.216 OA 
BRANCH   5   7
HETATM    7  C   UNL     1     -10.487   7.907  69.521  1.00  0.00    -0.226 A  
HETATM    8  C   UNL     1     -10.778   8.308  68.207  1.00  0.00    -0.076 A  
HETATM    9  C   UNL     1     -10.904   7.357  67.191  1.00  0.00    -0.340 A  
HETATM   10  C   UNL     1     -10.731   6.009  67.489  1.00  0.00    -0.301 A  
HETATM   11  O   UNL     1     -10.870   5.048  66.533  1.00  0.00    -0.425 OA 
HETATM   12  C   UNL     1     -10.424   5.598  68.783  1.00  0.00    -0.289 A  
HETATM   13  C   UNL     1     -10.310   6.546  69.803  1.00  0.00    -0.234 A  
HETATM   14  H   UNL     1     -10.753   4.127  66.737  1.00  0.00     0.000 HD 
ENDBRANCH   5   7
ENDBRANCH   4   5
ENDBRANCH   3   4
ENDBRANCH   2   3
TORSDOF 4
ENDMDL
MODEL      172
REMARK 921   NORMALIZED FREE ENERGY PREDICTED BY IDOCK:   -2.63 KCAL/MOL
REMARK 922        TOTAL FREE ENERGY PREDICTED BY IDOCK:   -3.67 KCAL/MOL
REMARK 923 INTER-LIGAND FREE ENERGY PREDICTED BY IDOCK:   -3.48 KCAL/MOL
REMARK 924 INTRA-LIGAND FREE ENERGY PREDICTED BY IDOCK:   -0.20 KCAL/MOL
REMARK 927      BINDING AFFINITY PREDICTED BY RF-SCORE:    0.00 PKD
ROOT
HETATM    1  C   UNL     1     -13.943  14.037  72.002  1.00  0.00    -0.598 C  
HETATM    2  C   UNL     1     -13.483  15.404  71.515  1.00  0.00    -0.601 C  
ENDROOT
BRANCH   2   3
HETATM    3  C   UNL     1     -12.096  15.306  70.893  1.00  0.00    -0.344 C  
BRANCH   3   4
HETATM    4  O   UNL     1     -12.060  14.364  69.812  1.00  0.00    -0.303 OA 
BRANCH   4   5
HETATM    5  C   UNL     1     -10.866  14.228  69.183  1.00  0.00    -0.242 C  
HETATM    6  O   UNL     1      -9.927  15.004  69.239  1.00  0.00    -0.225 OA 
BRANCH   5   7
HETATM    7  C   UNL     1     -10.817  12.927  68.457  1.00  0.00    -0.283 A  
HETATM    8  C   UNL     1      -9.729  12.050  68.586  1.00  0.00    -0.104 A  
HETATM    9  C   UNL     1      -9.664  10.887  67.813  1.00  0.00    -0.183 A  
HETATM   10  C   UNL     1     -10.689  10.603  66.917  1.00  0.00    -0.237 A  
HETATM   11  O   UNL     1     -10.653   9.494  66.126  1.00  0.00    -0.081 OA 
HETATM   12  C   UNL     1     -11.783  11.454  66.790  1.00  0.00     0.120 A  
HETATM   13  C   UNL     1     -11.844  12.623  67.554  1.00  0.00    -0.396 A  
HETATM   14  H   UNL     1     -11.353   9.300  65.513  1.00  0.00     0.000 HD 
ENDBRANCH   5   7
ENDBRANCH   4   5
ENDBRANCH   3   4
ENDBRANCH   2   3
TORSDOF 4
ENDMDL
MODEL      173
REMARK 921   NORMALIZED FREE ENERGY PREDICTED BY IDOCK:   -2.62 KCAL/MOL
REMARK 922        TOTAL FREE ENERGY PREDICTED BY IDOCK:   -3.66 KCAL/MOL
REMARK 923 INTER-LIGAND FREE ENERGY PREDICTED BY IDOCK:   -3.21 KCAL/MOL
REMARK 924 INTRA-LIGAND FREE ENERGY PREDICTED BY IDOCK:   -0.45 KCAL/MOL
REMARK 927      BINDING AFFINITY PREDICTED BY RF-SCORE:    0.00 PKD
ROOT
HETATM    1  C   UNL     1     -12.116   8.179  72.360  1.00  0.00    -0.406 C  
HETATM    2  C   UNL     1     -10.925   7.315  72.746  1.00  0.00    -0.366 C  
ENDROOT
BRANCH   2   3
HETATM    3  C   UNL     1     -11.053   5.928  72.130  1.00  0.00    -0.281 C  
BRANCH   3   4
HETATM    4  O   UNL     1     -11.043   5.976  70.697  1.00  0.00    -0.302 OA 
BRANCH   4   5
HETATM    5  C   UNL     1      -9.848   6.257  70.119  1.00  0.00    -0.170 C  
HETATM    6  O   UNL     1      -8.797   5.672  70.315  1.00  0.00    -0.134 OA 
BRANCH   5   7
HETATM    7  C   UNL     1     -10.007   7.353  69.123  1.00  0.00    -0.173 A  
HETATM    8  C   UNL     1     -10.037   8.703  69.509  1.00  0.00    -0.203 A  
HETATM    9  C   UNL     1     -10.291   9.702  68.564  1.00  0.00    -0.231 A  
HETATM   10  C   UNL     1     -10.509   9.348  67.237  1.00  0.00    -0.264 A  
HETATM   11  O   UNL     1     -10.786  10.288  66.289  1.00  0.00    -0.068 OA 
HETATM   12  C   UNL     1     -10.465   8.016  66.835  1.00  0.00    -0.387 A  
HETATM   13  C   UNL     1     -10.223   7.015  67.780  1.00  0.00    -0.227 A  
HETATM   14  H   UNL     1     -10.936  10.046  65.382  1.00  0.00     0.000 HD 
ENDBRANCH   5   7
ENDBRANCH   4   5
ENDBRANCH   3   4
ENDBRANCH   2   3
TORSDOF 4
ENDMDL
MODEL      174
REMARK 921   NORMALIZED FREE ENERGY PREDICTED BY IDOCK:   -2.62 KCAL/MOL
REMARK 922        TOTAL FREE ENERGY PREDICTED BY IDOCK:   -3.66 KCAL/MOL
REMARK 923 INTER-LIGAND FREE ENERGY PREDICTED BY IDOCK:   -3.72 KCAL/MOL
REMARK 924 INTRA-LIGAND FREE ENERGY PREDICTED BY IDOCK:    0.06 KCAL/MOL
REMARK 927      BINDING AFFINITY PREDICTED BY RF-SCORE:    0.00 PKD
ROOT
HETATM    1  C   UNL     1      -6.602   9.884  66.726  1.00  0.00    -0.071 C  
HETATM    2  C   UNL     1      -8.028   9.529  67.124  1.00  0.00    -0.102 C  
ENDROOT
BRANCH   2   3
HETATM    3  C   UNL     1      -8.172   9.534  68.640  1.00  0.00    -0.112 C  
BRANCH   3   4
HETATM    4  O   UNL     1      -9.537   9.375  69.048  1.00  0.00    -0.158 OA 
BRANCH   4   5
HETATM    5  C   UNL     1     -10.470   9.518  68.073  1.00  0.00    -0.230 C  
HETATM    6  O   UNL     1     -10.832   8.657  67.289  1.00  0.00    -0.217 OA 
BRANCH   5   7
HETATM    7  C   UNL     1     -11.071  10.880  68.137  1.00  0.00    -0.337 A  
HETATM    8  C   UNL     1     -11.316  11.634  66.978  1.00  0.00    -0.373 A  
HETATM    9  C   UNL     1     -11.784  12.947  67.077  1.00  0.00    -0.447 A  
HETATM   10  C   UNL     1     -12.011  13.500  68.333  1.00  0.00    -0.343 A  
HETATM   11  O   UNL     1     -12.442  14.786  68.475  1.00  0.00    -0.582 OA 
HETATM   12  C   UNL     1     -11.790  12.760  69.491  1.00  0.00    -0.379 A  
HETATM   13  C   UNL     1     -11.311  11.450  69.394  1.00  0.00    -0.365 A  
HETATM   14  H   UNL     1     -12.597  15.163  69.333  1.00  0.00     0.000 HD 
ENDBRANCH   5   7
ENDBRANCH   4   5
ENDBRANCH   3   4
ENDBRANCH   2   3
TORSDOF 4
ENDMDL
MODEL      175
REMARK 921   NORMALIZED FREE ENERGY PREDICTED BY IDOCK:   -2.61 KCAL/MOL
REMARK 922        TOTAL FREE ENERGY PREDICTED BY IDOCK:   -3.65 KCAL/MOL
REMARK 923 INTER-LIGAND FREE ENERGY PREDICTED BY IDOCK:   -3.48 KCAL/MOL
REMARK 924 INTRA-LIGAND FREE ENERGY PREDICTED BY IDOCK:   -0.17 KCAL/MOL
REMARK 927      BINDING AFFINITY PREDICTED BY RF-SCORE:    0.00 PKD
ROOT
HETATM    1  C   UNL     1     -11.600   9.900  71.120  1.00  0.00    -0.468 C  
HETATM    2  C   UNL     1     -11.398   9.571  69.648  1.00  0.00    -0.069 C  
ENDROOT
BRANCH   2   3
HETATM    3  C   UNL     1     -11.308  10.849  68.825  1.00  0.00    -0.292 C  
BRANCH   3   4
HETATM    4  O   UNL     1     -10.008  11.447  68.907  1.00  0.00    -0.198 OA 
BRANCH   4   5
HETATM    5  C   UNL     1      -9.349  11.603  67.731  1.00  0.00    -0.178 C  
HETATM    6  O   UNL     1      -8.766  10.731  67.110  1.00  0.00    -0.130 OA 
BRANCH   5   7
HETATM    7  C   UNL     1      -9.504  13.001  67.240  1.00  0.00    -0.224 A  
HETATM    8  C   UNL     1     -10.572  13.379  66.411  1.00  0.00    -0.285 A  
HETATM    9  C   UNL     1     -10.632  14.671  65.882  1.00  0.00    -0.319 A  
HETATM   10  C   UNL     1      -9.628  15.584  66.189  1.00  0.00    -0.330 A  
HETATM   11  O   UNL     1      -9.635  16.846  65.675  1.00  0.00    -0.534 OA 
HETATM   12  C   UNL     1      -8.572  15.230  67.025  1.00  0.00    -0.256 A  
HETATM   13  C   UNL     1      -8.504  13.934  67.544  1.00  0.00    -0.200 A  
HETATM   14  H   UNL     1      -8.949  17.469  65.884  1.00  0.00     0.000 HD 
ENDBRANCH   5   7
ENDBRANCH   4   5
ENDBRANCH   3   4
ENDBRANCH   2   3
TORSDOF 4
ENDMDL
MODEL      176
REMARK 921   NORMALIZED FREE ENERGY PREDICTED BY IDOCK:   -2.60 KCAL/MOL
REMARK 922        TOTAL FREE ENERGY PREDICTED BY IDOCK:   -3.63 KCAL/MOL
REMARK 923 INTER-LIGAND FREE ENERGY PREDICTED BY IDOCK:   -3.87 KCAL/MOL
REMARK 924 INTRA-LIGAND FREE ENERGY PREDICTED BY IDOCK:    0.24 KCAL/MOL
REMARK 927      BINDING AFFINITY PREDICTED BY RF-SCORE:    0.00 PKD
ROOT
HETATM    1  C   UNL     1     -13.506  14.713  71.600  1.00  0.00    -0.452 C  
HETATM    2  C   UNL     1     -12.374  13.811  71.128  1.00  0.00    -0.428 C  
ENDROOT
BRANCH   2   3
HETATM    3  C   UNL     1     -12.110  14.024  69.643  1.00  0.00    -0.355 C  
BRANCH   3   4
HETATM    4  O   UNL     1     -12.043  12.783  68.929  1.00  0.00    -0.269 OA 
BRANCH   4   5
HETATM    5  C   UNL     1     -11.658  12.864  67.630  1.00  0.00    -0.355 C  
HETATM    6  O   UNL     1     -12.283  12.457  66.665  1.00  0.00    -0.562 OA 
BRANCH   5   7
HETATM    7  C   UNL     1     -10.373  13.610  67.524  1.00  0.00    -0.241 A  
HETATM    8  C   UNL     1     -10.338  15.008  67.397  1.00  0.00    -0.238 A  
HETATM    9  C   UNL     1      -9.123  15.668  67.195  1.00  0.00    -0.227 A  
HETATM   10  C   UNL     1      -7.946  14.929  67.126  1.00  0.00    -0.195 A  
HETATM   11  O   UNL     1      -6.743  15.531  66.904  1.00  0.00    -0.234 OA 
HETATM   12  C   UNL     1      -7.962  13.545  67.267  1.00  0.00    -0.125 A  
HETATM   13  C   UNL     1      -9.177  12.882  67.458  1.00  0.00    -0.192 A  
HETATM   14  H   UNL     1      -5.939  15.027  66.857  1.00  0.00     0.000 HD 
ENDBRANCH   5   7
ENDBRANCH   4   5
ENDBRANCH   3   4
ENDBRANCH   2   3
TORSDOF 4
ENDMDL
MODEL      177
REMARK 921   NORMALIZED FREE ENERGY PREDICTED BY IDOCK:   -2.57 KCAL/MOL
REMARK 922        TOTAL FREE ENERGY PREDICTED BY IDOCK:   -3.60 KCAL/MOL
REMARK 923 INTER-LIGAND FREE ENERGY PREDICTED BY IDOCK:   -3.45 KCAL/MOL
REMARK 924 INTRA-LIGAND FREE ENERGY PREDICTED BY IDOCK:   -0.15 KCAL/MOL
REMARK 927      BINDING AFFINITY PREDICTED BY RF-SCORE:    0.00 PKD
ROOT
HETATM    1  C   UNL     1     -11.993   6.663  71.161  1.00  0.00    -0.412 C  
HETATM    2  C   UNL     1     -11.347   6.793  69.790  1.00  0.00    -0.350 C  
ENDROOT
BRANCH   2   3
HETATM    3  C   UNL     1     -10.062   7.604  69.882  1.00  0.00    -0.198 C  
BRANCH   3   4
HETATM    4  O   UNL     1     -10.017   8.649  68.901  1.00  0.00    -0.179 OA 
BRANCH   4   5
HETATM    5  C   UNL     1      -9.506   8.308  67.692  1.00  0.00    -0.149 C  
HETATM    6  O   UNL     1      -9.123   7.200  67.356  1.00  0.00    -0.120 OA 
BRANCH   5   7
HETATM    7  C   UNL     1      -9.549   9.478  66.770  1.00  0.00    -0.229 A  
HETATM    8  C   UNL     1     -10.413  10.562  66.992  1.00  0.00    -0.304 A  
HETATM    9  C   UNL     1     -10.505  11.595  66.056  1.00  0.00    -0.294 A  
HETATM   10  C   UNL     1      -9.728  11.544  64.903  1.00  0.00    -0.234 A  
HETATM   11  O   UNL     1      -9.806  12.518  63.951  1.00  0.00    -0.593 OA 
HETATM   12  C   UNL     1      -8.853  10.486  64.677  1.00  0.00    -0.211 A  
HETATM   13  C   UNL     1      -8.769   9.446  65.607  1.00  0.00    -0.179 A  
HETATM   14  H   UNL     1      -9.275  12.483  63.164  1.00  0.00     0.000 HD 
ENDBRANCH   5   7
ENDBRANCH   4   5
ENDBRANCH   3   4
ENDBRANCH   2   3
TORSDOF 4
ENDMDL
MODEL      178
REMARK 921   NORMALIZED FREE ENERGY PREDICTED BY IDOCK:   -2.56 KCAL/MOL
REMARK 922        TOTAL FREE ENERGY PREDICTED BY IDOCK:   -3.59 KCAL/MOL
REMARK 923 INTER-LIGAND FREE ENERGY PREDICTED BY IDOCK:   -3.04 KCAL/MOL
REMARK 924 INTRA-LIGAND FREE ENERGY PREDICTED BY IDOCK:   -0.55 KCAL/MOL
REMARK 927      BINDING AFFINITY PREDICTED BY RF-SCORE:    0.00 PKD
ROOT
HETATM    1  C   UNL     1      -9.886   5.485  68.437  1.00  0.00    -0.186 C  
HETATM    2  C   UNL     1      -9.336   6.632  67.603  1.00  0.00    -0.119 C  
ENDROOT
BRANCH   2   3
HETATM    3  C   UNL     1     -10.181   7.884  67.798  1.00  0.00    -0.216 C  
BRANCH   3   4
HETATM    4  O   UNL     1      -9.497   8.876  68.576  1.00  0.00    -0.146 OA 
BRANCH   4   5
HETATM    5  C   UNL     1     -10.242   9.514  69.513  1.00  0.00    -0.213 C  
HETATM    6  O   UNL     1     -10.739  10.622  69.408  1.00  0.00    -0.216 OA 
BRANCH   5   7
HETATM    7  C   UNL     1     -10.449   8.627  70.692  1.00  0.00    -0.243 A  
HETATM    8  C   UNL     1      -9.374   8.169  71.470  1.00  0.00    -0.210 A  
HETATM    9  C   UNL     1      -9.590   7.256  72.506  1.00  0.00    -0.186 A  
HETATM   10  C   UNL     1     -10.882   6.807  72.764  1.00  0.00    -0.262 A  
HETATM   11  O   UNL     1     -11.134   5.897  73.747  1.00  0.00    -0.413 OA 
HETATM   12  C   UNL     1     -11.961   7.265  72.013  1.00  0.00    -0.333 A  
HETATM   13  C   UNL     1     -11.745   8.170  70.969  1.00  0.00    -0.295 A  
HETATM   14  H   UNL     1     -12.015   5.591  73.923  1.00  0.00     0.000 HD 
ENDBRANCH   5   7
ENDBRANCH   4   5
ENDBRANCH   3   4
ENDBRANCH   2   3
TORSDOF 4
ENDMDL
MODEL      179
REMARK 921   NORMALIZED FREE ENERGY PREDICTED BY IDOCK:   -2.56 KCAL/MOL
REMARK 922        TOTAL FREE ENERGY PREDICTED BY IDOCK:   -3.58 KCAL/MOL
REMARK 923 INTER-LIGAND FREE ENERGY PREDICTED BY IDOCK:   -3.27 KCAL/MOL
REMARK 924 INTRA-LIGAND FREE ENERGY PREDICTED BY IDOCK:   -0.31 KCAL/MOL
REMARK 927      BINDING AFFINITY PREDICTED BY RF-SCORE:    0.00 PKD
ROOT
HETATM    1  C   UNL     1     -13.300  14.632  71.387  1.00  0.00    -0.441 C  
HETATM    2  C   UNL     1     -11.909  14.776  70.788  1.00  0.00    -0.370 C  
ENDROOT
BRANCH   2   3
HETATM    3  C   UNL     1     -11.955  14.563  69.281  1.00  0.00    -0.319 C  
BRANCH   3   4
HETATM    4  O   UNL     1     -11.599  15.751  68.561  1.00  0.00    -0.368 OA 
BRANCH   4   5
HETATM    5  C   UNL     1     -10.743  15.583  67.522  1.00  0.00    -0.300 C  
HETATM    6  O   UNL     1     -11.011  15.703  66.339  1.00  0.00    -0.291 OA 
BRANCH   5   7
HETATM    7  C   UNL     1      -9.370  15.305  68.031  1.00  0.00    -0.197 A  
HETATM    8  C   UNL     1      -8.715  14.093  67.763  1.00  0.00    -0.182 A  
HETATM    9  C   UNL     1      -7.472  13.820  68.340  1.00  0.00    -0.119 A  
HETATM   10  C   UNL     1      -6.885  14.762  69.178  1.00  0.00    -0.133 A  
HETATM   11  O   UNL     1      -5.686  14.525  69.782  1.00  0.00    -0.095 OA 
HETATM   12  C   UNL     1      -7.514  15.976  69.439  1.00  0.00    -0.201 A  
HETATM   13  C   UNL     1      -8.763  16.246  68.873  1.00  0.00    -0.253 A  
HETATM   14  H   UNL     1      -5.285  15.169  70.355  1.00  0.00     0.000 HD 
ENDBRANCH   5   7
ENDBRANCH   4   5
ENDBRANCH   3   4
ENDBRANCH   2   3
TORSDOF 4
ENDMDL
MODEL      180
REMARK 921   NORMALIZED FREE ENERGY PREDICTED BY IDOCK:   -2.56 KCAL/MOL
REMARK 922        TOTAL FREE ENERGY PREDICTED BY IDOCK:   -3.58 KCAL/MOL
REMARK 923 INTER-LIGAND FREE ENERGY PREDICTED BY IDOCK:   -3.29 KCAL/MOL
REMARK 924 INTRA-LIGAND FREE ENERGY PREDICTED BY IDOCK:   -0.29 KCAL/MOL
REMARK 927      BINDING AFFINITY PREDICTED BY RF-SCORE:    0.00 PKD
ROOT
HETATM    1  C   UNL     1     -12.639  13.106  65.192  1.00  0.00    -0.525 C  
HETATM    2  C   UNL     1     -12.311  13.792  66.510  1.00  0.00    -0.432 C  
ENDROOT
BRANCH   2   3
HETATM    3  C   UNL     1     -11.892  12.765  67.554  1.00  0.00    -0.343 C  
BRANCH   3   4
HETATM    4  O   UNL     1     -10.609  12.197  67.260  1.00  0.00    -0.220 OA 
BRANCH   4   5
HETATM    5  C   UNL     1     -10.613  10.907  66.838  1.00  0.00    -0.261 C  
HETATM    6  O   UNL     1     -11.381  10.032  67.199  1.00  0.00    -0.113 OA 
BRANCH   5   7
HETATM    7  C   UNL     1      -9.577  10.711  65.786  1.00  0.00    -0.258 A  
HETATM    8  C   UNL     1      -9.918  10.370  64.467  1.00  0.00    -0.401 A  
HETATM    9  C   UNL     1      -8.921  10.091  63.529  1.00  0.00    -0.279 A  
HETATM   10  C   UNL     1      -7.584  10.158  63.911  1.00  0.00    -0.128 A  
HETATM   11  O   UNL     1      -6.581   9.869  63.034  1.00  0.00    -0.113 OA 
HETATM   12  C   UNL     1      -7.229  10.512  65.209  1.00  0.00    -0.051 A  
HETATM   13  C   UNL     1      -8.226  10.780  66.152  1.00  0.00    -0.163 A  
HETATM   14  H   UNL     1      -5.669   9.915  63.295  1.00  0.00     0.000 HD 
ENDBRANCH   5   7
ENDBRANCH   4   5
ENDBRANCH   3   4
ENDBRANCH   2   3
TORSDOF 4
ENDMDL
MODEL      181
REMARK 921   NORMALIZED FREE ENERGY PREDICTED BY IDOCK:   -2.55 KCAL/MOL
REMARK 922        TOTAL FREE ENERGY PREDICTED BY IDOCK:   -3.58 KCAL/MOL
REMARK 923 INTER-LIGAND FREE ENERGY PREDICTED BY IDOCK:   -3.37 KCAL/MOL
REMARK 924 INTRA-LIGAND FREE ENERGY PREDICTED BY IDOCK:   -0.21 KCAL/MOL
REMARK 927      BINDING AFFINITY PREDICTED BY RF-SCORE:    0.00 PKD
ROOT
HETATM    1  C   UNL     1      -8.821  11.298  62.552  1.00  0.00    -0.273 C  
HETATM    2  C   UNL     1      -9.883  11.024  63.607  1.00  0.00    -0.397 C  
ENDROOT
BRANCH   2   3
HETATM    3  C   UNL     1      -9.462   9.860  64.495  1.00  0.00    -0.264 C  
BRANCH   3   4
HETATM    4  O   UNL     1     -10.321   9.719  65.634  1.00  0.00    -0.199 OA 
BRANCH   4   5
HETATM    5  C   UNL     1      -9.734   9.887  66.846  1.00  0.00    -0.186 C  
HETATM    6  O   UNL     1      -9.150  10.885  67.233  1.00  0.00    -0.141 OA 
BRANCH   5   7
HETATM    7  C   UNL     1      -9.971   8.689  67.699  1.00  0.00    -0.248 A  
HETATM    8  C   UNL     1     -10.614   7.544  67.203  1.00  0.00    -0.415 A  
HETATM    9  C   UNL     1     -10.914   6.478  68.055  1.00  0.00    -0.368 A  
HETATM   10  C   UNL     1     -10.565   6.557  69.400  1.00  0.00    -0.245 A  
HETATM   11  O   UNL     1     -10.862   5.551  70.270  1.00  0.00    -0.289 OA 
HETATM   12  C   UNL     1      -9.911   7.677  69.903  1.00  0.00    -0.184 A  
HETATM   13  C   UNL     1      -9.621   8.750  69.055  1.00  0.00    -0.162 A  
HETATM   14  H   UNL     1     -10.624   5.605  71.188  1.00  0.00     0.000 HD 
ENDBRANCH   5   7
ENDBRANCH   4   5
ENDBRANCH   3   4
ENDBRANCH   2   3
TORSDOF 4
ENDMDL
MODEL      182
REMARK 921   NORMALIZED FREE ENERGY PREDICTED BY IDOCK:   -2.51 KCAL/MOL
REMARK 922        TOTAL FREE ENERGY PREDICTED BY IDOCK:   -3.52 KCAL/MOL
REMARK 923 INTER-LIGAND FREE ENERGY PREDICTED BY IDOCK:   -3.24 KCAL/MOL
REMARK 924 INTRA-LIGAND FREE ENERGY PREDICTED BY IDOCK:   -0.28 KCAL/MOL
REMARK 927      BINDING AFFINITY PREDICTED BY RF-SCORE:    0.00 PKD
ROOT
HETATM    1  C   UNL     1      -8.395   7.448  66.122  1.00  0.00    -0.139 C  
HETATM    2  C   UNL     1      -9.340   8.640  66.158  1.00  0.00    -0.291 C  
ENDROOT
BRANCH   2   3
HETATM    3  C   UNL     1     -10.621   8.279  66.898  1.00  0.00    -0.232 C  
BRANCH   3   4
HETATM    4  O   UNL     1     -10.439   8.291  68.320  1.00  0.00    -0.205 OA 
BRANCH   4   5
HETATM    5  C   UNL     1     -10.719   7.130  68.965  1.00  0.00    -0.184 C  
HETATM    6  O   UNL     1     -11.217   6.132  68.472  1.00  0.00    -0.341 OA 
BRANCH   5   7
HETATM    7  C   UNL     1     -10.252   7.205  70.378  1.00  0.00    -0.203 A  
HETATM    8  C   UNL     1     -10.071   6.052  71.158  1.00  0.00    -0.241 A  
HETATM    9  C   UNL     1      -9.733   6.160  72.510  1.00  0.00    -0.166 A  
HETATM   10  C   UNL     1      -9.572   7.421  73.076  1.00  0.00    -0.194 A  
HETATM   11  O   UNL     1      -9.267   7.571  74.396  1.00  0.00    -0.422 OA 
HETATM   12  C   UNL     1      -9.730   8.573  72.312  1.00  0.00    -0.380 A  
HETATM   13  C   UNL     1     -10.080   8.467  70.963  1.00  0.00    -0.242 A  
HETATM   14  H   UNL     1      -9.158   8.432  74.783  1.00  0.00     0.000 HD 
ENDBRANCH   5   7
ENDBRANCH   4   5
ENDBRANCH   3   4
ENDBRANCH   2   3
TORSDOF 4
ENDMDL
MODEL      183
REMARK 921   NORMALIZED FREE ENERGY PREDICTED BY IDOCK:   -2.50 KCAL/MOL
REMARK 922        TOTAL FREE ENERGY PREDICTED BY IDOCK:   -3.51 KCAL/MOL
REMARK 923 INTER-LIGAND FREE ENERGY PREDICTED BY IDOCK:   -3.26 KCAL/MOL
REMARK 924 INTRA-LIGAND FREE ENERGY PREDICTED BY IDOCK:   -0.25 KCAL/MOL
REMARK 927      BINDING AFFINITY PREDICTED BY RF-SCORE:    0.00 PKD
ROOT
HETATM    1  C   UNL     1      -7.837  17.282  66.810  1.00  0.00    -0.278 C  
HETATM    2  C   UNL     1      -7.702  16.958  68.291  1.00  0.00    -0.205 C  
ENDROOT
BRANCH   2   3
HETATM    3  C   UNL     1      -8.956  16.257  68.798  1.00  0.00    -0.243 C  
BRANCH   3   4
HETATM    4  O   UNL     1      -8.970  14.867  68.446  1.00  0.00    -0.170 OA 
BRANCH   4   5
HETATM    5  C   UNL     1     -10.196  14.301  68.312  1.00  0.00    -0.244 C  
HETATM    6  O   UNL     1     -11.261  14.797  68.639  1.00  0.00    -0.249 OA 
BRANCH   5   7
HETATM    7  C   UNL     1     -10.079  12.988  67.616  1.00  0.00    -0.217 A  
HETATM    8  C   UNL     1      -8.905  12.610  66.945  1.00  0.00    -0.201 A  
HETATM    9  C   UNL     1      -8.862  11.419  66.215  1.00  0.00    -0.196 A  
HETATM   10  C   UNL     1      -9.991  10.607  66.164  1.00  0.00    -0.228 A  
HETATM   11  O   UNL     1      -9.999   9.450  65.443  1.00  0.00    -0.435 OA 
HETATM   12  C   UNL     1     -11.155  10.958  66.839  1.00  0.00    -0.236 A  
HETATM   13  C   UNL     1     -11.204  12.155  67.559  1.00  0.00    -0.357 A  
HETATM   14  H   UNL     1     -10.770   8.895  65.407  1.00  0.00     0.000 HD 
ENDBRANCH   5   7
ENDBRANCH   4   5
ENDBRANCH   3   4
ENDBRANCH   2   3
TORSDOF 4
ENDMDL
MODEL      184
REMARK 921   NORMALIZED FREE ENERGY PREDICTED BY IDOCK:   -2.49 KCAL/MOL
REMARK 922        TOTAL FREE ENERGY PREDICTED BY IDOCK:   -3.50 KCAL/MOL
REMARK 923 INTER-LIGAND FREE ENERGY PREDICTED BY IDOCK:   -3.06 KCAL/MOL
REMARK 924 INTRA-LIGAND FREE ENERGY PREDICTED BY IDOCK:   -0.45 KCAL/MOL
REMARK 927      BINDING AFFINITY PREDICTED BY RF-SCORE:    0.00 PKD
ROOT
HETATM    1  C   UNL     1     -11.832  10.782  70.660  1.00  0.00    -0.460 C  
HETATM    2  C   UNL     1     -12.304   9.405  71.105  1.00  0.00    -0.386 C  
ENDROOT
BRANCH   2   3
HETATM    3  C   UNL     1     -11.235   8.724  71.949  1.00  0.00    -0.368 C  
BRANCH   3   4
HETATM    4  O   UNL     1     -10.486   7.765  71.191  1.00  0.00    -0.208 OA 
BRANCH   4   5
HETATM    5  C   UNL     1      -9.316   8.206  70.664  1.00  0.00    -0.154 C  
HETATM    6  O   UNL     1      -8.383   8.691  71.281  1.00  0.00    -0.139 OA 
BRANCH   5   7
HETATM    7  C   UNL     1      -9.283   7.938  69.198  1.00  0.00    -0.144 A  
HETATM    8  C   UNL     1      -8.765   6.742  68.677  1.00  0.00    -0.125 A  
HETATM    9  C   UNL     1      -8.652   6.564  67.295  1.00  0.00    -0.111 A  
HETATM   10  C   UNL     1      -9.063   7.581  66.439  1.00  0.00    -0.173 A  
HETATM   11  O   UNL     1      -8.947   7.459  65.086  1.00  0.00    -0.366 OA 
HETATM   12  C   UNL     1      -9.595   8.766  66.940  1.00  0.00    -0.249 A  
HETATM   13  C   UNL     1      -9.698   8.950  68.322  1.00  0.00    -0.174 A  
HETATM   14  H   UNL     1      -9.227   8.154  64.502  1.00  0.00     0.000 HD 
ENDBRANCH   5   7
ENDBRANCH   4   5
ENDBRANCH   3   4
ENDBRANCH   2   3
TORSDOF 4
ENDMDL
MODEL      185
REMARK 921   NORMALIZED FREE ENERGY PREDICTED BY IDOCK:   -2.48 KCAL/MOL
REMARK 922        TOTAL FREE ENERGY PREDICTED BY IDOCK:   -3.48 KCAL/MOL
REMARK 923 INTER-LIGAND FREE ENERGY PREDICTED BY IDOCK:   -3.28 KCAL/MOL
REMARK 924 INTRA-LIGAND FREE ENERGY PREDICTED BY IDOCK:   -0.21 KCAL/MOL
REMARK 927      BINDING AFFINITY PREDICTED BY RF-SCORE:    0.00 PKD
ROOT
HETATM    1  C   UNL     1      -7.051   4.897  64.996  1.00  0.00    -0.062 C  
HETATM    2  C   UNL     1      -8.448   5.324  65.422  1.00  0.00    -0.145 C  
ENDROOT
BRANCH   2   3
HETATM    3  C   UNL     1      -8.440   5.803  66.868  1.00  0.00    -0.108 C  
BRANCH   3   4
HETATM    4  O   UNL     1      -9.453   5.158  67.651  1.00  0.00    -0.118 OA 
BRANCH   4   5
HETATM    5  C   UNL     1     -10.526   5.921  67.979  1.00  0.00    -0.234 C  
HETATM    6  O   UNL     1     -11.288   6.468  67.200  1.00  0.00    -0.333 OA 
BRANCH   5   7
HETATM    7  C   UNL     1     -10.707   5.939  69.458  1.00  0.00    -0.414 A  
HETATM    8  C   UNL     1      -9.794   5.315  70.322  1.00  0.00    -0.284 A  
HETATM    9  C   UNL     1     -10.045   5.259  71.695  1.00  0.00    -0.259 A  
HETATM   10  C   UNL     1     -11.207   5.834  72.202  1.00  0.00    -0.269 A  
HETATM   11  O   UNL     1     -11.504   5.780  73.531  1.00  0.00    -0.424 OA 
HETATM   12  C   UNL     1     -12.114   6.472  71.361  1.00  0.00    -0.344 A  
HETATM   13  C   UNL     1     -11.870   6.518  69.985  1.00  0.00    -0.284 A  
HETATM   14  H   UNL     1     -12.297   6.172  73.877  1.00  0.00     0.000 HD 
ENDBRANCH   5   7
ENDBRANCH   4   5
ENDBRANCH   3   4
ENDBRANCH   2   3
TORSDOF 4
ENDMDL
MODEL      186
REMARK 921   NORMALIZED FREE ENERGY PREDICTED BY IDOCK:   -2.46 KCAL/MOL
REMARK 922        TOTAL FREE ENERGY PREDICTED BY IDOCK:   -3.47 KCAL/MOL
REMARK 923 INTER-LIGAND FREE ENERGY PREDICTED BY IDOCK:   -3.33 KCAL/MOL
REMARK 924 INTRA-LIGAND FREE ENERGY PREDICTED BY IDOCK:   -0.14 KCAL/MOL
REMARK 927      BINDING AFFINITY PREDICTED BY RF-SCORE:    0.00 PKD
ROOT
HETATM    1  C   UNL     1     -13.244  10.796  71.878  1.00  0.00    -0.524 C  
HETATM    2  C   UNL     1     -12.110  10.928  70.872  1.00  0.00    -0.455 C  
ENDROOT
BRANCH   2   3
HETATM    3  C   UNL     1     -11.247   9.673  70.875  1.00  0.00    -0.352 C  
BRANCH   3   4
HETATM    4  O   UNL     1     -11.832   8.624  71.659  1.00  0.00    -0.285 OA 
BRANCH   4   5
HETATM    5  C   UNL     1     -11.190   7.429  71.626  1.00  0.00    -0.247 C  
HETATM    6  O   UNL     1     -11.639   6.380  71.195  1.00  0.00    -0.314 OA 
BRANCH   5   7
HETATM    7  C   UNL     1      -9.794   7.585  72.123  1.00  0.00    -0.209 A  
HETATM    8  C   UNL     1      -8.688   7.482  71.265  1.00  0.00    -0.127 A  
HETATM    9  C   UNL     1      -7.389   7.528  71.778  1.00  0.00    -0.071 A  
HETATM   10  C   UNL     1      -7.200   7.684  73.148  1.00  0.00    -0.085 A  
HETATM   11  O   UNL     1      -5.951   7.709  73.693  1.00  0.00    -0.058 OA 
HETATM   12  C   UNL     1      -8.286   7.806  74.010  1.00  0.00    -0.268 A  
HETATM   13  C   UNL     1      -9.586   7.747  73.500  1.00  0.00    -0.332 A  
HETATM   14  H   UNL     1      -5.822   7.815  74.628  1.00  0.00     0.000 HD 
ENDBRANCH   5   7
ENDBRANCH   4   5
ENDBRANCH   3   4
ENDBRANCH   2   3
TORSDOF 4
ENDMDL
MODEL      187
REMARK 921   NORMALIZED FREE ENERGY PREDICTED BY IDOCK:   -2.45 KCAL/MOL
REMARK 922        TOTAL FREE ENERGY PREDICTED BY IDOCK:   -3.45 KCAL/MOL
REMARK 923 INTER-LIGAND FREE ENERGY PREDICTED BY IDOCK:   -3.13 KCAL/MOL
REMARK 924 INTRA-LIGAND FREE ENERGY PREDICTED BY IDOCK:   -0.32 KCAL/MOL
REMARK 927      BINDING AFFINITY PREDICTED BY RF-SCORE:    0.00 PKD
ROOT
HETATM    1  C   UNL     1      -6.968  10.775  68.395  1.00  0.00    -0.070 C  
HETATM    2  C   UNL     1      -6.930  11.192  66.931  1.00  0.00    -0.131 C  
ENDROOT
BRANCH   2   3
HETATM    3  C   UNL     1      -8.343  11.359  66.390  1.00  0.00    -0.140 C  
BRANCH   3   4
HETATM    4  O   UNL     1      -9.303  11.530  67.442  1.00  0.00    -0.164 OA 
BRANCH   4   5
HETATM    5  C   UNL     1     -10.506  12.036  67.073  1.00  0.00    -0.221 C  
HETATM    6  O   UNL     1     -11.504  11.393  66.792  1.00  0.00    -0.427 OA 
BRANCH   5   7
HETATM    7  C   UNL     1     -10.476  13.524  67.134  1.00  0.00    -0.256 A  
HETATM    8  C   UNL     1     -10.341  14.210  68.351  1.00  0.00    -0.249 A  
HETATM    9  C   UNL     1     -10.421  15.605  68.387  1.00  0.00    -0.242 A  
HETATM   10  C   UNL     1     -10.628  16.310  67.205  1.00  0.00    -0.298 A  
HETATM   11  O   UNL     1     -10.738  17.669  67.199  1.00  0.00    -0.306 OA 
HETATM   12  C   UNL     1     -10.745  15.645  65.988  1.00  0.00    -0.322 A  
HETATM   13  C   UNL     1     -10.678  14.249  65.952  1.00  0.00    -0.304 A  
HETATM   14  H   UNL     1     -10.880  18.149  66.392  1.00  0.00     0.000 HD 
ENDBRANCH   5   7
ENDBRANCH   4   5
ENDBRANCH   3   4
ENDBRANCH   2   3
TORSDOF 4
ENDMDL
MODEL      188
REMARK 921   NORMALIZED FREE ENERGY PREDICTED BY IDOCK:   -2.44 KCAL/MOL
REMARK 922        TOTAL FREE ENERGY PREDICTED BY IDOCK:   -3.44 KCAL/MOL
REMARK 923 INTER-LIGAND FREE ENERGY PREDICTED BY IDOCK:   -3.25 KCAL/MOL
REMARK 924 INTRA-LIGAND FREE ENERGY PREDICTED BY IDOCK:   -0.19 KCAL/MOL
REMARK 927      BINDING AFFINITY PREDICTED BY RF-SCORE:    0.00 PKD
ROOT
HETATM    1  C   UNL     1     -11.593   7.365  71.707  1.00  0.00    -0.305 C  
HETATM    2  C   UNL     1     -11.024   7.774  70.356  1.00  0.00    -0.255 C  
ENDROOT
BRANCH   2   3
HETATM    3  C   UNL     1      -9.979   8.868  70.529  1.00  0.00    -0.201 C  
BRANCH   3   4
HETATM    4  O   UNL     1     -10.566  10.176  70.519  1.00  0.00    -0.290 OA 
BRANCH   4   5
HETATM    5  C   UNL     1     -11.313  10.483  69.429  1.00  0.00    -0.269 C  
HETATM    6  O   UNL     1     -12.509  10.720  69.417  1.00  0.00    -0.333 OA 
BRANCH   5   7
HETATM    7  C   UNL     1     -10.443  10.578  68.223  1.00  0.00    -0.211 A  
HETATM    8  C   UNL     1     -10.754   9.900  67.033  1.00  0.00    -0.237 A  
HETATM    9  C   UNL     1      -9.865   9.925  65.955  1.00  0.00    -0.342 A  
HETATM   10  C   UNL     1      -8.672  10.632  66.067  1.00  0.00    -0.177 A  
HETATM   11  O   UNL     1      -7.767  10.661  65.048  1.00  0.00    -0.311 OA 
HETATM   12  C   UNL     1      -8.359  11.324  67.233  1.00  0.00    -0.145 A  
HETATM   13  C   UNL     1      -9.240  11.290  68.317  1.00  0.00    -0.176 A  
HETATM   14  H   UNL     1      -6.952  11.143  65.125  1.00  0.00     0.000 HD 
ENDBRANCH   5   7
ENDBRANCH   4   5
ENDBRANCH   3   4
ENDBRANCH   2   3
TORSDOF 4
ENDMDL
MODEL      189
REMARK 921   NORMALIZED FREE ENERGY PREDICTED BY IDOCK:   -2.44 KCAL/MOL
REMARK 922        TOTAL FREE ENERGY PREDICTED BY IDOCK:   -3.43 KCAL/MOL
REMARK 923 INTER-LIGAND FREE ENERGY PREDICTED BY IDOCK:   -3.56 KCAL/MOL
REMARK 924 INTRA-LIGAND FREE ENERGY PREDICTED BY IDOCK:    0.13 KCAL/MOL
REMARK 927      BINDING AFFINITY PREDICTED BY RF-SCORE:    0.00 PKD
ROOT
HETATM    1  C   UNL     1     -14.411   8.744  72.181  1.00  0.00    -0.481 C  
HETATM    2  C   UNL     1     -14.343   7.397  71.478  1.00  0.00    -0.594 C  
ENDROOT
BRANCH   2   3
HETATM    3  C   UNL     1     -12.903   6.903  71.413  1.00  0.00    -0.311 C  
BRANCH   3   4
HETATM    4  O   UNL     1     -12.033   7.683  72.243  1.00  0.00    -0.304 OA 
BRANCH   4   5
HETATM    5  C   UNL     1     -10.736   7.747  71.850  1.00  0.00    -0.225 C  
HETATM    6  O   UNL     1      -9.990   8.704  71.974  1.00  0.00    -0.283 OA 
BRANCH   5   7
HETATM    7  C   UNL     1     -10.302   6.431  71.302  1.00  0.00    -0.244 A  
HETATM    8  C   UNL     1     -10.171   5.298  72.120  1.00  0.00    -0.252 A  
HETATM    9  C   UNL     1      -9.662   4.106  71.597  1.00  0.00    -0.246 A  
HETATM   10  C   UNL     1      -9.292   4.049  70.257  1.00  0.00    -0.163 A  
HETATM   11  O   UNL     1      -8.768   2.913  69.714  1.00  0.00    -0.061 OA 
HETATM   12  C   UNL     1      -9.433   5.158  69.429  1.00  0.00    -0.198 A  
HETATM   13  C   UNL     1      -9.930   6.355  69.953  1.00  0.00    -0.198 A  
HETATM   14  H   UNL     1      -8.515   2.874  68.799  1.00  0.00     0.000 HD 
ENDBRANCH   5   7
ENDBRANCH   4   5
ENDBRANCH   3   4
ENDBRANCH   2   3
TORSDOF 4
ENDMDL
MODEL      190
REMARK 921   NORMALIZED FREE ENERGY PREDICTED BY IDOCK:   -2.44 KCAL/MOL
REMARK 922        TOTAL FREE ENERGY PREDICTED BY IDOCK:   -3.43 KCAL/MOL
REMARK 923 INTER-LIGAND FREE ENERGY PREDICTED BY IDOCK:   -3.15 KCAL/MOL
REMARK 924 INTRA-LIGAND FREE ENERGY PREDICTED BY IDOCK:   -0.28 KCAL/MOL
REMARK 927      BINDING AFFINITY PREDICTED BY RF-SCORE:    0.00 PKD
ROOT
HETATM    1  C   UNL     1     -13.655   8.523  71.832  1.00  0.00    -0.427 C  
HETATM    2  C   UNL     1     -13.540   7.099  71.308  1.00  0.00    -0.301 C  
ENDROOT
BRANCH   2   3
HETATM    3  C   UNL     1     -12.266   6.444  71.824  1.00  0.00    -0.256 C  
BRANCH   3   4
HETATM    4  O   UNL     1     -11.098   6.955  71.167  1.00  0.00    -0.244 OA 
BRANCH   4   5
HETATM    5  C   UNL     1     -10.360   7.847  71.875  1.00  0.00    -0.215 C  
HETATM    6  O   UNL     1     -10.268   7.906  73.089  1.00  0.00    -0.312 OA 
BRANCH   5   7
HETATM    7  C   UNL     1      -9.587   8.721  70.948  1.00  0.00    -0.275 A  
HETATM    8  C   UNL     1      -8.215   8.959  71.129  1.00  0.00    -0.218 A  
HETATM    9  C   UNL     1      -7.541   9.864  70.305  1.00  0.00    -0.172 A  
HETATM   10  C   UNL     1      -8.240  10.525  69.299  1.00  0.00    -0.145 A  
HETATM   11  O   UNL     1      -7.627  11.435  68.490  1.00  0.00    -0.113 OA 
HETATM   12  C   UNL     1      -9.595  10.286  69.095  1.00  0.00    -0.229 A  
HETATM   13  C   UNL     1     -10.274   9.390  69.926  1.00  0.00    -0.247 A  
HETATM   14  H   UNL     1      -8.104  11.886  67.803  1.00  0.00     0.000 HD 
ENDBRANCH   5   7
ENDBRANCH   4   5
ENDBRANCH   3   4
ENDBRANCH   2   3
TORSDOF 4
ENDMDL
MODEL      191
REMARK 921   NORMALIZED FREE ENERGY PREDICTED BY IDOCK:   -2.44 KCAL/MOL
REMARK 922        TOTAL FREE ENERGY PREDICTED BY IDOCK:   -3.43 KCAL/MOL
REMARK 923 INTER-LIGAND FREE ENERGY PREDICTED BY IDOCK:   -3.49 KCAL/MOL
REMARK 924 INTRA-LIGAND FREE ENERGY PREDICTED BY IDOCK:    0.06 KCAL/MOL
REMARK 927      BINDING AFFINITY PREDICTED BY RF-SCORE:    0.00 PKD
ROOT
HETATM    1  C   UNL     1     -11.666  15.446  68.612  1.00  0.00    -0.371 C  
HETATM    2  C   UNL     1     -11.934  13.954  68.477  1.00  0.00    -0.394 C  
ENDROOT
BRANCH   2   3
HETATM    3  C   UNL     1     -10.928  13.317  67.529  1.00  0.00    -0.263 C  
BRANCH   3   4
HETATM    4  O   UNL     1     -11.453  12.136  66.906  1.00  0.00    -0.324 OA 
BRANCH   4   5
HETATM    5  C   UNL     1     -11.578  11.048  67.706  1.00  0.00    -0.194 C  
HETATM    6  O   UNL     1     -12.401  10.894  68.592  1.00  0.00    -0.501 OA 
BRANCH   5   7
HETATM    7  C   UNL     1     -10.603   9.998  67.297  1.00  0.00    -0.319 A  
HETATM    8  C   UNL     1      -9.598  10.251  66.350  1.00  0.00    -0.233 A  
HETATM    9  C   UNL     1      -8.766   9.219  65.911  1.00  0.00    -0.179 A  
HETATM   10  C   UNL     1      -8.936   7.937  66.424  1.00  0.00    -0.166 A  
HETATM   11  O   UNL     1      -8.163   6.896  66.003  1.00  0.00    -0.112 OA 
HETATM   12  C   UNL     1      -9.916   7.673  67.376  1.00  0.00    -0.252 A  
HETATM   13  C   UNL     1     -10.758   8.702  67.808  1.00  0.00    -0.178 A  
HETATM   14  H   UNL     1      -8.280   6.020  66.354  1.00  0.00     0.000 HD 
ENDBRANCH   5   7
ENDBRANCH   4   5
ENDBRANCH   3   4
ENDBRANCH   2   3
TORSDOF 4
ENDMDL
MODEL      192
REMARK 921   NORMALIZED FREE ENERGY PREDICTED BY IDOCK:   -2.43 KCAL/MOL
REMARK 922        TOTAL FREE ENERGY PREDICTED BY IDOCK:   -3.43 KCAL/MOL
REMARK 923 INTER-LIGAND FREE ENERGY PREDICTED BY IDOCK:   -3.20 KCAL/MOL
REMARK 924 INTRA-LIGAND FREE ENERGY PREDICTED BY IDOCK:   -0.22 KCAL/MOL
REMARK 927      BINDING AFFINITY PREDICTED BY RF-SCORE:    0.00 PKD
ROOT
HETATM    1  C   UNL     1     -12.642  13.233  70.721  1.00  0.00    -0.357 C  
HETATM    2  C   UNL     1     -11.583  12.396  70.019  1.00  0.00    -0.216 C  
ENDROOT
BRANCH   2   3
HETATM    3  C   UNL     1     -12.210  11.149  69.410  1.00  0.00    -0.259 C  
BRANCH   3   4
HETATM    4  O   UNL     1     -12.186  11.183  67.977  1.00  0.00    -0.584 OA 
BRANCH   4   5
HETATM    5  C   UNL     1     -10.963  11.321  67.406  1.00  0.00    -0.282 C  
HETATM    6  O   UNL     1     -10.508  12.338  66.910  1.00  0.00    -0.215 OA 
BRANCH   5   7
HETATM    7  C   UNL     1     -10.191  10.054  67.539  1.00  0.00    -0.260 A  
HETATM    8  C   UNL     1     -10.654   8.846  66.993  1.00  0.00    -0.279 A  
HETATM    9  C   UNL     1      -9.960   7.655  67.223  1.00  0.00    -0.273 A  
HETATM   10  C   UNL     1      -8.802   7.676  67.994  1.00  0.00    -0.127 A  
HETATM   11  O   UNL     1      -8.109   6.534  68.264  1.00  0.00    -0.109 OA 
HETATM   12  C   UNL     1      -8.320   8.868  68.526  1.00  0.00    -0.125 A  
HETATM   13  C   UNL     1      -9.019  10.058  68.307  1.00  0.00    -0.119 A  
HETATM   14  H   UNL     1      -7.318   6.548  68.790  1.00  0.00     0.000 HD 
ENDBRANCH   5   7
ENDBRANCH   4   5
ENDBRANCH   3   4
ENDBRANCH   2   3
TORSDOF 4
ENDMDL
MODEL      193
REMARK 921   NORMALIZED FREE ENERGY PREDICTED BY IDOCK:   -2.43 KCAL/MOL
REMARK 922        TOTAL FREE ENERGY PREDICTED BY IDOCK:   -3.42 KCAL/MOL
REMARK 923 INTER-LIGAND FREE ENERGY PREDICTED BY IDOCK:   -3.20 KCAL/MOL
REMARK 924 INTRA-LIGAND FREE ENERGY PREDICTED BY IDOCK:   -0.22 KCAL/MOL
REMARK 927      BINDING AFFINITY PREDICTED BY RF-SCORE:    0.00 PKD
ROOT
HETATM    1  C   UNL     1      -8.888   4.453  64.070  1.00  0.00    -0.142 C  
HETATM    2  C   UNL     1      -8.221   5.730  64.561  1.00  0.00    -0.122 C  
ENDROOT
BRANCH   2   3
HETATM    3  C   UNL     1      -8.459   5.913  66.054  1.00  0.00    -0.137 C  
BRANCH   3   4
HETATM    4  O   UNL     1      -9.800   6.339  66.333  1.00  0.00    -0.151 OA 
BRANCH   4   5
HETATM    5  C   UNL     1      -9.939   7.612  66.781  1.00  0.00    -0.247 C  
HETATM    6  O   UNL     1      -9.741   8.629  66.137  1.00  0.00    -0.253 OA 
BRANCH   5   7
HETATM    7  C   UNL     1     -10.457   7.609  68.178  1.00  0.00    -0.233 A  
HETATM    8  C   UNL     1     -10.386   8.749  68.994  1.00  0.00    -0.227 A  
HETATM    9  C   UNL     1     -10.785   8.685  70.332  1.00  0.00    -0.248 A  
HETATM   10  C   UNL     1     -11.259   7.482  70.848  1.00  0.00    -0.269 A  
HETATM   11  O   UNL     1     -11.635   7.370  72.153  1.00  0.00    -0.275 OA 
HETATM   12  C   UNL     1     -11.353   6.349  70.046  1.00  0.00    -0.496 A  
HETATM   13  C   UNL     1     -10.942   6.408  68.711  1.00  0.00    -0.404 A  
HETATM   14  H   UNL     1     -11.958   6.549  72.505  1.00  0.00     0.000 HD 
ENDBRANCH   5   7
ENDBRANCH   4   5
ENDBRANCH   3   4
ENDBRANCH   2   3
TORSDOF 4
ENDMDL
MODEL      194
REMARK 921   NORMALIZED FREE ENERGY PREDICTED BY IDOCK:   -2.34 KCAL/MOL
REMARK 922        TOTAL FREE ENERGY PREDICTED BY IDOCK:   -3.32 KCAL/MOL
REMARK 923 INTER-LIGAND FREE ENERGY PREDICTED BY IDOCK:   -2.94 KCAL/MOL
REMARK 924 INTRA-LIGAND FREE ENERGY PREDICTED BY IDOCK:   -0.37 KCAL/MOL
REMARK 927      BINDING AFFINITY PREDICTED BY RF-SCORE:    0.00 PKD
ROOT
HETATM    1  C   UNL     1      -6.539   5.430  66.766  1.00  0.00    -0.056 C  
HETATM    2  C   UNL     1      -7.422   5.514  68.003  1.00  0.00    -0.074 C  
ENDROOT
BRANCH   2   3
HETATM    3  C   UNL     1      -8.424   4.368  68.019  1.00  0.00    -0.094 C  
BRANCH   3   4
HETATM    4  O   UNL     1      -9.742   4.814  68.365  1.00  0.00    -0.147 OA 
BRANCH   4   5
HETATM    5  C   UNL     1     -10.354   5.618  67.460  1.00  0.00    -0.222 C  
HETATM    6  O   UNL     1     -10.783   5.281  66.369  1.00  0.00    -0.307 OA 
BRANCH   5   7
HETATM    7  C   UNL     1     -10.515   6.989  68.019  1.00  0.00    -0.255 A  
HETATM    8  C   UNL     1     -10.515   8.127  67.197  1.00  0.00    -0.396 A  
HETATM    9  C   UNL     1     -10.563   9.405  67.761  1.00  0.00    -0.317 A  
HETATM   10  C   UNL     1     -10.616   9.541  69.144  1.00  0.00    -0.222 A  
HETATM   11  O   UNL     1     -10.638  10.770  69.736  1.00  0.00    -0.375 OA 
HETATM   12  C   UNL     1     -10.634   8.423  69.972  1.00  0.00    -0.235 A  
HETATM   13  C   UNL     1     -10.575   7.144  69.411  1.00  0.00    -0.246 A  
HETATM   14  H   UNL     1     -10.673  10.862  70.681  1.00  0.00     0.000 HD 
ENDBRANCH   5   7
ENDBRANCH   4   5
ENDBRANCH   3   4
ENDBRANCH   2   3
TORSDOF 4
ENDMDL
MODEL      195
REMARK 921   NORMALIZED FREE ENERGY PREDICTED BY IDOCK:   -2.32 KCAL/MOL
REMARK 922        TOTAL FREE ENERGY PREDICTED BY IDOCK:   -3.29 KCAL/MOL
REMARK 923 INTER-LIGAND FREE ENERGY PREDICTED BY IDOCK:   -3.23 KCAL/MOL
REMARK 924 INTRA-LIGAND FREE ENERGY PREDICTED BY IDOCK:   -0.06 KCAL/MOL
REMARK 927      BINDING AFFINITY PREDICTED BY RF-SCORE:    0.00 PKD
ROOT
HETATM    1  C   UNL     1     -12.132  13.127  64.650  1.00  0.00    -0.462 C  
HETATM    2  C   UNL     1     -11.672  13.699  65.983  1.00  0.00    -0.383 C  
ENDROOT
BRANCH   2   3
HETATM    3  C   UNL     1     -10.543  12.856  66.562  1.00  0.00    -0.259 C  
BRANCH   3   4
HETATM    4  O   UNL     1     -10.187  13.275  67.886  1.00  0.00    -0.222 OA 
BRANCH   4   5
HETATM    5  C   UNL     1      -8.861  13.265  68.176  1.00  0.00    -0.187 C  
HETATM    6  O   UNL     1      -8.180  12.280  68.404  1.00  0.00    -0.161 OA 
BRANCH   5   7
HETATM    7  C   UNL     1      -8.311  14.647  68.099  1.00  0.00    -0.144 A  
HETATM    8  C   UNL     1      -7.747  15.281  69.218  1.00  0.00    -0.214 A  
HETATM    9  C   UNL     1      -7.334  16.614  69.141  1.00  0.00    -0.217 A  
HETATM   10  C   UNL     1      -7.481  17.307  67.943  1.00  0.00    -0.182 A  
HETATM   11  O   UNL     1      -7.115  18.616  67.832  1.00  0.00    -0.227 OA 
HETATM   12  C   UNL     1      -8.021  16.688  66.820  1.00  0.00    -0.284 A  
HETATM   13  C   UNL     1      -8.446  15.358  66.899  1.00  0.00    -0.287 A  
HETATM   14  H   UNL     1      -7.215  19.089  67.015  1.00  0.00     0.000 HD 
ENDBRANCH   5   7
ENDBRANCH   4   5
ENDBRANCH   3   4
ENDBRANCH   2   3
TORSDOF 4
ENDMDL
MODEL      196
REMARK 921   NORMALIZED FREE ENERGY PREDICTED BY IDOCK:   -2.31 KCAL/MOL
REMARK 922        TOTAL FREE ENERGY PREDICTED BY IDOCK:   -3.28 KCAL/MOL
REMARK 923 INTER-LIGAND FREE ENERGY PREDICTED BY IDOCK:   -2.91 KCAL/MOL
REMARK 924 INTRA-LIGAND FREE ENERGY PREDICTED BY IDOCK:   -0.37 KCAL/MOL
REMARK 927      BINDING AFFINITY PREDICTED BY RF-SCORE:    0.00 PKD
ROOT
HETATM    1  C   UNL     1      -9.692   9.372  65.932  1.00  0.00    -0.355 C  
HETATM    2  C   UNL     1      -8.178   9.455  66.057  1.00  0.00    -0.111 C  
ENDROOT
BRANCH   2   3
HETATM    3  C   UNL     1      -7.609   8.118  66.512  1.00  0.00    -0.092 C  
BRANCH   3   4
HETATM    4  O   UNL     1      -8.288   7.614  67.670  1.00  0.00    -0.116 OA 
BRANCH   4   5
HETATM    5  C   UNL     1      -7.863   8.095  68.865  1.00  0.00    -0.112 C  
HETATM    6  O   UNL     1      -6.786   8.621  69.091  1.00  0.00    -0.053 OA 
BRANCH   5   7
HETATM    7  C   UNL     1      -8.946   7.969  69.881  1.00  0.00    -0.145 A  
HETATM    8  C   UNL     1     -10.184   7.384  69.572  1.00  0.00    -0.204 A  
HETATM    9  C   UNL     1     -11.216   7.374  70.515  1.00  0.00    -0.296 A  
HETATM   10  C   UNL     1     -11.003   7.944  71.767  1.00  0.00    -0.243 A  
HETATM   11  O   UNL     1     -11.990   7.978  72.707  1.00  0.00    -0.576 OA 
HETATM   12  C   UNL     1      -9.776   8.511  72.095  1.00  0.00    -0.387 A  
HETATM   13  C   UNL     1      -8.747   8.533  71.149  1.00  0.00    -0.215 A  
HETATM   14  H   UNL     1     -11.845   8.367  73.561  1.00  0.00     0.000 HD 
ENDBRANCH   5   7
ENDBRANCH   4   5
ENDBRANCH   3   4
ENDBRANCH   2   3
TORSDOF 4
ENDMDL
MODEL      197
REMARK 921   NORMALIZED FREE ENERGY PREDICTED BY IDOCK:   -2.30 KCAL/MOL
REMARK 922        TOTAL FREE ENERGY PREDICTED BY IDOCK:   -3.26 KCAL/MOL
REMARK 923 INTER-LIGAND FREE ENERGY PREDICTED BY IDOCK:   -3.36 KCAL/MOL
REMARK 924 INTRA-LIGAND FREE ENERGY PREDICTED BY IDOCK:    0.10 KCAL/MOL
REMARK 927      BINDING AFFINITY PREDICTED BY RF-SCORE:    0.00 PKD
ROOT
HETATM    1  C   UNL     1     -10.214  15.027  67.757  1.00  0.00    -0.236 C  
HETATM    2  C   UNL     1      -9.727  13.603  67.536  1.00  0.00    -0.227 C  
ENDROOT
BRANCH   2   3
HETATM    3  C   UNL     1      -8.406  13.375  68.258  1.00  0.00    -0.160 C  
BRANCH   3   4
HETATM    4  O   UNL     1      -8.316  12.053  68.806  1.00  0.00    -0.079 OA 
BRANCH   4   5
HETATM    5  C   UNL     1      -9.147  11.127  68.263  1.00  0.00    -0.162 C  
HETATM    6  O   UNL     1      -9.104  10.699  67.122  1.00  0.00    -0.143 OA 
BRANCH   5   7
HETATM    7  C   UNL     1     -10.097  10.626  69.295  1.00  0.00    -0.227 A  
HETATM    8  C   UNL     1     -11.270  11.324  69.621  1.00  0.00    -0.321 A  
HETATM    9  C   UNL     1     -12.088  10.883  70.665  1.00  0.00    -0.468 A  
HETATM   10  C   UNL     1     -11.732   9.742  71.377  1.00  0.00    -0.398 A  
HETATM   11  O   UNL     1     -12.488   9.292  72.419  1.00  0.00    -0.328 OA 
HETATM   12  C   UNL     1     -10.582   9.028  71.054  1.00  0.00    -0.341 A  
HETATM   13  C   UNL     1      -9.757   9.474  70.018  1.00  0.00    -0.271 A  
HETATM   14  H   UNL     1     -12.245   8.512  72.905  1.00  0.00     0.000 HD 
ENDBRANCH   5   7
ENDBRANCH   4   5
ENDBRANCH   3   4
ENDBRANCH   2   3
TORSDOF 4
ENDMDL
MODEL      198
REMARK 921   NORMALIZED FREE ENERGY PREDICTED BY IDOCK:   -2.29 KCAL/MOL
REMARK 922        TOTAL FREE ENERGY PREDICTED BY IDOCK:   -3.25 KCAL/MOL
REMARK 923 INTER-LIGAND FREE ENERGY PREDICTED BY IDOCK:   -3.03 KCAL/MOL
REMARK 924 INTRA-LIGAND FREE ENERGY PREDICTED BY IDOCK:   -0.22 KCAL/MOL
REMARK 927      BINDING AFFINITY PREDICTED BY RF-SCORE:    0.00 PKD
ROOT
HETATM    1  C   UNL     1      -6.186  11.771  70.038  1.00  0.00    -0.136 C  
HETATM    2  C   UNL     1      -6.509  13.219  69.697  1.00  0.00    -0.053 C  
ENDROOT
BRANCH   2   3
HETATM    3  C   UNL     1      -6.641  13.393  68.190  1.00  0.00    -0.118 C  
BRANCH   3   4
HETATM    4  O   UNL     1      -7.597  14.405  67.850  1.00  0.00    -0.120 OA 
BRANCH   4   5
HETATM    5  C   UNL     1      -7.087  15.565  67.363  1.00  0.00    -0.202 C  
HETATM    6  O   UNL     1      -5.960  15.732  66.929  1.00  0.00    -0.263 OA 
BRANCH   5   7
HETATM    7  C   UNL     1      -8.139  16.620  67.350  1.00  0.00    -0.187 A  
HETATM    8  C   UNL     1      -9.486  16.323  67.609  1.00  0.00    -0.221 A  
HETATM    9  C   UNL     1     -10.464  17.314  67.488  1.00  0.00    -0.356 A  
HETATM   10  C   UNL     1     -10.090  18.601  67.113  1.00  0.00    -0.359 A  
HETATM   11  O   UNL     1     -11.015  19.591  66.958  1.00  0.00    -0.477 OA 
HETATM   12  C   UNL     1      -8.757  18.916  66.870  1.00  0.00    -0.308 A  
HETATM   13  C   UNL     1      -7.779  17.923  66.979  1.00  0.00    -0.232 A  
HETATM   14  H   UNL     1     -10.760  20.470  66.701  1.00  0.00     0.000 HD 
ENDBRANCH   5   7
ENDBRANCH   4   5
ENDBRANCH   3   4
ENDBRANCH   2   3
TORSDOF 4
ENDMDL
MODEL      199
REMARK 921   NORMALIZED FREE ENERGY PREDICTED BY IDOCK:   -2.29 KCAL/MOL
REMARK 922        TOTAL FREE ENERGY PREDICTED BY IDOCK:   -3.25 KCAL/MOL
REMARK 923 INTER-LIGAND FREE ENERGY PREDICTED BY IDOCK:   -2.66 KCAL/MOL
REMARK 924 INTRA-LIGAND FREE ENERGY PREDICTED BY IDOCK:   -0.59 KCAL/MOL
REMARK 927      BINDING AFFINITY PREDICTED BY RF-SCORE:    0.00 PKD
ROOT
HETATM    1  C   UNL     1      -6.889  10.275  69.513  1.00  0.00    -0.084 C  
HETATM    2  C   UNL     1      -6.900  11.751  69.143  1.00  0.00    -0.106 C  
ENDROOT
BRANCH   2   3
HETATM    3  C   UNL     1      -7.844  11.999  67.974  1.00  0.00    -0.145 C  
BRANCH   3   4
HETATM    4  O   UNL     1      -9.169  12.324  68.416  1.00  0.00    -0.192 OA 
BRANCH   4   5
HETATM    5  C   UNL     1     -10.183  11.712  67.754  1.00  0.00    -0.186 C  
HETATM    6  O   UNL     1     -10.872  12.202  66.875  1.00  0.00    -0.232 OA 
BRANCH   5   7
HETATM    7  C   UNL     1     -10.300  10.294  68.196  1.00  0.00    -0.208 A  
HETATM    8  C   UNL     1     -10.193   9.227  67.289  1.00  0.00    -0.315 A  
HETATM    9  C   UNL     1     -10.410   7.914  67.716  1.00  0.00    -0.289 A  
HETATM   10  C   UNL     1     -10.727   7.671  69.049  1.00  0.00    -0.119 A  
HETATM   11  O   UNL     1     -10.972   6.408  69.501  1.00  0.00    -0.286 OA 
HETATM   12  C   UNL     1     -10.818   8.716  69.963  1.00  0.00    -0.226 A  
HETATM   13  C   UNL     1     -10.614  10.031  69.536  1.00  0.00    -0.267 A  
HETATM   14  H   UNL     1     -11.188   6.243  70.411  1.00  0.00     0.000 HD 
ENDBRANCH   5   7
ENDBRANCH   4   5
ENDBRANCH   3   4
ENDBRANCH   2   3
TORSDOF 4
ENDMDL
MODEL      200
REMARK 921   NORMALIZED FREE ENERGY PREDICTED BY IDOCK:   -2.24 KCAL/MOL
REMARK 922        TOTAL FREE ENERGY PREDICTED BY IDOCK:   -3.19 KCAL/MOL
REMARK 923 INTER-LIGAND FREE ENERGY PREDICTED BY IDOCK:   -3.22 KCAL/MOL
REMARK 924 INTRA-LIGAND FREE ENERGY PREDICTED BY IDOCK:    0.03 KCAL/MOL
REMARK 927      BINDING AFFINITY PREDICTED BY RF-SCORE:    0.00 PKD
ROOT
HETATM    1  C   UNL     1      -8.994  10.478  64.965  1.00  0.00    -0.223 C  
HETATM    2  C   UNL     1      -9.641   9.977  66.248  1.00  0.00    -0.256 C  
ENDROOT
BRANCH   2   3
HETATM    3  C   UNL     1     -10.957  10.701  66.499  1.00  0.00    -0.028 C  
BRANCH   3   4
HETATM    4  O   UNL     1     -11.499  10.394  67.790  1.00  0.00    -0.406 OA 
BRANCH   4   5
HETATM    5  C   UNL     1     -10.600  10.263  68.797  1.00  0.00    -0.209 C  
HETATM    6  O   UNL     1      -9.653  10.997  69.019  1.00  0.00    -0.190 OA 
BRANCH   5   7
HETATM    7  C   UNL     1     -10.977   9.118  69.673  1.00  0.00    -0.168 A  
HETATM    8  C   UNL     1     -11.326   9.302  71.020  1.00  0.00    -0.390 A  
HETATM    9  C   UNL     1     -11.573   8.199  71.843  1.00  0.00    -0.361 A  
HETATM   10  C   UNL     1     -11.476   6.916  71.314  1.00  0.00    -0.296 A  
HETATM   11  O   UNL     1     -11.684   5.813  72.087  1.00  0.00    -0.263 OA 
HETATM   12  C   UNL     1     -11.150   6.718  69.976  1.00  0.00    -0.366 A  
HETATM   13  C   UNL     1     -10.890   7.819  69.155  1.00  0.00    -0.066 A  
HETATM   14  H   UNL     1     -11.618   4.937  71.726  1.00  0.00     0.000 HD 
ENDBRANCH   5   7
ENDBRANCH   4   5
ENDBRANCH   3   4
ENDBRANCH   2   3
TORSDOF 4
ENDMDL
MODEL      201
REMARK 921   NORMALIZED FREE ENERGY PREDICTED BY IDOCK:   -2.24 KCAL/MOL
REMARK 922        TOTAL FREE ENERGY PREDICTED BY IDOCK:   -3.19 KCAL/MOL
REMARK 923 INTER-LIGAND FREE ENERGY PREDICTED BY IDOCK:   -2.99 KCAL/MOL
REMARK 924 INTRA-LIGAND FREE ENERGY PREDICTED BY IDOCK:   -0.20 KCAL/MOL
REMARK 927      BINDING AFFINITY PREDICTED BY RF-SCORE:    0.00 PKD
ROOT
HETATM    1  C   UNL     1     -11.987  14.096  67.883  1.00  0.00    -0.378 C  
HETATM    2  C   UNL     1     -11.943  13.043  68.980  1.00  0.00    -0.312 C  
ENDROOT
BRANCH   2   3
HETATM    3  C   UNL     1     -11.664  11.669  68.386  1.00  0.00    -0.307 C  
BRANCH   3   4
HETATM    4  O   UNL     1     -10.626  10.980  69.097  1.00  0.00    -0.211 OA 
BRANCH   4   5
HETATM    5  C   UNL     1      -9.471  10.777  68.413  1.00  0.00    -0.174 C  
HETATM    6  O   UNL     1      -8.477  11.481  68.450  1.00  0.00    -0.149 OA 
BRANCH   5   7
HETATM    7  C   UNL     1      -9.548   9.499  67.650  1.00  0.00    -0.163 A  
HETATM    8  C   UNL     1     -10.290   8.403  68.117  1.00  0.00    -0.255 A  
HETATM    9  C   UNL     1     -10.258   7.185  67.432  1.00  0.00    -0.291 A  
HETATM   10  C   UNL     1      -9.488   7.069  66.279  1.00  0.00    -0.072 A  
HETATM   11  O   UNL     1      -9.409   5.892  65.595  1.00  0.00    -0.344 OA 
HETATM   12  C   UNL     1      -8.761   8.151  65.793  1.00  0.00    -0.183 A  
HETATM   13  C   UNL     1      -8.782   9.367  66.484  1.00  0.00    -0.148 A  
HETATM   14  H   UNL     1      -8.883   5.813  64.808  1.00  0.00     0.000 HD 
ENDBRANCH   5   7
ENDBRANCH   4   5
ENDBRANCH   3   4
ENDBRANCH   2   3
TORSDOF 4
ENDMDL
MODEL      202
REMARK 921   NORMALIZED FREE ENERGY PREDICTED BY IDOCK:   -2.24 KCAL/MOL
REMARK 922        TOTAL FREE ENERGY PREDICTED BY IDOCK:   -3.19 KCAL/MOL
REMARK 923 INTER-LIGAND FREE ENERGY PREDICTED BY IDOCK:   -3.16 KCAL/MOL
REMARK 924 INTRA-LIGAND FREE ENERGY PREDICTED BY IDOCK:   -0.03 KCAL/MOL
REMARK 927      BINDING AFFINITY PREDICTED BY RF-SCORE:    0.00 PKD
ROOT
HETATM    1  C   UNL     1     -14.005  12.817  72.167  1.00  0.00    -0.186 C  
HETATM    2  C   UNL     1     -12.799  11.899  72.028  1.00  0.00    -0.248 C  
ENDROOT
BRANCH   2   3
HETATM    3  C   UNL     1     -13.248  10.460  71.815  1.00  0.00    -0.424 C  
BRANCH   3   4
HETATM    4  O   UNL     1     -12.136   9.560  71.725  1.00  0.00    -0.370 OA 
BRANCH   4   5
HETATM    5  C   UNL     1     -11.283   9.771  70.691  1.00  0.00    -0.334 C  
HETATM    6  O   UNL     1     -11.519  10.407  69.678  1.00  0.00    -0.246 OA 
BRANCH   5   7
HETATM    7  C   UNL     1      -9.952   9.175  70.998  1.00  0.00    -0.367 A  
HETATM    8  C   UNL     1      -8.916   9.155  70.050  1.00  0.00    -0.201 A  
HETATM    9  C   UNL     1      -7.715   8.498  70.331  1.00  0.00    -0.080 A  
HETATM   10  C   UNL     1      -7.551   7.867  71.561  1.00  0.00    -0.081 A  
HETATM   11  O   UNL     1      -6.406   7.193  71.865  1.00  0.00    -0.041 OA 
HETATM   12  C   UNL     1      -8.562   7.893  72.517  1.00  0.00    -0.205 A  
HETATM   13  C   UNL     1      -9.768   8.540  72.233  1.00  0.00    -0.380 A  
HETATM   14  H   UNL     1      -6.295   6.762  72.705  1.00  0.00     0.000 HD 
ENDBRANCH   5   7
ENDBRANCH   4   5
ENDBRANCH   3   4
ENDBRANCH   2   3
TORSDOF 4
ENDMDL
MODEL      203
REMARK 921   NORMALIZED FREE ENERGY PREDICTED BY IDOCK:   -2.19 KCAL/MOL
REMARK 922        TOTAL FREE ENERGY PREDICTED BY IDOCK:   -3.13 KCAL/MOL
REMARK 923 INTER-LIGAND FREE ENERGY PREDICTED BY IDOCK:   -2.92 KCAL/MOL
REMARK 924 INTRA-LIGAND FREE ENERGY PREDICTED BY IDOCK:   -0.21 KCAL/MOL
REMARK 927      BINDING AFFINITY PREDICTED BY RF-SCORE:    0.00 PKD
ROOT
HETATM    1  C   UNL     1      -7.685   6.794  70.917  1.00  0.00    -0.093 C  
HETATM    2  C   UNL     1      -7.983   8.150  70.293  1.00  0.00    -0.103 C  
ENDROOT
BRANCH   2   3
HETATM    3  C   UNL     1      -9.432   8.215  69.829  1.00  0.00    -0.159 C  
BRANCH   3   4
HETATM    4  O   UNL     1      -9.551   8.798  68.525  1.00  0.00    -0.147 OA 
BRANCH   4   5
HETATM    5  C   UNL     1      -9.851  10.121  68.491  1.00  0.00    -0.154 C  
HETATM    6  O   UNL     1     -10.012  10.850  69.455  1.00  0.00    -0.172 OA 
BRANCH   5   7
HETATM    7  C   UNL     1      -9.880  10.602  67.081  1.00  0.00    -0.208 A  
HETATM    8  C   UNL     1      -9.425   9.804  66.019  1.00  0.00    -0.269 A  
HETATM    9  C   UNL     1      -9.368  10.321  64.722  1.00  0.00    -0.313 A  
HETATM   10  C   UNL     1      -9.771  11.633  64.490  1.00  0.00    -0.178 A  
HETATM   11  O   UNL     1      -9.708  12.184  63.244  1.00  0.00    -0.588 OA 
HETATM   12  C   UNL     1     -10.242  12.430  65.528  1.00  0.00    -0.297 A  
HETATM   13  C   UNL     1     -10.288  11.919  66.828  1.00  0.00    -0.238 A  
HETATM   14  H   UNL     1      -9.983  13.080  63.086  1.00  0.00     0.000 HD 
ENDBRANCH   5   7
ENDBRANCH   4   5
ENDBRANCH   3   4
ENDBRANCH   2   3
TORSDOF 4
ENDMDL
MODEL      204
REMARK 921   NORMALIZED FREE ENERGY PREDICTED BY IDOCK:   -2.18 KCAL/MOL
REMARK 922        TOTAL FREE ENERGY PREDICTED BY IDOCK:   -3.12 KCAL/MOL
REMARK 923 INTER-LIGAND FREE ENERGY PREDICTED BY IDOCK:   -3.03 KCAL/MOL
REMARK 924 INTRA-LIGAND FREE ENERGY PREDICTED BY IDOCK:   -0.09 KCAL/MOL
REMARK 927      BINDING AFFINITY PREDICTED BY RF-SCORE:    0.00 PKD
ROOT
HETATM    1  C   UNL     1      -6.342   7.083  67.010  1.00  0.00    -0.048 C  
HETATM    2  C   UNL     1      -7.297   8.206  66.631  1.00  0.00    -0.082 C  
ENDROOT
BRANCH   2   3
HETATM    3  C   UNL     1      -8.385   8.356  67.686  1.00  0.00    -0.130 C  
BRANCH   3   4
HETATM    4  O   UNL     1      -8.528   9.716  68.117  1.00  0.00    -0.117 OA 
BRANCH   4   5
HETATM    5  C   UNL     1      -9.797  10.134  68.355  1.00  0.00    -0.151 C  
HETATM    6  O   UNL     1     -10.481   9.850  69.323  1.00  0.00    -0.197 OA 
BRANCH   5   7
HETATM    7  C   UNL     1     -10.233  11.078  67.288  1.00  0.00    -0.234 A  
HETATM    8  C   UNL     1     -11.213  12.055  67.521  1.00  0.00    -0.357 A  
HETATM    9  C   UNL     1     -11.675  12.857  66.473  1.00  0.00    -0.453 A  
HETATM   10  C   UNL     1     -11.150  12.682  65.196  1.00  0.00    -0.294 A  
HETATM   11  O   UNL     1     -11.591  13.425  64.141  1.00  0.00    -0.382 OA 
HETATM   12  C   UNL     1     -10.165  11.731  64.952  1.00  0.00    -0.315 A  
HETATM   13  C   UNL     1      -9.711  10.920  65.997  1.00  0.00    -0.268 A  
HETATM   14  H   UNL     1     -11.233  13.306  63.269  1.00  0.00     0.000 HD 
ENDBRANCH   5   7
ENDBRANCH   4   5
ENDBRANCH   3   4
ENDBRANCH   2   3
TORSDOF 4
ENDMDL
MODEL      205
REMARK 921   NORMALIZED FREE ENERGY PREDICTED BY IDOCK:   -2.18 KCAL/MOL
REMARK 922        TOTAL FREE ENERGY PREDICTED BY IDOCK:   -3.12 KCAL/MOL
REMARK 923 INTER-LIGAND FREE ENERGY PREDICTED BY IDOCK:   -2.83 KCAL/MOL
REMARK 924 INTRA-LIGAND FREE ENERGY PREDICTED BY IDOCK:   -0.29 KCAL/MOL
REMARK 927      BINDING AFFINITY PREDICTED BY RF-SCORE:    0.00 PKD
ROOT
HETATM    1  C   UNL     1      -6.341   3.889  71.628  1.00  0.00    -0.015 C  
HETATM    2  C   UNL     1      -7.110   4.115  72.922  1.00  0.00    -0.063 C  
ENDROOT
BRANCH   2   3
HETATM    3  C   UNL     1      -7.948   5.383  72.828  1.00  0.00    -0.102 C  
BRANCH   3   4
HETATM    4  O   UNL     1      -8.395   5.631  71.489  1.00  0.00    -0.124 OA 
BRANCH   4   5
HETATM    5  C   UNL     1      -9.717   5.435  71.258  1.00  0.00    -0.162 C  
HETATM    6  O   UNL     1     -10.274   4.359  71.113  1.00  0.00    -0.157 OA 
BRANCH   5   7
HETATM    7  C   UNL     1     -10.440   6.738  71.284  1.00  0.00    -0.237 A  
HETATM    8  C   UNL     1     -10.141   7.766  70.376  1.00  0.00    -0.194 A  
HETATM    9  C   UNL     1     -10.762   9.013  70.493  1.00  0.00    -0.285 A  
HETATM   10  C   UNL     1     -11.684   9.225  71.513  1.00  0.00    -0.380 A  
HETATM   11  O   UNL     1     -12.294  10.434  71.677  1.00  0.00    -0.370 OA 
HETATM   12  C   UNL     1     -12.004   8.210  72.409  1.00  0.00    -0.431 A  
HETATM   13  C   UNL     1     -11.375   6.967  72.302  1.00  0.00    -0.306 A  
HETATM   14  H   UNL     1     -12.923  10.579  72.374  1.00  0.00     0.000 HD 
ENDBRANCH   5   7
ENDBRANCH   4   5
ENDBRANCH   3   4
ENDBRANCH   2   3
TORSDOF 4
ENDMDL
MODEL      206
REMARK 921   NORMALIZED FREE ENERGY PREDICTED BY IDOCK:   -2.17 KCAL/MOL
REMARK 922        TOTAL FREE ENERGY PREDICTED BY IDOCK:   -3.11 KCAL/MOL
REMARK 923 INTER-LIGAND FREE ENERGY PREDICTED BY IDOCK:   -2.81 KCAL/MOL
REMARK 924 INTRA-LIGAND FREE ENERGY PREDICTED BY IDOCK:   -0.30 KCAL/MOL
REMARK 927      BINDING AFFINITY PREDICTED BY RF-SCORE:    0.00 PKD
ROOT
HETATM    1  C   UNL     1      -7.079   6.247  71.876  1.00  0.00    -0.085 C  
HETATM    2  C   UNL     1      -8.481   6.756  71.576  1.00  0.00    -0.119 C  
ENDROOT
BRANCH   2   3
HETATM    3  C   UNL     1      -9.251   5.735  70.749  1.00  0.00    -0.152 C  
BRANCH   3   4
HETATM    4  O   UNL     1      -9.917   6.342  69.634  1.00  0.00    -0.159 OA 
BRANCH   4   5
HETATM    5  C   UNL     1     -11.137   6.879  69.890  1.00  0.00    -0.288 C  
HETATM    6  O   UNL     1     -12.152   6.264  70.167  1.00  0.00    -0.150 OA 
BRANCH   5   7
HETATM    7  C   UNL     1     -11.055   8.367  69.869  1.00  0.00    -0.109 A  
HETATM    8  C   UNL     1     -11.400   9.141  70.987  1.00  0.00    -0.377 A  
HETATM    9  C   UNL     1     -11.413  10.536  70.903  1.00  0.00    -0.304 A  
HETATM   10  C   UNL     1     -11.075  11.152  69.702  1.00  0.00    -0.232 A  
HETATM   11  O   UNL     1     -11.099  12.509  69.570  1.00  0.00    -0.447 OA 
HETATM   12  C   UNL     1     -10.713  10.399  68.590  1.00  0.00    -0.250 A  
HETATM   13  C   UNL     1     -10.711   9.003  68.669  1.00  0.00    -0.137 A  
HETATM   14  H   UNL     1     -10.869  12.930  68.750  1.00  0.00     0.000 HD 
ENDBRANCH   5   7
ENDBRANCH   4   5
ENDBRANCH   3   4
ENDBRANCH   2   3
TORSDOF 4
ENDMDL
MODEL      207
REMARK 921   NORMALIZED FREE ENERGY PREDICTED BY IDOCK:   -2.17 KCAL/MOL
REMARK 922        TOTAL FREE ENERGY PREDICTED BY IDOCK:   -3.10 KCAL/MOL
REMARK 923 INTER-LIGAND FREE ENERGY PREDICTED BY IDOCK:   -3.10 KCAL/MOL
REMARK 924 INTRA-LIGAND FREE ENERGY PREDICTED BY IDOCK:   -0.00 KCAL/MOL
REMARK 927      BINDING AFFINITY PREDICTED BY RF-SCORE:    0.00 PKD
ROOT
HETATM    1  C   UNL     1     -12.591  10.809  69.596  1.00  0.00    -0.041 C  
HETATM    2  C   UNL     1     -11.338  10.563  68.769  1.00  0.00    -0.310 C  
ENDROOT
BRANCH   2   3
HETATM    3  C   UNL     1     -10.550  11.856  68.600  1.00  0.00    -0.234 C  
BRANCH   3   4
HETATM    4  O   UNL     1     -10.372  12.197  67.219  1.00  0.00    -0.210 OA 
BRANCH   4   5
HETATM    5  C   UNL     1     -10.897  13.386  66.828  1.00  0.00    -0.282 C  
HETATM    6  O   UNL     1     -12.075  13.621  66.619  1.00  0.00    -0.404 OA 
BRANCH   5   7
HETATM    7  C   UNL     1      -9.827  14.420  66.764  1.00  0.00    -0.269 A  
HETATM    8  C   UNL     1      -8.736  14.410  67.647  1.00  0.00    -0.191 A  
HETATM    9  C   UNL     1      -7.804  15.452  67.629  1.00  0.00    -0.175 A  
HETATM   10  C   UNL     1      -7.964  16.497  66.725  1.00  0.00    -0.255 A  
HETATM   11  O   UNL     1      -7.092  17.546  66.692  1.00  0.00    -0.187 OA 
HETATM   12  C   UNL     1      -9.030  16.513  65.831  1.00  0.00    -0.165 A  
HETATM   13  C   UNL     1      -9.969  15.478  65.855  1.00  0.00    -0.377 A  
HETATM   14  H   UNL     1      -7.202  18.260  66.075  1.00  0.00     0.000 HD 
ENDBRANCH   5   7
ENDBRANCH   4   5
ENDBRANCH   3   4
ENDBRANCH   2   3
TORSDOF 4
ENDMDL
MODEL      208
REMARK 921   NORMALIZED FREE ENERGY PREDICTED BY IDOCK:   -2.16 KCAL/MOL
REMARK 922        TOTAL FREE ENERGY PREDICTED BY IDOCK:   -3.09 KCAL/MOL
REMARK 923 INTER-LIGAND FREE ENERGY PREDICTED BY IDOCK:   -2.87 KCAL/MOL
REMARK 924 INTRA-LIGAND FREE ENERGY PREDICTED BY IDOCK:   -0.22 KCAL/MOL
REMARK 927      BINDING AFFINITY PREDICTED BY RF-SCORE:    0.00 PKD
ROOT
HETATM    1  C   UNL     1     -11.498  11.788  69.209  1.00  0.00    -0.369 C  
HETATM    2  C   UNL     1     -11.179  12.700  68.033  1.00  0.00    -0.308 C  
ENDROOT
BRANCH   2   3
HETATM    3  C   UNL     1     -11.465  14.152  68.394  1.00  0.00    -0.302 C  
BRANCH   3   4
HETATM    4  O   UNL     1     -10.262  14.881  68.672  1.00  0.00    -0.222 OA 
BRANCH   4   5
HETATM    5  C   UNL     1      -9.954  15.874  67.801  1.00  0.00    -0.229 C  
HETATM    6  O   UNL     1     -10.579  16.175  66.799  1.00  0.00    -0.309 OA 
BRANCH   5   7
HETATM    7  C   UNL     1      -8.761  16.625  68.284  1.00  0.00    -0.216 A  
HETATM    8  C   UNL     1      -8.326  17.803  67.656  1.00  0.00    -0.228 A  
HETATM    9  C   UNL     1      -7.144  18.427  68.067  1.00  0.00    -0.237 A  
HETATM   10  C   UNL     1      -6.405  17.874  69.108  1.00  0.00    -0.236 A  
HETATM   11  O   UNL     1      -5.234  18.436  69.522  1.00  0.00    -0.182 OA 
HETATM   12  C   UNL     1      -6.833  16.717  69.752  1.00  0.00     0.117 A  
HETATM   13  C   UNL     1      -8.007  16.085  69.335  1.00  0.00    -0.152 A  
HETATM   14  H   UNL     1      -4.729  18.059  70.233  1.00  0.00     0.000 HD 
ENDBRANCH   5   7
ENDBRANCH   4   5
ENDBRANCH   3   4
ENDBRANCH   2   3
TORSDOF 4
ENDMDL
MODEL      209
REMARK 921   NORMALIZED FREE ENERGY PREDICTED BY IDOCK:   -2.12 KCAL/MOL
REMARK 922        TOTAL FREE ENERGY PREDICTED BY IDOCK:   -3.05 KCAL/MOL
REMARK 923 INTER-LIGAND FREE ENERGY PREDICTED BY IDOCK:   -2.89 KCAL/MOL
REMARK 924 INTRA-LIGAND FREE ENERGY PREDICTED BY IDOCK:   -0.16 KCAL/MOL
REMARK 927      BINDING AFFINITY PREDICTED BY RF-SCORE:    0.00 PKD
ROOT
HETATM    1  C   UNL     1     -10.359   9.476  69.271  1.00  0.00    -0.219 C  
HETATM    2  C   UNL     1     -11.430  10.378  68.676  1.00  0.00    -0.238 C  
ENDROOT
BRANCH   2   3
HETATM    3  C   UNL     1     -11.096  11.841  68.934  1.00  0.00    -0.243 C  
BRANCH   3   4
HETATM    4  O   UNL     1     -10.454  12.450  67.806  1.00  0.00    -0.211 OA 
BRANCH   4   5
HETATM    5  C   UNL     1      -9.197  12.915  68.016  1.00  0.00    -0.212 C  
HETATM    6  O   UNL     1      -8.190  12.240  68.145  1.00  0.00    -0.152 OA 
BRANCH   5   7
HETATM    7  C   UNL     1      -9.192  14.405  67.988  1.00  0.00    -0.193 A  
HETATM    8  C   UNL     1      -7.995  15.139  67.998  1.00  0.00    -0.136 A  
HETATM    9  C   UNL     1      -8.024  16.535  68.076  1.00  0.00    -0.161 A  
HETATM   10  C   UNL     1      -9.249  17.191  68.139  1.00  0.00    -0.261 A  
HETATM   11  O   UNL     1      -9.322  18.549  68.242  1.00  0.00    -0.305 OA 
HETATM   12  C   UNL     1     -10.444  16.478  68.112  1.00  0.00    -0.313 A  
HETATM   13  C   UNL     1     -10.417  15.082  68.046  1.00  0.00    -0.242 A  
HETATM   14  H   UNL     1     -10.158  18.997  68.285  1.00  0.00     0.000 HD 
ENDBRANCH   5   7
ENDBRANCH   4   5
ENDBRANCH   3   4
ENDBRANCH   2   3
TORSDOF 4
ENDMDL
MODEL      210
REMARK 921   NORMALIZED FREE ENERGY PREDICTED BY IDOCK:   -2.09 KCAL/MOL
REMARK 922        TOTAL FREE ENERGY PREDICTED BY IDOCK:   -3.01 KCAL/MOL
REMARK 923 INTER-LIGAND FREE ENERGY PREDICTED BY IDOCK:   -2.83 KCAL/MOL
REMARK 924 INTRA-LIGAND FREE ENERGY PREDICTED BY IDOCK:   -0.18 KCAL/MOL
REMARK 927      BINDING AFFINITY PREDICTED BY RF-SCORE:    0.00 PKD
ROOT
HETATM    1  C   UNL     1     -14.124   8.814  72.223  1.00  0.00    -0.511 C  
HETATM    2  C   UNL     1     -13.855   7.464  71.574  1.00  0.00    -0.483 C  
ENDROOT
BRANCH   2   3
HETATM    3  C   UNL     1     -12.374   7.119  71.660  1.00  0.00    -0.362 C  
BRANCH   3   4
HETATM    4  O   UNL     1     -11.633   7.665  70.561  1.00  0.00    -0.260 OA 
BRANCH   4   5
HETATM    5  C   UNL     1     -10.592   6.917  70.116  1.00  0.00    -0.220 C  
HETATM    6  O   UNL     1     -10.620   5.729  69.843  1.00  0.00    -0.261 OA 
BRANCH   5   7
HETATM    7  C   UNL     1      -9.391   7.778  69.921  1.00  0.00    -0.157 A  
HETATM    8  C   UNL     1      -8.978   8.190  68.644  1.00  0.00    -0.137 A  
HETATM    9  C   UNL     1      -7.790   8.909  68.485  1.00  0.00    -0.103 A  
HETATM   10  C   UNL     1      -7.023   9.219  69.603  1.00  0.00    -0.056 A  
HETATM   11  O   UNL     1      -5.845   9.897  69.489  1.00  0.00    -0.037 OA 
HETATM   12  C   UNL     1      -7.428   8.834  70.877  1.00  0.00    -0.094 A  
HETATM   13  C   UNL     1      -8.609   8.104  71.037  1.00  0.00    -0.152 A  
HETATM   14  H   UNL     1      -5.321  10.108  70.253  1.00  0.00     0.000 HD 
ENDBRANCH   5   7
ENDBRANCH   4   5
ENDBRANCH   3   4
ENDBRANCH   2   3
TORSDOF 4
ENDMDL
MODEL      211
REMARK 921   NORMALIZED FREE ENERGY PREDICTED BY IDOCK:   -2.09 KCAL/MOL
REMARK 922        TOTAL FREE ENERGY PREDICTED BY IDOCK:   -3.01 KCAL/MOL
REMARK 923 INTER-LIGAND FREE ENERGY PREDICTED BY IDOCK:   -2.75 KCAL/MOL
REMARK 924 INTRA-LIGAND FREE ENERGY PREDICTED BY IDOCK:   -0.26 KCAL/MOL
REMARK 927      BINDING AFFINITY PREDICTED BY RF-SCORE:    0.00 PKD
ROOT
HETATM    1  C   UNL     1     -13.746  13.828  71.867  1.00  0.00    -0.512 C  
HETATM    2  C   UNL     1     -12.272  13.664  71.527  1.00  0.00    -0.107 C  
ENDROOT
BRANCH   2   3
HETATM    3  C   UNL     1     -12.110  12.869  70.238  1.00  0.00    -0.302 C  
BRANCH   3   4
HETATM    4  O   UNL     1     -11.640  13.690  69.159  1.00  0.00    -0.266 OA 
BRANCH   4   5
HETATM    5  C   UNL     1     -11.052  13.035  68.127  1.00  0.00    -0.256 C  
HETATM    6  O   UNL     1     -11.623  12.487  67.200  1.00  0.00    -0.328 OA 
BRANCH   5   7
HETATM    7  C   UNL     1      -9.569  13.145  68.231  1.00  0.00    -0.218 A  
HETATM    8  C   UNL     1      -8.750  12.010  68.328  1.00  0.00    -0.178 A  
HETATM    9  C   UNL     1      -7.373  12.148  68.529  1.00  0.00    -0.105 A  
HETATM   10  C   UNL     1      -6.820  13.421  68.626  1.00  0.00    -0.098 A  
HETATM   11  O   UNL     1      -5.487  13.600  68.847  1.00  0.00    -0.072 OA 
HETATM   12  C   UNL     1      -7.617  14.556  68.514  1.00  0.00    -0.123 A  
HETATM   13  C   UNL     1      -8.995  14.420  68.325  1.00  0.00    -0.187 A  
HETATM   14  H   UNL     1      -5.110  14.469  68.914  1.00  0.00     0.000 HD 
ENDBRANCH   5   7
ENDBRANCH   4   5
ENDBRANCH   3   4
ENDBRANCH   2   3
TORSDOF 4
ENDMDL
MODEL      212
REMARK 921   NORMALIZED FREE ENERGY PREDICTED BY IDOCK:   -2.09 KCAL/MOL
REMARK 922        TOTAL FREE ENERGY PREDICTED BY IDOCK:   -3.00 KCAL/MOL
REMARK 923 INTER-LIGAND FREE ENERGY PREDICTED BY IDOCK:   -2.54 KCAL/MOL
REMARK 924 INTRA-LIGAND FREE ENERGY PREDICTED BY IDOCK:   -0.46 KCAL/MOL
REMARK 927      BINDING AFFINITY PREDICTED BY RF-SCORE:    0.00 PKD
ROOT
HETATM    1  C   UNL     1      -8.220   5.577  64.464  1.00  0.00    -0.129 C  
HETATM    2  C   UNL     1      -7.180   5.435  65.566  1.00  0.00    -0.068 C  
ENDROOT
BRANCH   2   3
HETATM    3  C   UNL     1      -7.752   4.649  66.738  1.00  0.00    -0.095 C  
BRANCH   3   4
HETATM    4  O   UNL     1      -8.807   5.363  67.397  1.00  0.00    -0.108 OA 
BRANCH   4   5
HETATM    5  C   UNL     1      -8.425   6.203  68.392  1.00  0.00    -0.114 C  
HETATM    6  O   UNL     1      -7.490   6.038  69.157  1.00  0.00    -0.082 OA 
BRANCH   5   7
HETATM    7  C   UNL     1      -9.270   7.430  68.378  1.00  0.00    -0.138 A  
HETATM    8  C   UNL     1      -9.885   7.917  69.542  1.00  0.00    -0.176 A  
HETATM    9  C   UNL     1     -10.755   9.009  69.477  1.00  0.00    -0.215 A  
HETATM   10  C   UNL     1     -11.003   9.614  68.249  1.00  0.00    -0.121 A  
HETATM   11  O   UNL     1     -11.864  10.665  68.137  1.00  0.00    -0.748 OA 
HETATM   12  C   UNL     1     -10.387   9.154  67.089  1.00  0.00    -0.337 A  
HETATM   13  C   UNL     1      -9.526   8.055  67.150  1.00  0.00    -0.207 A  
HETATM   14  H   UNL     1     -12.034  11.077  67.299  1.00  0.00     0.000 HD 
ENDBRANCH   5   7
ENDBRANCH   4   5
ENDBRANCH   3   4
ENDBRANCH   2   3
TORSDOF 4
ENDMDL
MODEL      213
REMARK 921   NORMALIZED FREE ENERGY PREDICTED BY IDOCK:   -2.08 KCAL/MOL
REMARK 922        TOTAL FREE ENERGY PREDICTED BY IDOCK:   -2.99 KCAL/MOL
REMARK 923 INTER-LIGAND FREE ENERGY PREDICTED BY IDOCK:   -2.72 KCAL/MOL
REMARK 924 INTRA-LIGAND FREE ENERGY PREDICTED BY IDOCK:   -0.27 KCAL/MOL
REMARK 927      BINDING AFFINITY PREDICTED BY RF-SCORE:    0.00 PKD
ROOT
HETATM    1  C   UNL     1     -10.286  14.840  67.937  1.00  0.00    -0.240 C  
HETATM    2  C   UNL     1     -10.274  13.319  67.975  1.00  0.00    -0.240 C  
ENDROOT
BRANCH   2   3
HETATM    3  C   UNL     1      -8.848  12.803  68.117  1.00  0.00    -0.194 C  
BRANCH   3   4
HETATM    4  O   UNL     1      -8.785  11.626  68.934  1.00  0.00    -0.059 OA 
BRANCH   4   5
HETATM    5  C   UNL     1      -7.948  10.649  68.505  1.00  0.00    -0.122 C  
HETATM    6  O   UNL     1      -6.732  10.644  68.602  1.00  0.00    -0.055 OA 
BRANCH   5   7
HETATM    7  C   UNL     1      -8.733   9.508  67.955  1.00  0.00    -0.120 A  
HETATM    8  C   UNL     1      -8.682   9.164  66.595  1.00  0.00    -0.140 A  
HETATM    9  C   UNL     1      -9.509   8.156  66.091  1.00  0.00    -0.217 A  
HETATM   10  C   UNL     1     -10.381   7.493  66.949  1.00  0.00    -0.309 A  
HETATM   11  O   UNL     1     -11.223   6.522  66.493  1.00  0.00    -0.649 OA 
HETATM   12  C   UNL     1     -10.430   7.810  68.303  1.00  0.00    -0.215 A  
HETATM   13  C   UNL     1      -9.613   8.826  68.807  1.00  0.00    -0.160 A  
HETATM   14  H   UNL     1     -11.818   6.069  67.079  1.00  0.00     0.000 HD 
ENDBRANCH   5   7
ENDBRANCH   4   5
ENDBRANCH   3   4
ENDBRANCH   2   3
TORSDOF 4
ENDMDL
MODEL      214
REMARK 921   NORMALIZED FREE ENERGY PREDICTED BY IDOCK:   -2.06 KCAL/MOL
REMARK 922        TOTAL FREE ENERGY PREDICTED BY IDOCK:   -2.97 KCAL/MOL
REMARK 923 INTER-LIGAND FREE ENERGY PREDICTED BY IDOCK:   -2.70 KCAL/MOL
REMARK 924 INTRA-LIGAND FREE ENERGY PREDICTED BY IDOCK:   -0.27 KCAL/MOL
REMARK 927      BINDING AFFINITY PREDICTED BY RF-SCORE:    0.00 PKD
ROOT
HETATM    1  C   UNL     1      -6.699   5.472  66.771  1.00  0.00    -0.061 C  
HETATM    2  C   UNL     1      -7.946   5.586  67.636  1.00  0.00    -0.101 C  
ENDROOT
BRANCH   2   3
HETATM    3  C   UNL     1      -7.567   5.634  69.110  1.00  0.00    -0.088 C  
BRANCH   3   4
HETATM    4  O   UNL     1      -8.186   6.736  69.786  1.00  0.00    -0.124 OA 
BRANCH   4   5
HETATM    5  C   UNL     1      -9.431   6.510  70.275  1.00  0.00    -0.162 C  
HETATM    6  O   UNL     1      -9.903   5.427  70.578  1.00  0.00    -0.178 OA 
BRANCH   5   7
HETATM    7  C   UNL     1     -10.144   7.803  70.477  1.00  0.00    -0.192 A  
HETATM    8  C   UNL     1     -11.430   7.859  71.036  1.00  0.00    -0.298 A  
HETATM    9  C   UNL     1     -12.114   9.075  71.116  1.00  0.00    -0.345 A  
HETATM   10  C   UNL     1     -11.506  10.234  70.642  1.00  0.00    -0.349 A  
HETATM   11  O   UNL     1     -12.147  11.436  70.678  1.00  0.00    -0.361 OA 
HETATM   12  C   UNL     1     -10.224  10.198  70.102  1.00  0.00    -0.235 A  
HETATM   13  C   UNL     1      -9.544   8.981  70.009  1.00  0.00    -0.203 A  
HETATM   14  H   UNL     1     -11.733  12.227  70.354  1.00  0.00     0.000 HD 
ENDBRANCH   5   7
ENDBRANCH   4   5
ENDBRANCH   3   4
ENDBRANCH   2   3
TORSDOF 4
ENDMDL
MODEL      215
REMARK 921   NORMALIZED FREE ENERGY PREDICTED BY IDOCK:   -2.06 KCAL/MOL
REMARK 922        TOTAL FREE ENERGY PREDICTED BY IDOCK:   -2.97 KCAL/MOL
REMARK 923 INTER-LIGAND FREE ENERGY PREDICTED BY IDOCK:   -2.67 KCAL/MOL
REMARK 924 INTRA-LIGAND FREE ENERGY PREDICTED BY IDOCK:   -0.30 KCAL/MOL
REMARK 927      BINDING AFFINITY PREDICTED BY RF-SCORE:    0.00 PKD
ROOT
HETATM    1  C   UNL     1      -9.097   4.951  72.118  1.00  0.00    -0.148 C  
HETATM    2  C   UNL     1     -10.288   5.565  72.839  1.00  0.00    -0.227 C  
ENDROOT
BRANCH   2   3
HETATM    3  C   UNL     1     -10.461   7.022  72.432  1.00  0.00    -0.209 C  
BRANCH   3   4
HETATM    4  O   UNL     1     -10.361   7.197  71.013  1.00  0.00    -0.197 OA 
BRANCH   4   5
HETATM    5  C   UNL     1      -9.692   8.301  70.596  1.00  0.00    -0.171 C  
HETATM    6  O   UNL     1      -9.263   9.196  71.304  1.00  0.00    -0.246 OA 
BRANCH   5   7
HETATM    7  C   UNL     1      -9.471   8.239  69.124  1.00  0.00    -0.155 A  
HETATM    8  C   UNL     1      -8.640   9.157  68.462  1.00  0.00    -0.129 A  
HETATM    9  C   UNL     1      -8.535   9.137  67.069  1.00  0.00    -0.123 A  
HETATM   10  C   UNL     1      -9.256   8.196  66.341  1.00  0.00    -0.199 A  
HETATM   11  O   UNL     1      -9.202   8.159  64.979  1.00  0.00    -0.346 OA 
HETATM   12  C   UNL     1     -10.070   7.268  66.983  1.00  0.00    -0.316 A  
HETATM   13  C   UNL     1     -10.186   7.294  68.376  1.00  0.00    -0.203 A  
HETATM   14  H   UNL     1      -9.695   7.516  64.483  1.00  0.00     0.000 HD 
ENDBRANCH   5   7
ENDBRANCH   4   5
ENDBRANCH   3   4
ENDBRANCH   2   3
TORSDOF 4
ENDMDL
MODEL      216
REMARK 921   NORMALIZED FREE ENERGY PREDICTED BY IDOCK:   -2.06 KCAL/MOL
REMARK 922        TOTAL FREE ENERGY PREDICTED BY IDOCK:   -2.96 KCAL/MOL
REMARK 923 INTER-LIGAND FREE ENERGY PREDICTED BY IDOCK:   -2.80 KCAL/MOL
REMARK 924 INTRA-LIGAND FREE ENERGY PREDICTED BY IDOCK:   -0.17 KCAL/MOL
REMARK 927      BINDING AFFINITY PREDICTED BY RF-SCORE:    0.00 PKD
ROOT
HETATM    1  C   UNL     1     -10.549  12.288  66.750  1.00  0.00    -0.251 C  
HETATM    2  C   UNL     1     -11.306  11.786  67.971  1.00  0.00    -0.355 C  
ENDROOT
BRANCH   2   3
HETATM    3  C   UNL     1     -10.368  11.035  68.906  1.00  0.00    -0.205 C  
BRANCH   3   4
HETATM    4  O   UNL     1     -11.086  10.249  69.866  1.00  0.00    -0.261 OA 
BRANCH   4   5
HETATM    5  C   UNL     1     -10.353   9.345  70.563  1.00  0.00    -0.281 C  
HETATM    6  O   UNL     1      -9.836   9.521  71.653  1.00  0.00    -0.162 OA 
BRANCH   5   7
HETATM    7  C   UNL     1     -10.328   8.042  69.841  1.00  0.00    -0.221 A  
HETATM    8  C   UNL     1     -11.370   7.110  69.962  1.00  0.00    -0.242 A  
HETATM    9  C   UNL     1     -11.269   5.855  69.355  1.00  0.00    -0.277 A  
HETATM   10  C   UNL     1     -10.128   5.538  68.624  1.00  0.00    -0.183 A  
HETATM   11  O   UNL     1      -9.978   4.316  68.038  1.00  0.00    -0.091 OA 
HETATM   12  C   UNL     1      -9.094   6.458  68.480  1.00  0.00    -0.126 A  
HETATM   13  C   UNL     1      -9.188   7.709  69.096  1.00  0.00    -0.141 A  
HETATM   14  H   UNL     1      -9.198   4.100  67.539  1.00  0.00     0.000 HD 
ENDBRANCH   5   7
ENDBRANCH   4   5
ENDBRANCH   3   4
ENDBRANCH   2   3
TORSDOF 4
ENDMDL
MODEL      217
REMARK 921   NORMALIZED FREE ENERGY PREDICTED BY IDOCK:   -2.05 KCAL/MOL
REMARK 922        TOTAL FREE ENERGY PREDICTED BY IDOCK:   -2.96 KCAL/MOL
REMARK 923 INTER-LIGAND FREE ENERGY PREDICTED BY IDOCK:   -2.69 KCAL/MOL
REMARK 924 INTRA-LIGAND FREE ENERGY PREDICTED BY IDOCK:   -0.27 KCAL/MOL
REMARK 927      BINDING AFFINITY PREDICTED BY RF-SCORE:    0.00 PKD
ROOT
HETATM    1  C   UNL     1      -8.307   5.557  64.250  1.00  0.00    -0.107 C  
HETATM    2  C   UNL     1      -7.197   6.401  64.859  1.00  0.00    -0.067 C  
ENDROOT
BRANCH   2   3
HETATM    3  C   UNL     1      -7.724   7.196  66.046  1.00  0.00    -0.099 C  
BRANCH   3   4
HETATM    4  O   UNL     1      -8.992   7.802  65.764  1.00  0.00    -0.150 OA 
BRANCH   4   5
HETATM    5  C   UNL     1      -8.963   9.120  65.443  1.00  0.00    -0.207 C  
HETATM    6  O   UNL     1      -8.572   9.599  64.391  1.00  0.00    -0.164 OA 
BRANCH   5   7
HETATM    7  C   UNL     1      -9.562   9.927  66.542  1.00  0.00    -0.243 A  
HETATM    8  C   UNL     1      -9.184  11.260  66.771  1.00  0.00    -0.186 A  
HETATM    9  C   UNL     1      -9.687  11.957  67.873  1.00  0.00    -0.192 A  
HETATM   10  C   UNL     1     -10.571  11.322  68.739  1.00  0.00    -0.203 A  
HETATM   11  O   UNL     1     -11.065  11.957  69.840  1.00  0.00    -0.475 OA 
HETATM   12  C   UNL     1     -10.970  10.008  68.516  1.00  0.00    -0.255 A  
HETATM   13  C   UNL     1     -10.458   9.304  67.421  1.00  0.00    -0.340 A  
HETATM   14  H   UNL     1     -11.668  11.523  70.431  1.00  0.00     0.000 HD 
ENDBRANCH   5   7
ENDBRANCH   4   5
ENDBRANCH   3   4
ENDBRANCH   2   3
TORSDOF 4
ENDMDL
MODEL      218
REMARK 921   NORMALIZED FREE ENERGY PREDICTED BY IDOCK:   -2.04 KCAL/MOL
REMARK 922        TOTAL FREE ENERGY PREDICTED BY IDOCK:   -2.95 KCAL/MOL
REMARK 923 INTER-LIGAND FREE ENERGY PREDICTED BY IDOCK:   -2.83 KCAL/MOL
REMARK 924 INTRA-LIGAND FREE ENERGY PREDICTED BY IDOCK:   -0.12 KCAL/MOL
REMARK 927      BINDING AFFINITY PREDICTED BY RF-SCORE:    0.00 PKD
ROOT
HETATM    1  C   UNL     1      -9.225   3.710  66.048  1.00  0.00    -0.165 C  
HETATM    2  C   UNL     1      -9.839   4.494  67.198  1.00  0.00    -0.225 C  
ENDROOT
BRANCH   2   3
HETATM    3  C   UNL     1     -10.511   5.759  66.680  1.00  0.00    -0.268 C  
BRANCH   3   4
HETATM    4  O   UNL     1     -10.712   6.724  67.722  1.00  0.00    -0.220 OA 
BRANCH   4   5
HETATM    5  C   UNL     1      -9.600   7.365  68.161  1.00  0.00    -0.142 C  
HETATM    6  O   UNL     1      -8.761   6.916  68.925  1.00  0.00    -0.130 OA 
BRANCH   5   7
HETATM    7  C   UNL     1      -9.487   8.699  67.508  1.00  0.00    -0.181 A  
HETATM    8  C   UNL     1     -10.603   9.532  67.333  1.00  0.00    -0.337 A  
HETATM    9  C   UNL     1     -10.485  10.731  66.624  1.00  0.00    -0.302 A  
HETATM   10  C   UNL     1      -9.250  11.096  66.099  1.00  0.00    -0.198 A  
HETATM   11  O   UNL     1      -9.097  12.244  65.380  1.00  0.00    -0.417 OA 
HETATM   12  C   UNL     1      -8.130  10.290  66.279  1.00  0.00    -0.129 A  
HETATM   13  C   UNL     1      -8.249   9.085  66.977  1.00  0.00    -0.109 A  
HETATM   14  H   UNL     1      -8.253  12.493  65.020  1.00  0.00     0.000 HD 
ENDBRANCH   5   7
ENDBRANCH   4   5
ENDBRANCH   3   4
ENDBRANCH   2   3
TORSDOF 4
ENDMDL
MODEL      219
REMARK 921   NORMALIZED FREE ENERGY PREDICTED BY IDOCK:   -2.04 KCAL/MOL
REMARK 922        TOTAL FREE ENERGY PREDICTED BY IDOCK:   -2.94 KCAL/MOL
REMARK 923 INTER-LIGAND FREE ENERGY PREDICTED BY IDOCK:   -2.59 KCAL/MOL
REMARK 924 INTRA-LIGAND FREE ENERGY PREDICTED BY IDOCK:   -0.35 KCAL/MOL
REMARK 927      BINDING AFFINITY PREDICTED BY RF-SCORE:    0.00 PKD
ROOT
HETATM    1  C   UNL     1     -10.759  10.040  69.236  1.00  0.00    -0.249 C  
HETATM    2  C   UNL     1     -11.663  11.220  68.911  1.00  0.00    -0.409 C  
ENDROOT
BRANCH   2   3
HETATM    3  C   UNL     1     -10.839  12.394  68.398  1.00  0.00    -0.238 C  
BRANCH   3   4
HETATM    4  O   UNL     1     -10.294  12.137  67.097  1.00  0.00    -0.212 OA 
BRANCH   4   5
HETATM    5  C   UNL     1      -8.942  12.038  67.028  1.00  0.00    -0.198 C  
HETATM    6  O   UNL     1      -8.137  12.657  67.703  1.00  0.00    -0.148 OA 
BRANCH   5   7
HETATM    7  C   UNL     1      -8.557  10.983  66.049  1.00  0.00    -0.173 A  
HETATM    8  C   UNL     1      -7.223  10.578  65.887  1.00  0.00    -0.135 A  
HETATM    9  C   UNL     1      -6.879   9.662  64.888  1.00  0.00    -0.109 A  
HETATM   10  C   UNL     1      -7.872   9.151  64.058  1.00  0.00    -0.129 A  
HETATM   11  O   UNL     1      -7.576   8.276  63.056  1.00  0.00    -0.109 OA 
HETATM   12  C   UNL     1      -9.201   9.529  64.217  1.00  0.00    -0.166 A  
HETATM   13  C   UNL     1      -9.545  10.454  65.208  1.00  0.00    -0.316 A  
HETATM   14  H   UNL     1      -8.254   7.927  62.489  1.00  0.00     0.000 HD 
ENDBRANCH   5   7
ENDBRANCH   4   5
ENDBRANCH   3   4
ENDBRANCH   2   3
TORSDOF 4
ENDMDL
MODEL      220
REMARK 921   NORMALIZED FREE ENERGY PREDICTED BY IDOCK:   -2.04 KCAL/MOL
REMARK 922        TOTAL FREE ENERGY PREDICTED BY IDOCK:   -2.94 KCAL/MOL
REMARK 923 INTER-LIGAND FREE ENERGY PREDICTED BY IDOCK:   -2.82 KCAL/MOL
REMARK 924 INTRA-LIGAND FREE ENERGY PREDICTED BY IDOCK:   -0.12 KCAL/MOL
REMARK 927      BINDING AFFINITY PREDICTED BY RF-SCORE:    0.00 PKD
ROOT
HETATM    1  C   UNL     1     -11.818   6.871  72.243  1.00  0.00    -0.274 C  
HETATM    2  C   UNL     1     -11.800   6.865  70.721  1.00  0.00    -0.427 C  
ENDROOT
BRANCH   2   3
HETATM    3  C   UNL     1     -10.555   7.573  70.202  1.00  0.00    -0.235 C  
BRANCH   3   4
HETATM    4  O   UNL     1     -10.713   8.007  68.845  1.00  0.00    -0.175 OA 
BRANCH   4   5
HETATM    5  C   UNL     1     -10.216   7.179  67.893  1.00  0.00    -0.187 C  
HETATM    6  O   UNL     1     -10.420   5.980  67.800  1.00  0.00    -0.186 OA 
BRANCH   5   7
HETATM    7  C   UNL     1      -9.427   7.958  66.898  1.00  0.00    -0.243 A  
HETATM    8  C   UNL     1      -9.954   9.096  66.267  1.00  0.00    -0.352 A  
HETATM    9  C   UNL     1      -9.230   9.745  65.262  1.00  0.00    -0.294 A  
HETATM   10  C   UNL     1      -7.980   9.257  64.896  1.00  0.00    -0.121 A  
HETATM   11  O   UNL     1      -7.252   9.844  63.904  1.00  0.00    -0.119 OA 
HETATM   12  C   UNL     1      -7.436   8.141  65.525  1.00  0.00    -0.081 A  
HETATM   13  C   UNL     1      -8.164   7.484  66.521  1.00  0.00    -0.123 A  
HETATM   14  H   UNL     1      -6.399   9.511  63.654  1.00  0.00     0.000 HD 
ENDBRANCH   5   7
ENDBRANCH   4   5
ENDBRANCH   3   4
ENDBRANCH   2   3
TORSDOF 4
ENDMDL
MODEL      221
REMARK 921   NORMALIZED FREE ENERGY PREDICTED BY IDOCK:   -2.03 KCAL/MOL
REMARK 922        TOTAL FREE ENERGY PREDICTED BY IDOCK:   -2.93 KCAL/MOL
REMARK 923 INTER-LIGAND FREE ENERGY PREDICTED BY IDOCK:   -2.74 KCAL/MOL
REMARK 924 INTRA-LIGAND FREE ENERGY PREDICTED BY IDOCK:   -0.20 KCAL/MOL
REMARK 927      BINDING AFFINITY PREDICTED BY RF-SCORE:    0.00 PKD
ROOT
HETATM    1  C   UNL     1      -8.811  10.718  65.507  1.00  0.00    -0.203 C  
HETATM    2  C   UNL     1     -10.012  10.227  66.301  1.00  0.00    -0.295 C  
ENDROOT
BRANCH   2   3
HETATM    3  C   UNL     1      -9.629   9.028  67.159  1.00  0.00    -0.167 C  
BRANCH   3   4
HETATM    4  O   UNL     1     -10.756   8.186  67.436  1.00  0.00    -0.269 OA 
BRANCH   4   5
HETATM    5  C   UNL     1     -10.607   7.313  68.464  1.00  0.00    -0.175 C  
HETATM    6  O   UNL     1     -10.877   7.523  69.635  1.00  0.00    -0.243 OA 
BRANCH   5   7
HETATM    7  C   UNL     1     -10.133   5.997  67.953  1.00  0.00    -0.183 A  
HETATM    8  C   UNL     1     -10.510   5.516  66.689  1.00  0.00    -0.355 A  
HETATM    9  C   UNL     1     -10.134   4.234  66.280  1.00  0.00    -0.196 A  
HETATM   10  C   UNL     1      -9.377   3.438  67.134  1.00  0.00    -0.193 A  
HETATM   11  O   UNL     1      -9.011   2.172  66.785  1.00  0.00    -0.128 OA 
HETATM   12  C   UNL     1      -8.980   3.907  68.383  1.00  0.00    -0.165 A  
HETATM   13  C   UNL     1      -9.365   5.185  68.798  1.00  0.00    -0.166 A  
HETATM   14  H   UNL     1      -8.494   1.628  67.369  1.00  0.00     0.000 HD 
ENDBRANCH   5   7
ENDBRANCH   4   5
ENDBRANCH   3   4
ENDBRANCH   2   3
TORSDOF 4
ENDMDL
MODEL      222
REMARK 921   NORMALIZED FREE ENERGY PREDICTED BY IDOCK:   -2.02 KCAL/MOL
REMARK 922        TOTAL FREE ENERGY PREDICTED BY IDOCK:   -2.92 KCAL/MOL
REMARK 923 INTER-LIGAND FREE ENERGY PREDICTED BY IDOCK:   -3.27 KCAL/MOL
REMARK 924 INTRA-LIGAND FREE ENERGY PREDICTED BY IDOCK:    0.34 KCAL/MOL
REMARK 927      BINDING AFFINITY PREDICTED BY RF-SCORE:    0.00 PKD
ROOT
HETATM    1  C   UNL     1      -9.616  18.122  67.635  1.00  0.00    -0.278 C  
HETATM    2  C   UNL     1      -9.251  16.680  67.317  1.00  0.00    -0.228 C  
ENDROOT
BRANCH   2   3
HETATM    3  C   UNL     1     -10.080  15.723  68.163  1.00  0.00    -0.220 C  
BRANCH   3   4
HETATM    4  O   UNL     1     -11.025  14.990  67.371  1.00  0.00    -0.298 OA 
BRANCH   4   5
HETATM    5  C   UNL     1     -10.572  14.533  66.177  1.00  0.00    -0.306 C  
HETATM    6  O   UNL     1     -10.483  15.176  65.144  1.00  0.00    -0.377 OA 
BRANCH   5   7
HETATM    7  C   UNL     1     -10.106  13.124  66.312  1.00  0.00    -0.285 A  
HETATM    8  C   UNL     1     -10.790  12.059  65.706  1.00  0.00    -0.329 A  
HETATM    9  C   UNL     1     -10.389  10.740  65.936  1.00  0.00    -0.302 A  
HETATM   10  C   UNL     1      -9.301  10.491  66.768  1.00  0.00    -0.157 A  
HETATM   11  O   UNL     1      -8.893   9.219  67.040  1.00  0.00    -0.122 OA 
HETATM   12  C   UNL     1      -8.602  11.537  67.361  1.00  0.00    -0.145 A  
HETATM   13  C   UNL     1      -9.009  12.856  67.142  1.00  0.00    -0.219 A  
HETATM   14  H   UNL     1      -8.151   9.049  67.608  1.00  0.00     0.000 HD 
ENDBRANCH   5   7
ENDBRANCH   4   5
ENDBRANCH   3   4
ENDBRANCH   2   3
TORSDOF 4
ENDMDL
MODEL      223
REMARK 921   NORMALIZED FREE ENERGY PREDICTED BY IDOCK:   -2.01 KCAL/MOL
REMARK 922        TOTAL FREE ENERGY PREDICTED BY IDOCK:   -2.90 KCAL/MOL
REMARK 923 INTER-LIGAND FREE ENERGY PREDICTED BY IDOCK:   -2.61 KCAL/MOL
REMARK 924 INTRA-LIGAND FREE ENERGY PREDICTED BY IDOCK:   -0.29 KCAL/MOL
REMARK 927      BINDING AFFINITY PREDICTED BY RF-SCORE:    0.00 PKD
ROOT
HETATM    1  C   UNL     1      -8.651   5.103  73.690  1.00  0.00    -0.111 C  
HETATM    2  C   UNL     1     -10.062   5.104  74.260  1.00  0.00    -0.261 C  
ENDROOT
BRANCH   2   3
HETATM    3  C   UNL     1     -10.624   6.519  74.284  1.00  0.00    -0.010 C  
BRANCH   3   4
HETATM    4  O   UNL     1     -10.215   7.277  73.138  1.00  0.00    -0.233 OA 
BRANCH   4   5
HETATM    5  C   UNL     1     -11.113   7.354  72.124  1.00  0.00    -0.252 C  
HETATM    6  O   UNL     1     -12.287   7.029  72.173  1.00  0.00    -0.275 OA 
BRANCH   5   7
HETATM    7  C   UNL     1     -10.482   7.981  70.929  1.00  0.00    -0.223 A  
HETATM    8  C   UNL     1     -10.194   7.241  69.771  1.00  0.00    -0.214 A  
HETATM    9  C   UNL     1      -9.508   7.834  68.707  1.00  0.00    -0.149 A  
HETATM   10  C   UNL     1      -9.117   9.166  68.802  1.00  0.00    -0.136 A  
HETATM   11  O   UNL     1      -8.424   9.775  67.798  1.00  0.00    -0.120 OA 
HETATM   12  C   UNL     1      -9.411   9.918  69.935  1.00  0.00    -0.256 A  
HETATM   13  C   UNL     1     -10.086   9.324  71.005  1.00  0.00    -0.373 A  
HETATM   14  H   UNL     1      -8.157  10.684  67.863  1.00  0.00     0.000 HD 
ENDBRANCH   5   7
ENDBRANCH   4   5
ENDBRANCH   3   4
ENDBRANCH   2   3
TORSDOF 4
ENDMDL
MODEL      224
REMARK 921   NORMALIZED FREE ENERGY PREDICTED BY IDOCK:   -2.01 KCAL/MOL
REMARK 922        TOTAL FREE ENERGY PREDICTED BY IDOCK:   -2.90 KCAL/MOL
REMARK 923 INTER-LIGAND FREE ENERGY PREDICTED BY IDOCK:   -2.75 KCAL/MOL
REMARK 924 INTRA-LIGAND FREE ENERGY PREDICTED BY IDOCK:   -0.15 KCAL/MOL
REMARK 927      BINDING AFFINITY PREDICTED BY RF-SCORE:    0.00 PKD
ROOT
HETATM    1  C   UNL     1     -10.956   7.382  72.983  1.00  0.00    -0.422 C  
HETATM    2  C   UNL     1      -9.779   6.484  72.628  1.00  0.00    -0.168 C  
ENDROOT
BRANCH   2   3
HETATM    3  C   UNL     1      -9.071   7.004  71.384  1.00  0.00    -0.147 C  
BRANCH   3   4
HETATM    4  O   UNL     1      -9.959   7.101  70.263  1.00  0.00    -0.186 OA 
BRANCH   4   5
HETATM    5  C   UNL     1      -9.373   7.283  69.054  1.00  0.00    -0.148 C  
HETATM    6  O   UNL     1      -8.729   6.455  68.431  1.00  0.00    -0.115 OA 
BRANCH   5   7
HETATM    7  C   UNL     1      -9.694   8.640  68.529  1.00  0.00    -0.174 A  
HETATM    8  C   UNL     1     -10.280   8.824  67.266  1.00  0.00    -0.332 A  
HETATM    9  C   UNL     1     -10.474  10.111  66.759  1.00  0.00    -0.270 A  
HETATM   10  C   UNL     1     -10.086  11.211  67.518  1.00  0.00    -0.183 A  
HETATM   11  O   UNL     1     -10.233  12.483  67.050  1.00  0.00    -0.220 OA 
HETATM   12  C   UNL     1      -9.521  11.046  68.778  1.00  0.00    -0.190 A  
HETATM   13  C   UNL     1      -9.315   9.759  69.283  1.00  0.00    -0.198 A  
HETATM   14  H   UNL     1      -9.968  13.234  67.568  1.00  0.00     0.000 HD 
ENDBRANCH   5   7
ENDBRANCH   4   5
ENDBRANCH   3   4
ENDBRANCH   2   3
TORSDOF 4
ENDMDL
MODEL      225
REMARK 921   NORMALIZED FREE ENERGY PREDICTED BY IDOCK:   -2.00 KCAL/MOL
REMARK 922        TOTAL FREE ENERGY PREDICTED BY IDOCK:   -2.89 KCAL/MOL
REMARK 923 INTER-LIGAND FREE ENERGY PREDICTED BY IDOCK:   -2.67 KCAL/MOL
REMARK 924 INTRA-LIGAND FREE ENERGY PREDICTED BY IDOCK:   -0.22 KCAL/MOL
REMARK 927      BINDING AFFINITY PREDICTED BY RF-SCORE:    0.00 PKD
ROOT
HETATM    1  C   UNL     1     -14.130   7.645  71.920  1.00  0.00    -0.444 C  
HETATM    2  C   UNL     1     -12.727   7.879  71.378  1.00  0.00    -0.312 C  
ENDROOT
BRANCH   2   3
HETATM    3  C   UNL     1     -12.145   9.165  71.950  1.00  0.00    -0.378 C  
BRANCH   3   4
HETATM    4  O   UNL     1     -10.738   9.274  71.696  1.00  0.00    -0.354 OA 
BRANCH   4   5
HETATM    5  C   UNL     1     -10.382   9.496  70.406  1.00  0.00    -0.276 C  
HETATM    6  O   UNL     1     -11.037  10.094  69.569  1.00  0.00    -0.230 OA 
BRANCH   5   7
HETATM    7  C   UNL     1      -9.010   8.971  70.157  1.00  0.00    -0.200 A  
HETATM    8  C   UNL     1      -8.472   8.896  68.862  1.00  0.00    -0.131 A  
HETATM    9  C   UNL     1      -7.224   8.302  68.650  1.00  0.00    -0.087 A  
HETATM   10  C   UNL     1      -6.516   7.792  69.733  1.00  0.00    -0.034 A  
HETATM   11  O   UNL     1      -5.308   7.183  69.567  1.00  0.00    -0.015 OA 
HETATM   12  C   UNL     1      -7.027   7.875  71.024  1.00  0.00    -0.049 A  
HETATM   13  C   UNL     1      -8.280   8.457  71.237  1.00  0.00    -0.161 A  
HETATM   14  H   UNL     1      -4.824   6.834  70.306  1.00  0.00     0.000 HD 
ENDBRANCH   5   7
ENDBRANCH   4   5
ENDBRANCH   3   4
ENDBRANCH   2   3
TORSDOF 4
ENDMDL
MODEL      226
REMARK 921   NORMALIZED FREE ENERGY PREDICTED BY IDOCK:   -1.97 KCAL/MOL
REMARK 922        TOTAL FREE ENERGY PREDICTED BY IDOCK:   -2.86 KCAL/MOL
REMARK 923 INTER-LIGAND FREE ENERGY PREDICTED BY IDOCK:   -2.68 KCAL/MOL
REMARK 924 INTRA-LIGAND FREE ENERGY PREDICTED BY IDOCK:   -0.18 KCAL/MOL
REMARK 927      BINDING AFFINITY PREDICTED BY RF-SCORE:    0.00 PKD
ROOT
HETATM    1  C   UNL     1      -9.809   5.574  68.472  1.00  0.00    -0.193 C  
HETATM    2  C   UNL     1      -9.252   6.598  67.495  1.00  0.00    -0.114 C  
ENDROOT
BRANCH   2   3
HETATM    3  C   UNL     1      -9.972   7.931  67.654  1.00  0.00    -0.181 C  
BRANCH   3   4
HETATM    4  O   UNL     1      -9.060   9.003  67.925  1.00  0.00    -0.135 OA 
BRANCH   4   5
HETATM    5  C   UNL     1      -9.511   9.970  68.763  1.00  0.00    -0.162 C  
HETATM    6  O   UNL     1      -9.845   9.820  69.926  1.00  0.00    -0.216 OA 
BRANCH   5   7
HETATM    7  C   UNL     1      -9.469  11.296  68.084  1.00  0.00    -0.184 A  
HETATM    8  C   UNL     1     -10.307  11.596  66.998  1.00  0.00    -0.248 A  
HETATM    9  C   UNL     1     -10.172  12.809  66.316  1.00  0.00    -0.264 A  
HETATM   10  C   UNL     1      -9.202  13.719  66.726  1.00  0.00    -0.244 A  
HETATM   11  O   UNL     1      -9.020  14.902  66.073  1.00  0.00    -0.484 OA 
HETATM   12  C   UNL     1      -8.376  13.444  67.811  1.00  0.00    -0.178 A  
HETATM   13  C   UNL     1      -8.502  12.226  68.487  1.00  0.00    -0.077 A  
HETATM   14  H   UNL     1      -8.357  15.523  66.352  1.00  0.00     0.000 HD 
ENDBRANCH   5   7
ENDBRANCH   4   5
ENDBRANCH   3   4
ENDBRANCH   2   3
TORSDOF 4
ENDMDL
MODEL      227
REMARK 921   NORMALIZED FREE ENERGY PREDICTED BY IDOCK:   -1.92 KCAL/MOL
REMARK 922        TOTAL FREE ENERGY PREDICTED BY IDOCK:   -2.79 KCAL/MOL
REMARK 923 INTER-LIGAND FREE ENERGY PREDICTED BY IDOCK:   -2.54 KCAL/MOL
REMARK 924 INTRA-LIGAND FREE ENERGY PREDICTED BY IDOCK:   -0.25 KCAL/MOL
REMARK 927      BINDING AFFINITY PREDICTED BY RF-SCORE:    0.00 PKD
ROOT
HETATM    1  C   UNL     1      -9.680   5.595  69.902  1.00  0.00    -0.222 C  
HETATM    2  C   UNL     1     -10.661   6.247  68.940  1.00  0.00    -0.357 C  
ENDROOT
BRANCH   2   3
HETATM    3  C   UNL     1     -11.019   7.649  69.415  1.00  0.00    -0.057 C  
BRANCH   3   4
HETATM    4  O   UNL     1     -10.751   8.638  68.412  1.00  0.00    -0.160 OA 
BRANCH   4   5
HETATM    5  C   UNL     1     -10.329   9.845  68.866  1.00  0.00    -0.205 C  
HETATM    6  O   UNL     1     -10.817  10.483  69.784  1.00  0.00    -0.256 OA 
BRANCH   5   7
HETATM    7  C   UNL     1      -9.104  10.268  68.130  1.00  0.00    -0.136 A  
HETATM    8  C   UNL     1      -8.211  11.211  68.662  1.00  0.00    -0.152 A  
HETATM    9  C   UNL     1      -7.128  11.665  67.903  1.00  0.00    -0.081 A  
HETATM   10  C   UNL     1      -6.939  11.169  66.617  1.00  0.00    -0.142 A  
HETATM   11  O   UNL     1      -5.910  11.603  65.834  1.00  0.00    -0.495 OA 
HETATM   12  C   UNL     1      -7.805  10.220  66.082  1.00  0.00    -0.129 A  
HETATM   13  C   UNL     1      -8.895   9.774  66.835  1.00  0.00    -0.150 A  
HETATM   14  H   UNL     1      -5.781  11.264  64.956  1.00  0.00     0.000 HD 
ENDBRANCH   5   7
ENDBRANCH   4   5
ENDBRANCH   3   4
ENDBRANCH   2   3
TORSDOF 4
ENDMDL
MODEL      228
REMARK 921   NORMALIZED FREE ENERGY PREDICTED BY IDOCK:   -1.89 KCAL/MOL
REMARK 922        TOTAL FREE ENERGY PREDICTED BY IDOCK:   -2.76 KCAL/MOL
REMARK 923 INTER-LIGAND FREE ENERGY PREDICTED BY IDOCK:   -2.91 KCAL/MOL
REMARK 924 INTRA-LIGAND FREE ENERGY PREDICTED BY IDOCK:    0.15 KCAL/MOL
REMARK 927      BINDING AFFINITY PREDICTED BY RF-SCORE:    0.00 PKD
ROOT
HETATM    1  C   UNL     1      -8.294  10.677  68.170  1.00  0.00    -0.121 C  
HETATM    2  C   UNL     1      -9.629  11.210  68.670  1.00  0.00    -0.200 C  
ENDROOT
BRANCH   2   3
HETATM    3  C   UNL     1      -9.809  12.664  68.254  1.00  0.00    -0.227 C  
BRANCH   3   4
HETATM    4  O   UNL     1      -9.009  12.997  67.112  1.00  0.00    -0.207 OA 
BRANCH   4   5
HETATM    5  C   UNL     1      -8.022  13.904  67.322  1.00  0.00    -0.129 C  
HETATM    6  O   UNL     1      -6.823  13.698  67.245  1.00  0.00    -0.181 OA 
BRANCH   5   7
HETATM    7  C   UNL     1      -8.611  15.247  67.587  1.00  0.00    -0.178 A  
HETATM    8  C   UNL     1      -8.050  16.127  68.526  1.00  0.00    -0.181 A  
HETATM    9  C   UNL     1      -8.684  17.335  68.828  1.00  0.00    -0.232 A  
HETATM   10  C   UNL     1      -9.874  17.662  68.185  1.00  0.00    -0.318 A  
HETATM   11  O   UNL     1     -10.539  18.819  68.468  1.00  0.00    -0.381 OA 
HETATM   12  C   UNL     1     -10.433  16.809  67.239  1.00  0.00    -0.310 A  
HETATM   13  C   UNL     1      -9.807  15.595  66.944  1.00  0.00    -0.245 A  
HETATM   14  H   UNL     1     -11.351  19.042  68.030  1.00  0.00     0.000 HD 
ENDBRANCH   5   7
ENDBRANCH   4   5
ENDBRANCH   3   4
ENDBRANCH   2   3
TORSDOF 4
ENDMDL
MODEL      229
REMARK 921   NORMALIZED FREE ENERGY PREDICTED BY IDOCK:   -1.85 KCAL/MOL
REMARK 922        TOTAL FREE ENERGY PREDICTED BY IDOCK:   -2.71 KCAL/MOL
REMARK 923 INTER-LIGAND FREE ENERGY PREDICTED BY IDOCK:   -2.61 KCAL/MOL
REMARK 924 INTRA-LIGAND FREE ENERGY PREDICTED BY IDOCK:   -0.09 KCAL/MOL
REMARK 927      BINDING AFFINITY PREDICTED BY RF-SCORE:    0.00 PKD
ROOT
HETATM    1  C   UNL     1     -10.007   4.398  70.091  1.00  0.00    -0.249 C  
HETATM    2  C   UNL     1     -10.217   5.821  69.593  1.00  0.00    -0.299 C  
ENDROOT
BRANCH   2   3
HETATM    3  C   UNL     1      -9.145   6.192  68.577  1.00  0.00    -0.117 C  
BRANCH   3   4
HETATM    4  O   UNL     1      -8.250   7.191  69.084  1.00  0.00    -0.119 OA 
BRANCH   4   5
HETATM    5  C   UNL     1      -8.796   8.408  69.330  1.00  0.00    -0.142 C  
HETATM    6  O   UNL     1      -8.931   8.932  70.423  1.00  0.00    -0.152 OA 
BRANCH   5   7
HETATM    7  C   UNL     1      -9.147   9.079  68.047  1.00  0.00    -0.140 A  
HETATM    8  C   UNL     1     -10.326   9.828  67.903  1.00  0.00    -0.258 A  
HETATM    9  C   UNL     1     -10.679  10.358  66.659  1.00  0.00    -0.198 A  
HETATM   10  C   UNL     1      -9.848  10.142  65.564  1.00  0.00    -0.298 A  
HETATM   11  O   UNL     1     -10.168  10.620  64.327  1.00  0.00    -0.351 OA 
HETATM   12  C   UNL     1      -8.667   9.418  65.694  1.00  0.00    -0.179 A  
HETATM   13  C   UNL     1      -8.319   8.877  66.934  1.00  0.00    -0.112 A  
HETATM   14  H   UNL     1      -9.601  10.472  63.579  1.00  0.00     0.000 HD 
ENDBRANCH   5   7
ENDBRANCH   4   5
ENDBRANCH   3   4
ENDBRANCH   2   3
TORSDOF 4
ENDMDL
MODEL      230
REMARK 921   NORMALIZED FREE ENERGY PREDICTED BY IDOCK:   -1.80 KCAL/MOL
REMARK 922        TOTAL FREE ENERGY PREDICTED BY IDOCK:   -2.65 KCAL/MOL
REMARK 923 INTER-LIGAND FREE ENERGY PREDICTED BY IDOCK:   -2.78 KCAL/MOL
REMARK 924 INTRA-LIGAND FREE ENERGY PREDICTED BY IDOCK:    0.13 KCAL/MOL
REMARK 927      BINDING AFFINITY PREDICTED BY RF-SCORE:    0.00 PKD
ROOT
HETATM    1  C   UNL     1      -5.748   9.280  67.092  1.00  0.00    -0.045 C  
HETATM    2  C   UNL     1      -6.792   9.462  66.000  1.00  0.00    -0.089 C  
ENDROOT
BRANCH   2   3
HETATM    3  C   UNL     1      -8.037  10.135  66.562  1.00  0.00    -0.121 C  
BRANCH   3   4
HETATM    4  O   UNL     1      -7.942  11.564  66.511  1.00  0.00    -0.158 OA 
BRANCH   4   5
HETATM    5  C   UNL     1      -8.249  12.222  67.657  1.00  0.00    -0.166 C  
HETATM    6  O   UNL     1      -7.659  13.185  68.117  1.00  0.00    -0.117 OA 
BRANCH   5   7
HETATM    7  C   UNL     1      -9.485  11.650  68.260  1.00  0.00    -0.191 A  
HETATM    8  C   UNL     1     -10.762  12.123  67.916  1.00  0.00    -0.237 A  
HETATM    9  C   UNL     1     -11.895  11.638  68.574  1.00  0.00    -0.357 A  
HETATM   10  C   UNL     1     -11.749  10.678  69.570  1.00  0.00    -0.284 A  
HETATM   11  O   UNL     1     -12.826  10.197  70.255  1.00  0.00    -0.559 OA 
HETATM   12  C   UNL     1     -10.493  10.186  69.910  1.00  0.00    -0.322 A  
HETATM   13  C   UNL     1      -9.357  10.678  69.261  1.00  0.00    -0.136 A  
HETATM   14  H   UNL     1     -12.726   9.542  70.935  1.00  0.00     0.000 HD 
ENDBRANCH   5   7
ENDBRANCH   4   5
ENDBRANCH   3   4
ENDBRANCH   2   3
TORSDOF 4
ENDMDL
MODEL      231
REMARK 921   NORMALIZED FREE ENERGY PREDICTED BY IDOCK:   -1.78 KCAL/MOL
REMARK 922        TOTAL FREE ENERGY PREDICTED BY IDOCK:   -2.63 KCAL/MOL
REMARK 923 INTER-LIGAND FREE ENERGY PREDICTED BY IDOCK:   -2.40 KCAL/MOL
REMARK 924 INTRA-LIGAND FREE ENERGY PREDICTED BY IDOCK:   -0.22 KCAL/MOL
REMARK 927      BINDING AFFINITY PREDICTED BY RF-SCORE:    0.00 PKD
ROOT
HETATM    1  C   UNL     1      -8.181  10.632  68.253  1.00  0.00    -0.120 C  
HETATM    2  C   UNL     1      -9.430   9.900  67.783  1.00  0.00    -0.158 C  
ENDROOT
BRANCH   2   3
HETATM    3  C   UNL     1      -9.256   8.396  67.941  1.00  0.00    -0.135 C  
BRANCH   3   4
HETATM    4  O   UNL     1      -8.917   8.035  69.287  1.00  0.00    -0.147 OA 
BRANCH   4   5
HETATM    5  C   UNL     1      -8.639   6.724  69.499  1.00  0.00    -0.133 C  
HETATM    6  O   UNL     1      -7.938   6.012  68.799  1.00  0.00    -0.101 OA 
BRANCH   5   7
HETATM    7  C   UNL     1      -9.253   6.272  70.779  1.00  0.00    -0.160 A  
HETATM    8  C   UNL     1      -9.692   4.951  70.962  1.00  0.00    -0.252 A  
HETATM    9  C   UNL     1     -10.357   4.585  72.135  1.00  0.00    -0.233 A  
HETATM   10  C   UNL     1     -10.577   5.539  73.124  1.00  0.00    -0.247 A  
HETATM   11  O   UNL     1     -11.244   5.230  74.272  1.00  0.00    -0.326 OA 
HETATM   12  C   UNL     1     -10.132   6.848  72.965  1.00  0.00    -0.226 A  
HETATM   13  C   UNL     1      -9.477   7.219  71.787  1.00  0.00    -0.162 A  
HETATM   14  H   UNL     1     -11.394   5.881  74.947  1.00  0.00     0.000 HD 
ENDBRANCH   5   7
ENDBRANCH   4   5
ENDBRANCH   3   4
ENDBRANCH   2   3
TORSDOF 4
ENDMDL
MODEL      232
REMARK 921   NORMALIZED FREE ENERGY PREDICTED BY IDOCK:   -1.78 KCAL/MOL
REMARK 922        TOTAL FREE ENERGY PREDICTED BY IDOCK:   -2.62 KCAL/MOL
REMARK 923 INTER-LIGAND FREE ENERGY PREDICTED BY IDOCK:   -2.39 KCAL/MOL
REMARK 924 INTRA-LIGAND FREE ENERGY PREDICTED BY IDOCK:   -0.23 KCAL/MOL
REMARK 927      BINDING AFFINITY PREDICTED BY RF-SCORE:    0.00 PKD
ROOT
HETATM    1  C   UNL     1      -5.634   9.301  67.119  1.00  0.00    -0.041 C  
HETATM    2  C   UNL     1      -6.569   9.438  65.926  1.00  0.00    -0.076 C  
ENDROOT
BRANCH   2   3
HETATM    3  C   UNL     1      -7.936   9.937  66.377  1.00  0.00    -0.111 C  
BRANCH   3   4
HETATM    4  O   UNL     1      -7.988  11.369  66.441  1.00  0.00    -0.156 OA 
BRANCH   4   5
HETATM    5  C   UNL     1      -8.232  11.900  67.666  1.00  0.00    -0.148 C  
HETATM    6  O   UNL     1      -7.931  11.407  68.740  1.00  0.00    -0.143 OA 
BRANCH   5   7
HETATM    7  C   UNL     1      -8.862  13.243  67.524  1.00  0.00    -0.206 A  
HETATM    8  C   UNL     1      -8.095  14.400  67.312  1.00  0.00    -0.209 A  
HETATM    9  C   UNL     1      -8.706  15.657  67.287  1.00  0.00    -0.213 A  
HETATM   10  C   UNL     1     -10.083  15.752  67.468  1.00  0.00    -0.245 A  
HETATM   11  O   UNL     1     -10.715  16.960  67.476  1.00  0.00    -0.329 OA 
HETATM   12  C   UNL     1     -10.859  14.613  67.660  1.00  0.00    -0.284 A  
HETATM   13  C   UNL     1     -10.248  13.356  67.698  1.00  0.00    -0.228 A  
HETATM   14  H   UNL     1     -11.654  17.025  67.600  1.00  0.00     0.000 HD 
ENDBRANCH   5   7
ENDBRANCH   4   5
ENDBRANCH   3   4
ENDBRANCH   2   3
TORSDOF 4
ENDMDL
MODEL      233
REMARK 921   NORMALIZED FREE ENERGY PREDICTED BY IDOCK:   -1.74 KCAL/MOL
REMARK 922        TOTAL FREE ENERGY PREDICTED BY IDOCK:   -2.57 KCAL/MOL
REMARK 923 INTER-LIGAND FREE ENERGY PREDICTED BY IDOCK:   -2.18 KCAL/MOL
REMARK 924 INTRA-LIGAND FREE ENERGY PREDICTED BY IDOCK:   -0.39 KCAL/MOL
REMARK 927      BINDING AFFINITY PREDICTED BY RF-SCORE:    0.00 PKD
ROOT
HETATM    1  C   UNL     1     -10.873   6.362  67.022  1.00  0.00    -0.464 C  
HETATM    2  C   UNL     1     -11.265   7.082  68.304  1.00  0.00     0.014 C  
ENDROOT
BRANCH   2   3
HETATM    3  C   UNL     1     -10.220   6.849  69.386  1.00  0.00    -0.182 C  
BRANCH   3   4
HETATM    4  O   UNL     1      -9.005   7.562  69.120  1.00  0.00    -0.136 OA 
BRANCH   4   5
HETATM    5  C   UNL     1      -9.139   8.884  68.846  1.00  0.00    -0.140 C  
HETATM    6  O   UNL     1      -9.556   9.740  69.607  1.00  0.00    -0.193 OA 
BRANCH   5   7
HETATM    7  C   UNL     1      -8.620   9.178  67.481  1.00  0.00    -0.116 A  
HETATM    8  C   UNL     1      -7.376   8.696  67.044  1.00  0.00    -0.080 A  
HETATM    9  C   UNL     1      -6.870   9.075  65.797  1.00  0.00    -0.076 A  
HETATM   10  C   UNL     1      -7.613   9.930  64.989  1.00  0.00    -0.134 A  
HETATM   11  O   UNL     1      -7.146  10.345  63.777  1.00  0.00    -0.277 OA 
HETATM   12  C   UNL     1      -8.856  10.402  65.400  1.00  0.00    -0.197 A  
HETATM   13  C   UNL     1      -9.358  10.034  66.652  1.00  0.00    -0.202 A  
HETATM   14  H   UNL     1      -7.652  10.929  63.226  1.00  0.00     0.000 HD 
ENDBRANCH   5   7
ENDBRANCH   4   5
ENDBRANCH   3   4
ENDBRANCH   2   3
TORSDOF 4
ENDMDL
MODEL      234
REMARK 921   NORMALIZED FREE ENERGY PREDICTED BY IDOCK:   -1.73 KCAL/MOL
REMARK 922        TOTAL FREE ENERGY PREDICTED BY IDOCK:   -2.57 KCAL/MOL
REMARK 923 INTER-LIGAND FREE ENERGY PREDICTED BY IDOCK:   -2.36 KCAL/MOL
REMARK 924 INTRA-LIGAND FREE ENERGY PREDICTED BY IDOCK:   -0.21 KCAL/MOL
REMARK 927      BINDING AFFINITY PREDICTED BY RF-SCORE:    0.00 PKD
ROOT
HETATM    1  C   UNL     1      -8.215   5.588  64.458  1.00  0.00    -0.129 C  
HETATM    2  C   UNL     1      -7.143   5.294  65.496  1.00  0.00    -0.067 C  
ENDROOT
BRANCH   2   3
HETATM    3  C   UNL     1      -7.734   4.519  66.666  1.00  0.00    -0.094 C  
BRANCH   3   4
HETATM    4  O   UNL     1      -8.611   5.332  67.457  1.00  0.00    -0.106 OA 
BRANCH   4   5
HETATM    5  C   UNL     1      -8.429   5.271  68.800  1.00  0.00    -0.092 C  
HETATM    6  O   UNL     1      -7.466   4.796  69.377  1.00  0.00    -0.052 OA 
BRANCH   5   7
HETATM    7  C   UNL     1      -9.554   5.953  69.500  1.00  0.00    -0.174 A  
HETATM    8  C   UNL     1     -10.225   5.354  70.578  1.00  0.00    -0.326 A  
HETATM    9  C   UNL     1     -11.342   5.972  71.146  1.00  0.00    -0.300 A  
HETATM   10  C   UNL     1     -11.781   7.190  70.638  1.00  0.00    -0.307 A  
HETATM   11  O   UNL     1     -12.882   7.815  71.146  1.00  0.00    -0.488 OA 
HETATM   12  C   UNL     1     -11.117   7.806  69.582  1.00  0.00    -0.052 A  
HETATM   13  C   UNL     1     -10.006   7.183  69.005  1.00  0.00    -0.174 A  
HETATM   14  H   UNL     1     -13.182   8.647  70.799  1.00  0.00     0.000 HD 
ENDBRANCH   5   7
ENDBRANCH   4   5
ENDBRANCH   3   4
ENDBRANCH   2   3
TORSDOF 4
ENDMDL
MODEL      235
REMARK 921   NORMALIZED FREE ENERGY PREDICTED BY IDOCK:   -1.72 KCAL/MOL
REMARK 922        TOTAL FREE ENERGY PREDICTED BY IDOCK:   -2.55 KCAL/MOL
REMARK 923 INTER-LIGAND FREE ENERGY PREDICTED BY IDOCK:   -2.52 KCAL/MOL
REMARK 924 INTRA-LIGAND FREE ENERGY PREDICTED BY IDOCK:   -0.03 KCAL/MOL
REMARK 927      BINDING AFFINITY PREDICTED BY RF-SCORE:    0.00 PKD
ROOT
HETATM    1  C   UNL     1      -5.900   9.636  66.608  1.00  0.00    -0.055 C  
HETATM    2  C   UNL     1      -7.274   9.268  66.068  1.00  0.00    -0.091 C  
ENDROOT
BRANCH   2   3
HETATM    3  C   UNL     1      -8.134   8.665  67.171  1.00  0.00    -0.100 C  
BRANCH   3   4
HETATM    4  O   UNL     1      -9.516   8.596  66.795  1.00  0.00    -0.162 OA 
BRANCH   4   5
HETATM    5  C   UNL     1     -10.393   9.189  67.643  1.00  0.00    -0.255 C  
HETATM    6  O   UNL     1     -11.279   9.968  67.336  1.00  0.00    -0.205 OA 
BRANCH   5   7
HETATM    7  C   UNL     1     -10.181   8.688  69.030  1.00  0.00    -0.218 A  
HETATM    8  C   UNL     1     -10.565   7.394  69.415  1.00  0.00    -0.231 A  
HETATM    9  C   UNL     1     -10.449   6.990  70.748  1.00  0.00    -0.231 A  
HETATM   10  C   UNL     1      -9.944   7.880  71.691  1.00  0.00    -0.181 A  
HETATM   11  O   UNL     1      -9.837   7.536  73.006  1.00  0.00    -0.191 OA 
HETATM   12  C   UNL     1      -9.542   9.160  71.322  1.00  0.00    -0.331 A  
HETATM   13  C   UNL     1      -9.669   9.570  69.991  1.00  0.00    -0.271 A  
HETATM   14  H   UNL     1      -9.493   8.143  73.649  1.00  0.00     0.000 HD 
ENDBRANCH   5   7
ENDBRANCH   4   5
ENDBRANCH   3   4
ENDBRANCH   2   3
TORSDOF 4
ENDMDL
MODEL      236
REMARK 921   NORMALIZED FREE ENERGY PREDICTED BY IDOCK:   -1.70 KCAL/MOL
REMARK 922        TOTAL FREE ENERGY PREDICTED BY IDOCK:   -2.52 KCAL/MOL
REMARK 923 INTER-LIGAND FREE ENERGY PREDICTED BY IDOCK:   -2.33 KCAL/MOL
REMARK 924 INTRA-LIGAND FREE ENERGY PREDICTED BY IDOCK:   -0.20 KCAL/MOL
REMARK 927      BINDING AFFINITY PREDICTED BY RF-SCORE:    0.00 PKD
ROOT
HETATM    1  C   UNL     1     -10.736   8.458  72.259  1.00  0.00    -0.417 C  
HETATM    2  C   UNL     1     -10.025   9.174  71.120  1.00  0.00    -0.377 C  
ENDROOT
BRANCH   2   3
HETATM    3  C   UNL     1     -10.678   8.833  69.788  1.00  0.00    -0.218 C  
BRANCH   3   4
HETATM    4  O   UNL     1     -10.081   7.680  69.179  1.00  0.00    -0.183 OA 
BRANCH   4   5
HETATM    5  C   UNL     1     -10.076   7.659  67.822  1.00  0.00    -0.186 C  
HETATM    6  O   UNL     1     -10.736   8.374  67.087  1.00  0.00    -0.291 OA 
BRANCH   5   7
HETATM    7  C   UNL     1      -9.071   6.677  67.329  1.00  0.00    -0.119 A  
HETATM    8  C   UNL     1      -8.446   5.764  68.193  1.00  0.00    -0.109 A  
HETATM    9  C   UNL     1      -7.431   4.926  67.721  1.00  0.00    -0.079 A  
HETATM   10  C   UNL     1      -7.050   5.000  66.385  1.00  0.00    -0.072 A  
HETATM   11  O   UNL     1      -6.048   4.219  65.889  1.00  0.00    -0.029 OA 
HETATM   12  C   UNL     1      -7.672   5.887  65.512  1.00  0.00    -0.091 A  
HETATM   13  C   UNL     1      -8.678   6.734  65.985  1.00  0.00    -0.155 A  
HETATM   14  H   UNL     1      -5.787   4.270  64.977  1.00  0.00     0.000 HD 
ENDBRANCH   5   7
ENDBRANCH   4   5
ENDBRANCH   3   4
ENDBRANCH   2   3
TORSDOF 4
ENDMDL
MODEL      237
REMARK 921   NORMALIZED FREE ENERGY PREDICTED BY IDOCK:   -1.69 KCAL/MOL
REMARK 922        TOTAL FREE ENERGY PREDICTED BY IDOCK:   -2.51 KCAL/MOL
REMARK 923 INTER-LIGAND FREE ENERGY PREDICTED BY IDOCK:   -2.09 KCAL/MOL
REMARK 924 INTRA-LIGAND FREE ENERGY PREDICTED BY IDOCK:   -0.42 KCAL/MOL
REMARK 927      BINDING AFFINITY PREDICTED BY RF-SCORE:    0.00 PKD
ROOT
HETATM    1  C   UNL     1     -10.746   6.291  67.440  1.00  0.00    -0.409 C  
HETATM    2  C   UNL     1     -11.050   6.567  68.905  1.00  0.00    -0.371 C  
ENDROOT
BRANCH   2   3
HETATM    3  C   UNL     1     -10.692   5.358  69.759  1.00  0.00    -0.210 C  
BRANCH   3   4
HETATM    4  O   UNL     1      -9.368   4.882  69.484  1.00  0.00    -0.110 OA 
BRANCH   4   5
HETATM    5  C   UNL     1      -8.569   4.690  70.564  1.00  0.00    -0.094 C  
HETATM    6  O   UNL     1      -8.281   3.617  71.068  1.00  0.00    -0.064 OA 
BRANCH   5   7
HETATM    7  C   UNL     1      -8.006   5.991  71.020  1.00  0.00    -0.116 A  
HETATM    8  C   UNL     1      -7.205   6.784  70.183  1.00  0.00    -0.076 A  
HETATM    9  C   UNL     1      -6.606   7.947  70.674  1.00  0.00    -0.037 A  
HETATM   10  C   UNL     1      -6.815   8.318  71.998  1.00  0.00    -0.085 A  
HETATM   11  O   UNL     1      -6.229   9.431  72.524  1.00  0.00    -0.302 OA 
HETATM   12  C   UNL     1      -7.621   7.553  72.836  1.00  0.00    -0.105 A  
HETATM   13  C   UNL     1      -8.211   6.382  72.350  1.00  0.00    -0.106 A  
HETATM   14  H   UNL     1      -6.372   9.684  73.429  1.00  0.00     0.000 HD 
ENDBRANCH   5   7
ENDBRANCH   4   5
ENDBRANCH   3   4
ENDBRANCH   2   3
TORSDOF 4
ENDMDL
MODEL      238
REMARK 921   NORMALIZED FREE ENERGY PREDICTED BY IDOCK:   -1.68 KCAL/MOL
REMARK 922        TOTAL FREE ENERGY PREDICTED BY IDOCK:   -2.51 KCAL/MOL
REMARK 923 INTER-LIGAND FREE ENERGY PREDICTED BY IDOCK:   -2.07 KCAL/MOL
REMARK 924 INTRA-LIGAND FREE ENERGY PREDICTED BY IDOCK:   -0.43 KCAL/MOL
REMARK 927      BINDING AFFINITY PREDICTED BY RF-SCORE:    0.00 PKD
ROOT
HETATM    1  C   UNL     1      -7.094   9.427  68.016  1.00  0.00    -0.081 C  
HETATM    2  C   UNL     1      -8.579   9.725  67.867  1.00  0.00    -0.125 C  
ENDROOT
BRANCH   2   3
HETATM    3  C   UNL     1      -8.940   9.905  66.399  1.00  0.00    -0.147 C  
BRANCH   3   4
HETATM    4  O   UNL     1      -9.552   8.729  65.851  1.00  0.00    -0.240 OA 
BRANCH   4   5
HETATM    5  C   UNL     1      -8.715   7.850  65.245  1.00  0.00     0.001 C  
HETATM    6  O   UNL     1      -7.886   8.114  64.391  1.00  0.00    -0.121 OA 
BRANCH   5   7
HETATM    7  C   UNL     1      -8.888   6.492  65.833  1.00  0.00    -0.131 A  
HETATM    8  C   UNL     1      -8.358   5.348  65.217  1.00  0.00    -0.142 A  
HETATM    9  C   UNL     1      -8.625   4.078  65.737  1.00  0.00    -0.110 A  
HETATM   10  C   UNL     1      -9.416   3.958  66.875  1.00  0.00    -0.202 A  
HETATM   11  O   UNL     1      -9.722   2.737  67.401  1.00  0.00    -0.383 OA 
HETATM   12  C   UNL     1      -9.934   5.084  67.508  1.00  0.00    -0.209 A  
HETATM   13  C   UNL     1      -9.678   6.353  66.982  1.00  0.00    -0.182 A  
HETATM   14  H   UNL     1     -10.263   2.655  68.177  1.00  0.00     0.000 HD 
ENDBRANCH   5   7
ENDBRANCH   4   5
ENDBRANCH   3   4
ENDBRANCH   2   3
TORSDOF 4
ENDMDL
MODEL      239
REMARK 921   NORMALIZED FREE ENERGY PREDICTED BY IDOCK:   -1.68 KCAL/MOL
REMARK 922        TOTAL FREE ENERGY PREDICTED BY IDOCK:   -2.50 KCAL/MOL
REMARK 923 INTER-LIGAND FREE ENERGY PREDICTED BY IDOCK:   -2.10 KCAL/MOL
REMARK 924 INTRA-LIGAND FREE ENERGY PREDICTED BY IDOCK:   -0.40 KCAL/MOL
REMARK 927      BINDING AFFINITY PREDICTED BY RF-SCORE:    0.00 PKD
ROOT
HETATM    1  C   UNL     1      -7.430   5.233  69.343  1.00  0.00    -0.065 C  
HETATM    2  C   UNL     1      -6.608   6.318  68.662  1.00  0.00    -0.055 C  
ENDROOT
BRANCH   2   3
HETATM    3  C   UNL     1      -6.916   7.679  69.271  1.00  0.00    -0.060 C  
BRANCH   3   4
HETATM    4  O   UNL     1      -7.360   7.569  70.630  1.00  0.00    -0.066 OA 
BRANCH   4   5
HETATM    5  C   UNL     1      -8.502   8.234  70.939  1.00  0.00    -0.132 C  
HETATM    6  O   UNL     1      -8.708   9.426  70.782  1.00  0.00    -0.217 OA 
BRANCH   5   7
HETATM    7  C   UNL     1      -9.532   7.279  71.434  1.00  0.00    -0.165 A  
HETATM    8  C   UNL     1     -10.590   6.846  70.620  1.00  0.00    -0.248 A  
HETATM    9  C   UNL     1     -11.598   6.032  71.144  1.00  0.00    -0.167 A  
HETATM   10  C   UNL     1     -11.541   5.649  72.481  1.00  0.00    -0.246 A  
HETATM   11  O   UNL     1     -12.516   4.877  73.039  1.00  0.00    -0.263 OA 
HETATM   12  C   UNL     1     -10.489   6.054  73.296  1.00  0.00    -0.258 A  
HETATM   13  C   UNL     1      -9.487   6.878  72.776  1.00  0.00    -0.161 A  
HETATM   14  H   UNL     1     -12.478   4.615  73.952  1.00  0.00     0.000 HD 
ENDBRANCH   5   7
ENDBRANCH   4   5
ENDBRANCH   3   4
ENDBRANCH   2   3
TORSDOF 4
ENDMDL
MODEL      240
REMARK 921   NORMALIZED FREE ENERGY PREDICTED BY IDOCK:   -1.65 KCAL/MOL
REMARK 922        TOTAL FREE ENERGY PREDICTED BY IDOCK:   -2.47 KCAL/MOL
REMARK 923 INTER-LIGAND FREE ENERGY PREDICTED BY IDOCK:   -2.26 KCAL/MOL
REMARK 924 INTRA-LIGAND FREE ENERGY PREDICTED BY IDOCK:   -0.21 KCAL/MOL
REMARK 927      BINDING AFFINITY PREDICTED BY RF-SCORE:    0.00 PKD
ROOT
HETATM    1  C   UNL     1      -7.543   9.526  67.649  1.00  0.00    -0.094 C  
HETATM    2  C   UNL     1      -7.863   8.090  68.038  1.00  0.00    -0.126 C  
ENDROOT
BRANCH   2   3
HETATM    3  C   UNL     1      -9.242   8.007  68.678  1.00  0.00    -0.143 C  
BRANCH   3   4
HETATM    4  O   UNL     1      -9.478   6.726  69.277  1.00  0.00    -0.143 OA 
BRANCH   4   5
HETATM    5  C   UNL     1     -10.457   6.680  70.215  1.00  0.00    -0.209 C  
HETATM    6  O   UNL     1     -11.503   7.306  70.199  1.00  0.00    -0.248 OA 
BRANCH   5   7
HETATM    7  C   UNL     1     -10.117   5.673  71.260  1.00  0.00    -0.261 A  
HETATM    8  C   UNL     1     -10.894   5.520  72.419  1.00  0.00    -0.301 A  
HETATM    9  C   UNL     1     -10.490   4.641  73.428  1.00  0.00    -0.266 A  
HETATM   10  C   UNL     1      -9.315   3.913  73.272  1.00  0.00    -0.108 A  
HETATM   11  O   UNL     1      -8.872   3.065  74.243  1.00  0.00    -0.078 OA 
HETATM   12  C   UNL     1      -8.543   4.041  72.121  1.00  0.00    -0.114 A  
HETATM   13  C   UNL     1      -8.939   4.928  71.116  1.00  0.00    -0.167 A  
HETATM   14  H   UNL     1      -8.069   2.568  74.136  1.00  0.00     0.000 HD 
ENDBRANCH   5   7
ENDBRANCH   4   5
ENDBRANCH   3   4
ENDBRANCH   2   3
TORSDOF 4
ENDMDL
MODEL      241
REMARK 921   NORMALIZED FREE ENERGY PREDICTED BY IDOCK:   -1.65 KCAL/MOL
REMARK 922        TOTAL FREE ENERGY PREDICTED BY IDOCK:   -2.46 KCAL/MOL
REMARK 923 INTER-LIGAND FREE ENERGY PREDICTED BY IDOCK:   -2.27 KCAL/MOL
REMARK 924 INTRA-LIGAND FREE ENERGY PREDICTED BY IDOCK:   -0.19 KCAL/MOL
REMARK 927      BINDING AFFINITY PREDICTED BY RF-SCORE:    0.00 PKD
ROOT
HETATM    1  C   UNL     1      -7.080   4.966  65.018  1.00  0.00    -0.062 C  
HETATM    2  C   UNL     1      -8.273   5.508  65.791  1.00  0.00    -0.124 C  
ENDROOT
BRANCH   2   3
HETATM    3  C   UNL     1      -7.936   5.631  67.271  1.00  0.00    -0.102 C  
BRANCH   3   4
HETATM    4  O   UNL     1      -9.010   6.219  68.018  1.00  0.00    -0.116 OA 
BRANCH   4   5
HETATM    5  C   UNL     1      -8.750   7.422  68.588  1.00  0.00    -0.128 C  
HETATM    6  O   UNL     1      -8.438   8.446  68.004  1.00  0.00    -0.129 OA 
BRANCH   5   7
HETATM    7  C   UNL     1      -8.979   7.350  70.059  1.00  0.00    -0.144 A  
HETATM    8  C   UNL     1      -8.965   6.128  70.750  1.00  0.00    -0.145 A  
HETATM    9  C   UNL     1      -9.286   6.082  72.109  1.00  0.00    -0.155 A  
HETATM   10  C   UNL     1      -9.614   7.259  72.775  1.00  0.00    -0.158 A  
HETATM   11  O   UNL     1      -9.958   7.255  74.094  1.00  0.00    -0.416 OA 
HETATM   12  C   UNL     1      -9.614   8.481  72.108  1.00  0.00    -0.382 A  
HETATM   13  C   UNL     1      -9.305   8.527  70.746  1.00  0.00    -0.206 A  
HETATM   14  H   UNL     1     -10.182   8.059  74.549  1.00  0.00     0.000 HD 
ENDBRANCH   5   7
ENDBRANCH   4   5
ENDBRANCH   3   4
ENDBRANCH   2   3
TORSDOF 4
ENDMDL
MODEL      242
REMARK 921   NORMALIZED FREE ENERGY PREDICTED BY IDOCK:   -1.63 KCAL/MOL
REMARK 922        TOTAL FREE ENERGY PREDICTED BY IDOCK:   -2.44 KCAL/MOL
REMARK 923 INTER-LIGAND FREE ENERGY PREDICTED BY IDOCK:   -2.61 KCAL/MOL
REMARK 924 INTRA-LIGAND FREE ENERGY PREDICTED BY IDOCK:    0.16 KCAL/MOL
REMARK 927      BINDING AFFINITY PREDICTED BY RF-SCORE:    0.00 PKD
ROOT
HETATM    1  C   UNL     1      -6.814   5.792  65.233  1.00  0.00    -0.051 C  
HETATM    2  C   UNL     1      -7.994   6.437  65.944  1.00  0.00    -0.117 C  
ENDROOT
BRANCH   2   3
HETATM    3  C   UNL     1      -7.557   7.013  67.284  1.00  0.00    -0.108 C  
BRANCH   3   4
HETATM    4  O   UNL     1      -8.428   6.611  68.349  1.00  0.00    -0.124 OA 
BRANCH   4   5
HETATM    5  C   UNL     1      -8.485   7.445  69.418  1.00  0.00    -0.133 C  
HETATM    6  O   UNL     1      -7.779   7.394  70.412  1.00  0.00    -0.089 OA 
BRANCH   5   7
HETATM    7  C   UNL     1      -9.494   8.514  69.180  1.00  0.00    -0.154 A  
HETATM    8  C   UNL     1     -10.024   8.758  67.903  1.00  0.00    -0.231 A  
HETATM    9  C   UNL     1     -10.891   9.835  67.692  1.00  0.00    -0.301 A  
HETATM   10  C   UNL     1     -11.229  10.660  68.760  1.00  0.00    -0.279 A  
HETATM   11  O   UNL     1     -12.050  11.736  68.593  1.00  0.00    -0.406 OA 
HETATM   12  C   UNL     1     -10.726  10.421  70.035  1.00  0.00    -0.321 A  
HETATM   13  C   UNL     1      -9.850   9.352  70.246  1.00  0.00    -0.290 A  
HETATM   14  H   UNL     1     -12.281  12.299  69.322  1.00  0.00     0.000 HD 
ENDBRANCH   5   7
ENDBRANCH   4   5
ENDBRANCH   3   4
ENDBRANCH   2   3
TORSDOF 4
ENDMDL
MODEL      243
REMARK 921   NORMALIZED FREE ENERGY PREDICTED BY IDOCK:   -1.62 KCAL/MOL
REMARK 922        TOTAL FREE ENERGY PREDICTED BY IDOCK:   -2.42 KCAL/MOL
REMARK 923 INTER-LIGAND FREE ENERGY PREDICTED BY IDOCK:   -2.25 KCAL/MOL
REMARK 924 INTRA-LIGAND FREE ENERGY PREDICTED BY IDOCK:   -0.17 KCAL/MOL
REMARK 927      BINDING AFFINITY PREDICTED BY RF-SCORE:    0.00 PKD
ROOT
HETATM    1  C   UNL     1      -6.293  10.540  66.364  1.00  0.00    -0.100 C  
HETATM    2  C   UNL     1      -6.593   9.126  66.838  1.00  0.00    -0.068 C  
ENDROOT
BRANCH   2   3
HETATM    3  C   UNL     1      -8.082   8.964  67.116  1.00  0.00    -0.103 C  
BRANCH   3   4
HETATM    4  O   UNL     1      -8.473   7.585  67.150  1.00  0.00    -0.119 OA 
BRANCH   4   5
HETATM    5  C   UNL     1      -9.737   7.336  67.575  1.00  0.00    -0.145 C  
HETATM    6  O   UNL     1     -10.766   7.732  67.054  1.00  0.00    -0.347 OA 
BRANCH   5   7
HETATM    7  C   UNL     1      -9.710   6.420  68.750  1.00  0.00    -0.135 A  
HETATM    8  C   UNL     1      -9.232   5.104  68.650  1.00  0.00    -0.150 A  
HETATM    9  C   UNL     1      -9.316   4.238  69.744  1.00  0.00    -0.231 A  
HETATM   10  C   UNL     1      -9.872   4.692  70.935  1.00  0.00    -0.202 A  
HETATM   11  O   UNL     1      -9.996   3.872  72.018  1.00  0.00    -0.167 OA 
HETATM   12  C   UNL     1     -10.333   5.999  71.056  1.00  0.00    -0.270 A  
HETATM   13  C   UNL     1     -10.262   6.863  69.960  1.00  0.00    -0.211 A  
HETATM   14  H   UNL     1     -10.376   4.182  72.831  1.00  0.00     0.000 HD 
ENDBRANCH   5   7
ENDBRANCH   4   5
ENDBRANCH   3   4
ENDBRANCH   2   3
TORSDOF 4
ENDMDL
MODEL      244
REMARK 921   NORMALIZED FREE ENERGY PREDICTED BY IDOCK:   -1.54 KCAL/MOL
REMARK 922        TOTAL FREE ENERGY PREDICTED BY IDOCK:   -2.33 KCAL/MOL
REMARK 923 INTER-LIGAND FREE ENERGY PREDICTED BY IDOCK:   -2.20 KCAL/MOL
REMARK 924 INTRA-LIGAND FREE ENERGY PREDICTED BY IDOCK:   -0.13 KCAL/MOL
REMARK 927      BINDING AFFINITY PREDICTED BY RF-SCORE:    0.00 PKD
ROOT
HETATM    1  C   UNL     1     -10.669   7.073  66.918  1.00  0.00    -0.376 C  
HETATM    2  C   UNL     1     -10.549   8.587  66.823  1.00  0.00    -0.227 C  
ENDROOT
BRANCH   2   3
HETATM    3  C   UNL     1     -11.031   9.240  68.111  1.00  0.00    -0.002 C  
BRANCH   3   4
HETATM    4  O   UNL     1     -11.445  10.597  67.901  1.00  0.00    -0.432 OA 
BRANCH   4   5
HETATM    5  C   UNL     1     -10.867  11.526  68.704  1.00  0.00    -0.212 C  
HETATM    6  O   UNL     1     -11.424  12.175  69.573  1.00  0.00    -0.279 OA 
BRANCH   5   7
HETATM    7  C   UNL     1      -9.403  11.595  68.435  1.00  0.00    -0.191 A  
HETATM    8  C   UNL     1      -8.892  12.223  67.288  1.00  0.00    -0.190 A  
HETATM    9  C   UNL     1      -7.523  12.181  67.011  1.00  0.00    -0.086 A  
HETATM   10  C   UNL     1      -6.669  11.516  67.885  1.00  0.00    -0.065 A  
HETATM   11  O   UNL     1      -5.330  11.429  67.639  1.00  0.00    -0.044 OA 
HETATM   12  C   UNL     1      -7.157  10.904  69.035  1.00  0.00    -0.095 A  
HETATM   13  C   UNL     1      -8.528  10.934  69.307  1.00  0.00    -0.006 A  
HETATM   14  H   UNL     1      -4.747  10.974  68.235  1.00  0.00     0.000 HD 
ENDBRANCH   5   7
ENDBRANCH   4   5
ENDBRANCH   3   4
ENDBRANCH   2   3
TORSDOF 4
ENDMDL
MODEL      245
REMARK 921   NORMALIZED FREE ENERGY PREDICTED BY IDOCK:   -1.48 KCAL/MOL
REMARK 922        TOTAL FREE ENERGY PREDICTED BY IDOCK:   -2.25 KCAL/MOL
REMARK 923 INTER-LIGAND FREE ENERGY PREDICTED BY IDOCK:   -2.73 KCAL/MOL
REMARK 924 INTRA-LIGAND FREE ENERGY PREDICTED BY IDOCK:    0.48 KCAL/MOL
REMARK 927      BINDING AFFINITY PREDICTED BY RF-SCORE:    0.00 PKD
ROOT
HETATM    1  C   UNL     1     -12.672  14.445  69.790  1.00  0.00    -0.025 C  
HETATM    2  C   UNL     1     -11.834  13.184  69.944  1.00  0.00    -0.378 C  
ENDROOT
BRANCH   2   3
HETATM    3  C   UNL     1     -12.716  12.003  70.326  1.00  0.00     0.152 C  
BRANCH   3   4
HETATM    4  O   UNL     1     -11.946  10.889  70.795  1.00  0.00    -0.325 OA 
BRANCH   4   5
HETATM    5  C   UNL     1     -10.967  10.451  69.965  1.00  0.00    -0.308 C  
HETATM    6  O   UNL     1     -10.173  11.146  69.353  1.00  0.00    -0.145 OA 
BRANCH   5   7
HETATM    7  C   UNL     1     -10.931   8.961  69.958  1.00  0.00    -0.217 A  
HETATM    8  C   UNL     1     -11.374   8.207  71.056  1.00  0.00    -0.293 A  
HETATM    9  C   UNL     1     -11.231   6.816  71.060  1.00  0.00    -0.335 A  
HETATM   10  C   UNL     1     -10.652   6.185  69.964  1.00  0.00    -0.261 A  
HETATM   11  O   UNL     1     -10.470   4.834  69.939  1.00  0.00    -0.181 OA 
HETATM   12  C   UNL     1     -10.224   6.917  68.861  1.00  0.00    -0.184 A  
HETATM   13  C   UNL     1     -10.355   8.308  68.860  1.00  0.00    -0.230 A  
HETATM   14  H   UNL     1     -10.074   4.402  69.191  1.00  0.00     0.000 HD 
ENDBRANCH   5   7
ENDBRANCH   4   5
ENDBRANCH   3   4
ENDBRANCH   2   3
TORSDOF 4
ENDMDL
MODEL      246
REMARK 921   NORMALIZED FREE ENERGY PREDICTED BY IDOCK:   -1.40 KCAL/MOL
REMARK 922        TOTAL FREE ENERGY PREDICTED BY IDOCK:   -2.15 KCAL/MOL
REMARK 923 INTER-LIGAND FREE ENERGY PREDICTED BY IDOCK:   -2.00 KCAL/MOL
REMARK 924 INTRA-LIGAND FREE ENERGY PREDICTED BY IDOCK:   -0.16 KCAL/MOL
REMARK 927      BINDING AFFINITY PREDICTED BY RF-SCORE:    0.00 PKD
ROOT
HETATM    1  C   UNL     1      -8.362   7.499  65.873  1.00  0.00    -0.140 C  
HETATM    2  C   UNL     1      -9.213   8.759  65.802  1.00  0.00    -0.269 C  
ENDROOT
BRANCH   2   3
HETATM    3  C   UNL     1     -10.402   8.650  66.747  1.00  0.00    -0.266 C  
BRANCH   3   4
HETATM    4  O   UNL     1      -9.997   8.311  68.080  1.00  0.00    -0.170 OA 
BRANCH   4   5
HETATM    5  C   UNL     1     -10.217   7.028  68.460  1.00  0.00    -0.172 C  
HETATM    6  O   UNL     1     -11.073   6.280  68.018  1.00  0.00    -0.333 OA 
BRANCH   5   7
HETATM    7  C   UNL     1      -9.195   6.609  69.460  1.00  0.00    -0.143 A  
HETATM    8  C   UNL     1      -8.834   7.433  70.538  1.00  0.00    -0.148 A  
HETATM    9  C   UNL     1      -7.799   7.058  71.398  1.00  0.00    -0.095 A  
HETATM   10  C   UNL     1      -7.131   5.856  71.182  1.00  0.00    -0.073 A  
HETATM   11  O   UNL     1      -6.099   5.465  71.982  1.00  0.00    -0.031 OA 
HETATM   12  C   UNL     1      -7.489   5.020  70.129  1.00  0.00    -0.059 A  
HETATM   13  C   UNL     1      -8.516   5.399  69.260  1.00  0.00    -0.099 A  
HETATM   14  H   UNL     1      -5.643   4.645  71.834  1.00  0.00     0.000 HD 
ENDBRANCH   5   7
ENDBRANCH   4   5
ENDBRANCH   3   4
ENDBRANCH   2   3
TORSDOF 4
ENDMDL
MODEL      247
REMARK 921   NORMALIZED FREE ENERGY PREDICTED BY IDOCK:   -1.30 KCAL/MOL
REMARK 922        TOTAL FREE ENERGY PREDICTED BY IDOCK:   -2.03 KCAL/MOL
REMARK 923 INTER-LIGAND FREE ENERGY PREDICTED BY IDOCK:   -1.93 KCAL/MOL
REMARK 924 INTRA-LIGAND FREE ENERGY PREDICTED BY IDOCK:   -0.10 KCAL/MOL
REMARK 927      BINDING AFFINITY PREDICTED BY RF-SCORE:    0.00 PKD
ROOT
HETATM    1  C   UNL     1      -7.839   4.843  64.149  1.00  0.00    -0.092 C  
HETATM    2  C   UNL     1      -9.029   5.088  65.065  1.00  0.00    -0.131 C  
ENDROOT
BRANCH   2   3
HETATM    3  C   UNL     1      -8.666   4.755  66.506  1.00  0.00    -0.111 C  
BRANCH   3   4
HETATM    4  O   UNL     1      -9.646   5.245  67.431  1.00  0.00    -0.123 OA 
BRANCH   4   5
HETATM    5  C   UNL     1      -9.177   6.024  68.438  1.00  0.00    -0.114 C  
HETATM    6  O   UNL     1      -8.803   7.181  68.341  1.00  0.00    -0.128 OA 
BRANCH   5   7
HETATM    7  C   UNL     1      -9.255   5.290  69.732  1.00  0.00    -0.167 A  
HETATM    8  C   UNL     1      -9.354   3.891  69.782  1.00  0.00    -0.242 A  
HETATM    9  C   UNL     1      -9.530   3.239  71.006  1.00  0.00    -0.228 A  
HETATM   10  C   UNL     1      -9.600   3.988  72.176  1.00  0.00    -0.149 A  
HETATM   11  O   UNL     1      -9.797   3.395  73.388  1.00  0.00    -0.107 OA 
HETATM   12  C   UNL     1      -9.485   5.375  72.145  1.00  0.00    -0.164 A  
HETATM   13  C   UNL     1      -9.321   6.029  70.921  1.00  0.00    -0.175 A  
HETATM   14  H   UNL     1      -9.845   3.907  74.187  1.00  0.00     0.000 HD 
ENDBRANCH   5   7
ENDBRANCH   4   5
ENDBRANCH   3   4
ENDBRANCH   2   3
TORSDOF 4
ENDMDL
MODEL      248
REMARK 921   NORMALIZED FREE ENERGY PREDICTED BY IDOCK:   -1.27 KCAL/MOL
REMARK 922        TOTAL FREE ENERGY PREDICTED BY IDOCK:   -1.99 KCAL/MOL
REMARK 923 INTER-LIGAND FREE ENERGY PREDICTED BY IDOCK:   -1.79 KCAL/MOL
REMARK 924 INTRA-LIGAND FREE ENERGY PREDICTED BY IDOCK:   -0.20 KCAL/MOL
REMARK 927      BINDING AFFINITY PREDICTED BY RF-SCORE:    0.00 PKD
ROOT
HETATM    1  C   UNL     1     -10.885  17.771  67.609  1.00  0.00    -0.234 C  
HETATM    2  C   UNL     1      -9.764  18.299  68.492  1.00  0.00    -0.379 C  
ENDROOT
BRANCH   2   3
HETATM    3  C   UNL     1      -8.421  18.156  67.788  1.00  0.00    -0.248 C  
BRANCH   3   4
HETATM    4  O   UNL     1      -7.325  18.199  68.712  1.00  0.00    -0.274 OA 
BRANCH   4   5
HETATM    5  C   UNL     1      -6.296  17.354  68.454  1.00  0.00    -0.175 C  
HETATM    6  O   UNL     1      -5.129  17.667  68.289  1.00  0.00    -0.140 OA 
BRANCH   5   7
HETATM    7  C   UNL     1      -6.774  15.944  68.479  1.00  0.00    -0.123 A  
HETATM    8  C   UNL     1      -6.571  15.075  67.395  1.00  0.00    -0.063 A  
HETATM    9  C   UNL     1      -7.122  13.791  67.406  1.00  0.00    -0.093 A  
HETATM   10  C   UNL     1      -7.869  13.377  68.504  1.00  0.00    -0.115 A  
HETATM   11  O   UNL     1      -8.445  12.142  68.545  1.00  0.00    -0.237 OA 
HETATM   12  C   UNL     1      -8.064  14.219  69.595  1.00  0.00     0.492 A  
HETATM   13  C   UNL     1      -7.525  15.508  69.580  1.00  0.00    -0.200 A  
HETATM   14  H   UNL     1      -8.956  11.859  69.294  1.00  0.00     0.000 HD 
ENDBRANCH   5   7
ENDBRANCH   4   5
ENDBRANCH   3   4
ENDBRANCH   2   3
TORSDOF 4
ENDMDL
MODEL      249
REMARK 921   NORMALIZED FREE ENERGY PREDICTED BY IDOCK:   -1.04 KCAL/MOL
REMARK 922        TOTAL FREE ENERGY PREDICTED BY IDOCK:   -1.71 KCAL/MOL
REMARK 923 INTER-LIGAND FREE ENERGY PREDICTED BY IDOCK:   -2.32 KCAL/MOL
REMARK 924 INTRA-LIGAND FREE ENERGY PREDICTED BY IDOCK:    0.60 KCAL/MOL
REMARK 927      BINDING AFFINITY PREDICTED BY RF-SCORE:    0.00 PKD
ROOT
HETATM    1  C   UNL     1     -12.607   8.462  72.103  1.00  0.00    -0.412 C  
HETATM    2  C   UNL     1     -11.310   7.809  71.649  1.00  0.00    -0.291 C  
ENDROOT
BRANCH   2   3
HETATM    3  C   UNL     1     -11.603   6.555  70.837  1.00  0.00    -0.359 C  
BRANCH   3   4
HETATM    4  O   UNL     1     -11.016   6.614  69.530  1.00  0.00    -0.263 OA 
BRANCH   4   5
HETATM    5  C   UNL     1     -10.499   7.814  69.164  1.00  0.00    -0.211 C  
HETATM    6  O   UNL     1     -11.034   8.902  69.296  1.00  0.00    -0.144 OA 
BRANCH   5   7
HETATM    7  C   UNL     1      -9.116   7.636  68.639  1.00  0.00    -0.135 A  
HETATM    8  C   UNL     1      -8.044   7.297  69.481  1.00  0.00    -0.129 A  
HETATM    9  C   UNL     1      -6.742   7.240  68.977  1.00  0.00    -0.059 A  
HETATM   10  C   UNL     1      -6.516   7.515  67.632  1.00  0.00    -0.057 A  
HETATM   11  O   UNL     1      -5.259   7.496  67.105  1.00  0.00    -0.027 OA 
HETATM   12  C   UNL     1      -7.570   7.835  66.781  1.00  0.00    -0.098 A  
HETATM   13  C   UNL     1      -8.872   7.905  67.286  1.00  0.00    -0.131 A  
HETATM   14  H   UNL     1      -5.105   7.684  66.187  1.00  0.00     0.000 HD 
ENDBRANCH   5   7
ENDBRANCH   4   5
ENDBRANCH   3   4
ENDBRANCH   2   3
TORSDOF 4
ENDMDL
MODEL      250
REMARK 921   NORMALIZED FREE ENERGY PREDICTED BY IDOCK:   35.69 KCAL/MOL
REMARK 922        TOTAL FREE ENERGY PREDICTED BY IDOCK:   43.61 KCAL/MOL
REMARK 923 INTER-LIGAND FREE ENERGY PREDICTED BY IDOCK:   41.41 KCAL/MOL
REMARK 924 INTRA-LIGAND FREE ENERGY PREDICTED BY IDOCK:    2.21 KCAL/MOL
REMARK 927      BINDING AFFINITY PREDICTED BY RF-SCORE:    0.00 PKD
ROOT
HETATM    1  C   UNL     1     -11.579  17.488  67.753  1.00  0.00     0.952 C  
HETATM    2  C   UNL     1     -10.311  17.895  68.488  1.00  0.00    -0.365 C  
ENDROOT
BRANCH   2   3
HETATM    3  C   UNL     1      -9.814  16.752  69.364  1.00  0.00    -0.095 C  
BRANCH   3   4
HETATM    4  O   UNL     1      -9.188  17.230  70.563  1.00  0.00     2.673 OA 
BRANCH   4   5
HETATM    5  C   UNL     1      -9.099  16.339  71.582  1.00  0.00     7.027 C  
HETATM    6  O   UNL     1      -8.623  16.549  72.685  1.00  0.00    13.323 OA 
BRANCH   5   7
HETATM    7  C   UNL     1      -9.750  15.055  71.198  1.00  0.00     1.957 A  
HETATM    8  C   UNL     1     -10.246  14.162  72.160  1.00  0.00     5.639 A  
HETATM    9  C   UNL     1     -10.758  12.920  71.773  1.00  0.00     7.617 A  
HETATM   10  C   UNL     1     -10.777  12.578  70.425  1.00  0.00     2.203 A  
HETATM   11  O   UNL     1     -11.243  11.367  70.007  1.00  0.00    -0.450 OA 
HETATM   12  C   UNL     1     -10.306  13.460  69.457  1.00  0.00     0.508 A  
HETATM   13  C   UNL     1      -9.783  14.698  69.843  1.00  0.00     0.416 A  
HETATM   14  H   UNL     1     -11.256  11.133  69.086  1.00  0.00     0.000 HD 
ENDBRANCH   5   7
ENDBRANCH   4   5
ENDBRANCH   3   4
ENDBRANCH   2   3
TORSDOF 4
ENDMDL
