MODEL        1
REMARK 921   NORMALIZED FREE ENERGY PREDICTED BY IDOCK:   -6.98 KCAL/MOL
REMARK 922        TOTAL FREE ENERGY PREDICTED BY IDOCK:  -12.48 KCAL/MOL
REMARK 923 INTER-LIGAND FREE ENERGY PREDICTED BY IDOCK:  -11.47 KCAL/MOL
REMARK 924 INTRA-LIGAND FREE ENERGY PREDICTED BY IDOCK:   -1.02 KCAL/MOL
REMARK 927      BINDING AFFINITY PREDICTED BY RF-SCORE:    0.00 PKD
ROOT
HETATM    1  C   UNL     1     -10.075  10.961  64.951  1.00  0.00    -0.374 C  
HETATM    2  C   UNL     1     -11.287  11.860  64.757  1.00  0.00    -0.344 C  
ENDROOT
BRANCH   2   3
HETATM    3  C   UNL     1     -11.341  12.417  63.335  1.00  0.00    -0.433 C  
BRANCH   3   4
HETATM    4  N   UNL     1     -12.305  13.514  63.273  1.00  0.00    -1.017 NA 
HETATM    5  H   UNL     1     -13.237  13.188  63.014  1.00  0.00     0.000 HD 
BRANCH   4   6
HETATM    6  C   UNL     1     -12.316  14.253  64.543  1.00  0.00    -0.410 C  
BRANCH   6   7
HETATM    7  C   UNL     1     -11.165  15.273  64.599  1.00  0.00    -0.356 C  
HETATM    8  O   UNL     1     -11.436  16.387  63.734  1.00  0.00    -1.590 OA 
HETATM    9  H   UNL     1     -10.725  17.015  63.769  1.00  0.00     0.000 HD 
BRANCH   7  10
HETATM   10  C   UNL     1     -10.952  15.781  66.030  1.00  0.00    -0.177 C  
BRANCH  10  11
HETATM   11  O   UNL     1      -9.756  16.582  66.084  1.00  0.00    -0.288 OA 
BRANCH  11  12
HETATM   12  C   UNL     1      -9.861  17.736  66.818  1.00  0.00    -0.320 A  
HETATM   13  C   UNL     1      -9.410  17.750  68.154  1.00  0.00    -0.281 A  
HETATM   14  C   UNL     1     -10.469  18.885  66.291  1.00  0.00    -0.510 A  
HETATM   15  C   UNL     1      -9.521  18.934  68.903  1.00  0.00    -0.356 A  
HETATM   16  C   UNL     1     -10.588  20.046  67.054  1.00  0.00    -0.452 A  
HETATM   17  C   UNL     1     -10.111  20.074  68.357  1.00  0.00    -0.513 A  
BRANCH  13  18
HETATM   18  C   UNL     1      -8.788  16.545  68.795  1.00  0.00    -0.255 C  
HETATM   19  O   UNL     1      -7.579  16.346  68.701  1.00  0.00    -0.174 OA 
BRANCH  18  20
HETATM   20  C   UNL     1      -9.658  15.616  69.632  1.00  0.00    -0.260 C  
BRANCH  20  21
HETATM   21  C   UNL     1     -11.116  16.062  69.666  1.00  0.00    -0.331 C  
BRANCH  21  22
HETATM   22  C   UNL     1     -11.929  15.301  70.686  1.00  0.00    -0.386 A  
HETATM   23  C   UNL     1     -12.401  15.940  71.841  1.00  0.00    -0.541 A  
HETATM   24  C   UNL     1     -13.173  15.241  72.772  1.00  0.00    -0.583 A  
HETATM   25  C   UNL     1     -13.475  13.898  72.560  1.00  0.00    -0.676 A  
HETATM   26  C   UNL     1     -12.999  13.250  71.422  1.00  0.00    -0.398 A  
HETATM   27  C   UNL     1     -12.226  13.946  70.490  1.00  0.00    -0.443 A  
ENDBRANCH  21  22
ENDBRANCH  20  21
ENDBRANCH  18  20
ENDBRANCH  13  18
ENDBRANCH  11  12
ENDBRANCH  10  11
ENDBRANCH   7  10
ENDBRANCH   6   7
ENDBRANCH   4   6
ENDBRANCH   3   4
ENDBRANCH   2   3
TORSDOF 11
ENDMDL
MODEL        2
REMARK 921   NORMALIZED FREE ENERGY PREDICTED BY IDOCK:   -6.73 KCAL/MOL
REMARK 922        TOTAL FREE ENERGY PREDICTED BY IDOCK:  -12.07 KCAL/MOL
REMARK 923 INTER-LIGAND FREE ENERGY PREDICTED BY IDOCK:  -10.97 KCAL/MOL
REMARK 924 INTRA-LIGAND FREE ENERGY PREDICTED BY IDOCK:   -1.11 KCAL/MOL
REMARK 927      BINDING AFFINITY PREDICTED BY RF-SCORE:    0.00 PKD
ROOT
HETATM    1  C   UNL     1      -8.026  19.603  66.243  1.00  0.00    -0.339 C  
HETATM    2  C   UNL     1      -8.970  18.688  67.007  1.00  0.00    -0.289 C  
ENDROOT
BRANCH   2   3
HETATM    3  C   UNL     1      -8.841  17.241  66.534  1.00  0.00    -0.261 C  
BRANCH   3   4
HETATM    4  N   UNL     1      -9.833  16.974  65.494  1.00  0.00    -0.544 NA 
HETATM    5  H   UNL     1      -9.447  17.100  64.558  1.00  0.00     0.000 HD 
BRANCH   4   6
HETATM    6  C   UNL     1     -10.410  15.634  65.673  1.00  0.00    -0.385 C  
BRANCH   6   7
HETATM    7  C   UNL     1     -11.750  15.505  64.927  1.00  0.00    -0.118 C  
HETATM    8  O   UNL     1     -11.769  16.362  63.775  1.00  0.00    -1.553 OA 
HETATM    9  H   UNL     1     -12.596  16.282  63.315  1.00  0.00     0.000 HD 
BRANCH   7  10
HETATM   10  C   UNL     1     -11.994  14.057  64.487  1.00  0.00    -0.448 C  
BRANCH  10  11
HETATM   11  O   UNL     1     -12.108  13.213  65.649  1.00  0.00    -0.399 OA 
BRANCH  11  12
HETATM   12  C   UNL     1     -11.303  12.103  65.645  1.00  0.00    -0.347 A  
HETATM   13  C   UNL     1     -10.980  11.477  66.866  1.00  0.00    -0.350 A  
HETATM   14  C   UNL     1     -10.736  11.615  64.458  1.00  0.00    -0.378 A  
HETATM   15  C   UNL     1     -10.153  10.341  66.858  1.00  0.00    -0.274 A  
HETATM   16  C   UNL     1      -9.902  10.498  64.468  1.00  0.00    -0.401 A  
HETATM   17  C   UNL     1      -9.613   9.858  65.666  1.00  0.00    -0.320 A  
BRANCH  13  18
HETATM   18  C   UNL     1     -11.517  11.970  68.177  1.00  0.00    -0.322 C  
HETATM   19  O   UNL     1     -12.378  11.330  68.776  1.00  0.00    -0.518 OA 
BRANCH  18  20
HETATM   20  C   UNL     1     -10.924  13.229  68.797  1.00  0.00    -0.294 C  
BRANCH  20  21
HETATM   21  C   UNL     1     -11.970  14.318  69.011  1.00  0.00    -0.360 C  
BRANCH  21  22
HETATM   22  C   UNL     1     -12.209  14.608  70.474  1.00  0.00    -0.389 A  
HETATM   23  C   UNL     1     -13.035  13.773  71.241  1.00  0.00    -0.409 A  
HETATM   24  C   UNL     1     -13.236  14.028  72.599  1.00  0.00    -0.606 A  
HETATM   25  C   UNL     1     -12.619  15.122  73.202  1.00  0.00    -0.585 A  
HETATM   26  C   UNL     1     -11.807  15.965  72.446  1.00  0.00    -0.618 A  
HETATM   27  C   UNL     1     -11.606  15.713  71.087  1.00  0.00    -0.462 A  
ENDBRANCH  21  22
ENDBRANCH  20  21
ENDBRANCH  18  20
ENDBRANCH  13  18
ENDBRANCH  11  12
ENDBRANCH  10  11
ENDBRANCH   7  10
ENDBRANCH   6   7
ENDBRANCH   4   6
ENDBRANCH   3   4
ENDBRANCH   2   3
TORSDOF 11
ENDMDL
MODEL        3
REMARK 921   NORMALIZED FREE ENERGY PREDICTED BY IDOCK:   -6.69 KCAL/MOL
REMARK 922        TOTAL FREE ENERGY PREDICTED BY IDOCK:  -12.01 KCAL/MOL
REMARK 923 INTER-LIGAND FREE ENERGY PREDICTED BY IDOCK:   -9.99 KCAL/MOL
REMARK 924 INTRA-LIGAND FREE ENERGY PREDICTED BY IDOCK:   -2.02 KCAL/MOL
REMARK 927      BINDING AFFINITY PREDICTED BY RF-SCORE:    0.00 PKD
ROOT
HETATM    1  C   UNL     1     -13.468  13.287  72.277  1.00  0.00    -0.679 C  
HETATM    2  C   UNL     1     -14.001  14.671  71.939  1.00  0.00    -0.573 C  
ENDROOT
BRANCH   2   3
HETATM    3  C   UNL     1     -12.968  15.487  71.165  1.00  0.00    -0.496 C  
BRANCH   3   4
HETATM    4  N   UNL     1     -12.905  15.016  69.783  1.00  0.00    -0.600 NA 
HETATM    5  H   UNL     1     -13.244  15.719  69.125  1.00  0.00     0.000 HD 
BRANCH   4   6
HETATM    6  C   UNL     1     -11.542  14.573  69.457  1.00  0.00    -0.307 C  
BRANCH   6   7
HETATM    7  C   UNL     1     -10.959  15.391  68.291  1.00  0.00    -0.288 C  
HETATM    8  O   UNL     1      -9.583  15.044  68.071  1.00  0.00    -0.204 OA 
HETATM    9  H   UNL     1      -9.224  15.549  67.352  1.00  0.00     0.000 HD 
BRANCH   7  10
HETATM   10  C   UNL     1     -11.755  15.152  67.003  1.00  0.00    -0.110 C  
BRANCH  10  11
HETATM   11  O   UNL     1     -12.251  13.799  66.987  1.00  0.00    -0.401 OA 
BRANCH  11  12
HETATM   12  C   UNL     1     -11.940  13.078  65.863  1.00  0.00    -0.435 A  
HETATM   13  C   UNL     1     -11.044  11.993  65.962  1.00  0.00    -0.364 A  
HETATM   14  C   UNL     1     -12.441  13.436  64.602  1.00  0.00    -0.385 A  
HETATM   15  C   UNL     1     -10.726  11.258  64.807  1.00  0.00    -0.352 A  
HETATM   16  C   UNL     1     -12.101  12.708  63.463  1.00  0.00    -0.648 A  
HETATM   17  C   UNL     1     -11.248  11.617  63.564  1.00  0.00    -0.462 A  
BRANCH  13  18
HETATM   18  C   UNL     1     -10.439  11.580  67.270  1.00  0.00    -0.212 C  
HETATM   19  O   UNL     1      -9.439  12.150  67.700  1.00  0.00    -0.178 OA 
BRANCH  18  20
HETATM   20  C   UNL     1     -11.126  10.502  68.099  1.00  0.00    -0.346 C  
BRANCH  20  21
HETATM   21  C   UNL     1     -11.890  11.082  69.285  1.00  0.00    -0.411 C  
BRANCH  21  22
HETATM   22  C   UNL     1     -11.931  10.137  70.463  1.00  0.00    -0.400 A  
HETATM   23  C   UNL     1     -13.143   9.859  71.112  1.00  0.00    -0.453 A  
HETATM   24  C   UNL     1     -13.182   8.967  72.185  1.00  0.00    -0.504 A  
HETATM   25  C   UNL     1     -12.013   8.349  72.623  1.00  0.00    -0.346 A  
HETATM   26  C   UNL     1     -10.802   8.629  71.993  1.00  0.00    -0.430 A  
HETATM   27  C   UNL     1     -10.759   9.522  70.921  1.00  0.00    -0.403 A  
ENDBRANCH  21  22
ENDBRANCH  20  21
ENDBRANCH  18  20
ENDBRANCH  13  18
ENDBRANCH  11  12
ENDBRANCH  10  11
ENDBRANCH   7  10
ENDBRANCH   6   7
ENDBRANCH   4   6
ENDBRANCH   3   4
ENDBRANCH   2   3
TORSDOF 11
ENDMDL
MODEL        4
REMARK 921   NORMALIZED FREE ENERGY PREDICTED BY IDOCK:   -6.67 KCAL/MOL
REMARK 922        TOTAL FREE ENERGY PREDICTED BY IDOCK:  -11.98 KCAL/MOL
REMARK 923 INTER-LIGAND FREE ENERGY PREDICTED BY IDOCK:  -10.65 KCAL/MOL
REMARK 924 INTRA-LIGAND FREE ENERGY PREDICTED BY IDOCK:   -1.33 KCAL/MOL
REMARK 927      BINDING AFFINITY PREDICTED BY RF-SCORE:    0.00 PKD
ROOT
HETATM    1  C   UNL     1     -10.230  11.055  64.498  1.00  0.00    -0.406 C  
HETATM    2  C   UNL     1     -10.752  12.001  63.427  1.00  0.00    -0.475 C  
ENDROOT
BRANCH   2   3
HETATM    3  C   UNL     1     -12.244  12.275  63.612  1.00  0.00    -0.567 C  
BRANCH   3   4
HETATM    4  N   UNL     1     -12.520  13.685  63.345  1.00  0.00    -1.016 NA 
HETATM    5  H   UNL     1     -13.391  13.812  62.829  1.00  0.00     0.000 HD 
BRANCH   4   6
HETATM    6  C   UNL     1     -12.511  14.451  64.600  1.00  0.00    -0.345 C  
BRANCH   6   7
HETATM    7  C   UNL     1     -11.231  15.299  64.720  1.00  0.00    -0.396 C  
HETATM    8  O   UNL     1     -11.381  16.538  64.010  1.00  0.00    -1.475 OA 
HETATM    9  H   UNL     1     -10.591  17.061  64.084  1.00  0.00     0.000 HD 
BRANCH   7  10
HETATM   10  C   UNL     1     -10.904  15.591  66.189  1.00  0.00    -0.295 C  
BRANCH  10  11
HETATM   11  O   UNL     1     -10.778  14.350  66.910  1.00  0.00    -0.286 OA 
BRANCH  11  12
HETATM   12  C   UNL     1     -11.301  14.358  68.178  1.00  0.00    -0.294 A  
HETATM   13  C   UNL     1     -11.549  13.133  68.832  1.00  0.00    -0.354 A  
HETATM   14  C   UNL     1     -11.658  15.556  68.814  1.00  0.00    -0.390 A  
HETATM   15  C   UNL     1     -12.086  13.145  70.130  1.00  0.00    -0.392 A  
HETATM   16  C   UNL     1     -12.209  15.550  70.096  1.00  0.00    -0.404 A  
HETATM   17  C   UNL     1     -12.418  14.347  70.756  1.00  0.00    -0.423 A  
BRANCH  13  18
HETATM   18  C   UNL     1     -11.229  11.814  68.195  1.00  0.00    -0.260 C  
HETATM   19  O   UNL     1     -11.993  11.322  67.368  1.00  0.00    -0.581 OA 
BRANCH  18  20
HETATM   20  C   UNL     1      -9.908  11.131  68.523  1.00  0.00    -0.199 C  
BRANCH  20  21
HETATM   21  C   UNL     1      -9.975   9.618  68.338  1.00  0.00    -0.178 C  
BRANCH  21  22
HETATM   22  C   UNL     1     -10.511   8.911  69.560  1.00  0.00    -0.229 A  
HETATM   23  C   UNL     1     -10.788   7.536  69.523  1.00  0.00    -0.184 A  
HETATM   24  C   UNL     1     -11.260   6.878  70.660  1.00  0.00    -0.346 A  
HETATM   25  C   UNL     1     -11.466   7.586  71.842  1.00  0.00    -0.307 A  
HETATM   26  C   UNL     1     -11.207   8.955  71.885  1.00  0.00    -0.447 A  
HETATM   27  C   UNL     1     -10.735   9.616  70.748  1.00  0.00    -0.401 A  
ENDBRANCH  21  22
ENDBRANCH  20  21
ENDBRANCH  18  20
ENDBRANCH  13  18
ENDBRANCH  11  12
ENDBRANCH  10  11
ENDBRANCH   7  10
ENDBRANCH   6   7
ENDBRANCH   4   6
ENDBRANCH   3   4
ENDBRANCH   2   3
TORSDOF 11
ENDMDL
MODEL        5
REMARK 921   NORMALIZED FREE ENERGY PREDICTED BY IDOCK:   -6.58 KCAL/MOL
REMARK 922        TOTAL FREE ENERGY PREDICTED BY IDOCK:  -11.83 KCAL/MOL
REMARK 923 INTER-LIGAND FREE ENERGY PREDICTED BY IDOCK:  -10.61 KCAL/MOL
REMARK 924 INTRA-LIGAND FREE ENERGY PREDICTED BY IDOCK:   -1.23 KCAL/MOL
REMARK 927      BINDING AFFINITY PREDICTED BY RF-SCORE:    0.00 PKD
ROOT
HETATM    1  C   UNL     1     -12.746  15.934  73.839  1.00  0.00    -0.727 C  
HETATM    2  C   UNL     1     -13.321  14.849  72.940  1.00  0.00    -0.576 C  
ENDROOT
BRANCH   2   3
HETATM    3  C   UNL     1     -14.111  15.454  71.781  1.00  0.00    -0.527 C  
BRANCH   3   4
HETATM    4  N   UNL     1     -13.278  15.482  70.580  1.00  0.00    -0.745 NA 
HETATM    5  H   UNL     1     -12.604  16.247  70.602  1.00  0.00     0.000 HD 
BRANCH   4   6
HETATM    6  C   UNL     1     -12.623  14.181  70.385  1.00  0.00    -0.332 C  
BRANCH   6   7
HETATM    7  C   UNL     1     -11.412  14.307  69.443  1.00  0.00    -0.292 C  
HETATM    8  O   UNL     1     -10.252  14.741  70.170  1.00  0.00    -0.460 OA 
HETATM    9  H   UNL     1      -9.505  14.818  69.588  1.00  0.00     0.000 HD 
BRANCH   7  10
HETATM   10  C   UNL     1     -11.111  12.969  68.757  1.00  0.00    -0.270 C  
BRANCH  10  11
HETATM   11  O   UNL     1     -11.914  12.847  67.567  1.00  0.00    -0.359 OA 
BRANCH  11  12
HETATM   12  C   UNL     1     -11.262  12.333  66.475  1.00  0.00    -0.324 A  
HETATM   13  C   UNL     1     -11.274  13.049  65.261  1.00  0.00    -0.316 A  
HETATM   14  C   UNL     1     -10.640  11.076  66.519  1.00  0.00    -0.310 A  
HETATM   15  C   UNL     1     -10.607  12.518  64.143  1.00  0.00    -0.425 A  
HETATM   16  C   UNL     1      -9.999  10.554  65.397  1.00  0.00    -0.353 A  
HETATM   17  C   UNL     1      -9.977  11.275  64.211  1.00  0.00    -0.347 A  
BRANCH  13  18
HETATM   18  C   UNL     1     -11.955  14.379  65.130  1.00  0.00    -0.391 C  
HETATM   19  O   UNL     1     -13.181  14.450  65.102  1.00  0.00    -0.602 OA 
BRANCH  18  20
HETATM   20  C   UNL     1     -11.111  15.647  65.116  1.00  0.00    -0.357 C  
BRANCH  20  21
HETATM   21  C   UNL     1     -10.321  15.832  66.408  1.00  0.00    -0.306 C  
BRANCH  21  22
HETATM   22  C   UNL     1     -10.281  17.273  66.859  1.00  0.00    -0.322 A  
HETATM   23  C   UNL     1     -10.181  17.590  68.222  1.00  0.00    -0.365 A  
HETATM   24  C   UNL     1     -10.120  18.922  68.636  1.00  0.00    -0.447 A  
HETATM   25  C   UNL     1     -10.163  19.948  67.695  1.00  0.00    -0.564 A  
HETATM   26  C   UNL     1     -10.276  19.644  66.340  1.00  0.00    -0.592 A  
HETATM   27  C   UNL     1     -10.338  18.312  65.923  1.00  0.00    -0.297 A  
ENDBRANCH  21  22
ENDBRANCH  20  21
ENDBRANCH  18  20
ENDBRANCH  13  18
ENDBRANCH  11  12
ENDBRANCH  10  11
ENDBRANCH   7  10
ENDBRANCH   6   7
ENDBRANCH   4   6
ENDBRANCH   3   4
ENDBRANCH   2   3
TORSDOF 11
ENDMDL
MODEL        6
REMARK 921   NORMALIZED FREE ENERGY PREDICTED BY IDOCK:   -6.49 KCAL/MOL
REMARK 922        TOTAL FREE ENERGY PREDICTED BY IDOCK:  -11.68 KCAL/MOL
REMARK 923 INTER-LIGAND FREE ENERGY PREDICTED BY IDOCK:   -8.93 KCAL/MOL
REMARK 924 INTRA-LIGAND FREE ENERGY PREDICTED BY IDOCK:   -2.75 KCAL/MOL
REMARK 927      BINDING AFFINITY PREDICTED BY RF-SCORE:    0.00 PKD
ROOT
HETATM    1  C   UNL     1     -13.776   9.457  72.044  1.00  0.00    -0.466 C  
HETATM    2  C   UNL     1     -13.049  10.759  71.742  1.00  0.00    -0.573 C  
ENDROOT
BRANCH   2   3
HETATM    3  C   UNL     1     -12.473  10.756  70.327  1.00  0.00    -0.317 C  
BRANCH   3   4
HETATM    4  N   UNL     1     -11.475  11.816  70.200  1.00  0.00    -0.510 NA 
HETATM    5  H   UNL     1     -10.810  11.625  69.451  1.00  0.00     0.000 HD 
BRANCH   4   6
HETATM    6  C   UNL     1     -12.135  13.118  70.030  1.00  0.00    -0.305 C  
BRANCH   6   7
HETATM    7  C   UNL     1     -11.350  14.011  69.052  1.00  0.00    -0.281 C  
HETATM    8  O   UNL     1      -9.965  13.634  69.026  1.00  0.00    -0.421 OA 
HETATM    9  H   UNL     1      -9.482  14.185  68.422  1.00  0.00     0.000 HD 
BRANCH   7  10
HETATM   10  C   UNL     1     -11.931  13.913  67.636  1.00  0.00    -0.368 C  
BRANCH  10  11
HETATM   11  O   UNL     1     -12.145  12.529  67.299  1.00  0.00    -0.490 OA 
BRANCH  11  12
HETATM   12  C   UNL     1     -11.659  12.145  66.075  1.00  0.00    -0.358 A  
HETATM   13  C   UNL     1     -10.648  11.165  66.009  1.00  0.00    -0.298 A  
HETATM   14  C   UNL     1     -12.096  12.756  64.890  1.00  0.00    -0.490 A  
HETATM   15  C   UNL     1     -10.150  10.776  64.753  1.00  0.00    -0.396 A  
HETATM   16  C   UNL     1     -11.579  12.372  63.653  1.00  0.00    -0.580 A  
HETATM   17  C   UNL     1     -10.610  11.380  63.583  1.00  0.00    -0.476 A  
BRANCH  13  18
HETATM   18  C   UNL     1     -10.104  10.500  67.238  1.00  0.00    -0.201 C  
HETATM   19  O   UNL     1      -9.374  11.119  68.008  1.00  0.00    -0.156 OA 
BRANCH  18  20
HETATM   20  C   UNL     1     -10.534   9.075  67.564  1.00  0.00    -0.338 C  
BRANCH  20  21
HETATM   21  C   UNL     1      -9.510   8.343  68.425  1.00  0.00    -0.145 C  
BRANCH  21  22
HETATM   22  C   UNL     1     -10.054   7.982  69.787  1.00  0.00    -0.196 A  
HETATM   23  C   UNL     1     -11.010   6.965  69.926  1.00  0.00    -0.318 A  
HETATM   24  C   UNL     1     -11.494   6.616  71.188  1.00  0.00    -0.370 A  
HETATM   25  C   UNL     1     -11.032   7.281  72.321  1.00  0.00    -0.286 A  
HETATM   26  C   UNL     1     -10.092   8.301  72.192  1.00  0.00    -0.344 A  
HETATM   27  C   UNL     1      -9.608   8.654  70.931  1.00  0.00    -0.252 A  
ENDBRANCH  21  22
ENDBRANCH  20  21
ENDBRANCH  18  20
ENDBRANCH  13  18
ENDBRANCH  11  12
ENDBRANCH  10  11
ENDBRANCH   7  10
ENDBRANCH   6   7
ENDBRANCH   4   6
ENDBRANCH   3   4
ENDBRANCH   2   3
TORSDOF 11
ENDMDL
MODEL        7
REMARK 921   NORMALIZED FREE ENERGY PREDICTED BY IDOCK:   -6.49 KCAL/MOL
REMARK 922        TOTAL FREE ENERGY PREDICTED BY IDOCK:  -11.68 KCAL/MOL
REMARK 923 INTER-LIGAND FREE ENERGY PREDICTED BY IDOCK:   -9.66 KCAL/MOL
REMARK 924 INTRA-LIGAND FREE ENERGY PREDICTED BY IDOCK:   -2.02 KCAL/MOL
REMARK 927      BINDING AFFINITY PREDICTED BY RF-SCORE:    0.00 PKD
ROOT
HETATM    1  C   UNL     1     -12.589   8.620  72.175  1.00  0.00    -0.451 C  
HETATM    2  C   UNL     1     -11.809   9.633  71.352  1.00  0.00    -0.484 C  
ENDROOT
BRANCH   2   3
HETATM    3  C   UNL     1     -10.496   9.039  70.843  1.00  0.00    -0.254 C  
BRANCH   3   4
HETATM    4  N   UNL     1     -10.012   9.820  69.706  1.00  0.00    -0.222 NA 
HETATM    5  H   UNL     1      -9.645  10.727  69.995  1.00  0.00     0.000 HD 
BRANCH   4   6
HETATM    6  C   UNL     1      -9.023   9.046  68.943  1.00  0.00    -0.140 C  
BRANCH   6   7
HETATM    7  C   UNL     1      -9.590   8.617  67.578  1.00  0.00    -0.157 C  
HETATM    8  O   UNL     1     -11.026   8.645  67.598  1.00  0.00    -0.495 OA 
HETATM    9  H   UNL     1     -11.376   8.380  66.756  1.00  0.00     0.000 HD 
BRANCH   7  10
HETATM   10  C   UNL     1      -9.080   9.534  66.460  1.00  0.00    -0.151 C  
BRANCH  10  11
HETATM   11  O   UNL     1      -9.404  10.902  66.774  1.00  0.00    -0.162 OA 
BRANCH  11  12
HETATM   12  C   UNL     1     -10.299  11.499  65.923  1.00  0.00    -0.247 A  
HETATM   13  C   UNL     1     -11.449  12.121  66.451  1.00  0.00    -0.430 A  
HETATM   14  C   UNL     1     -10.131  11.446  64.531  1.00  0.00    -0.337 A  
HETATM   15  C   UNL     1     -12.364  12.729  65.576  1.00  0.00    -0.495 A  
HETATM   16  C   UNL     1     -11.059  12.038  63.674  1.00  0.00    -0.525 A  
HETATM   17  C   UNL     1     -12.172  12.683  64.195  1.00  0.00    -0.532 A  
BRANCH  13  18
HETATM   18  C   UNL     1     -11.713  12.179  67.927  1.00  0.00    -0.336 C  
HETATM   19  O   UNL     1     -12.390  11.310  68.471  1.00  0.00    -0.543 OA 
BRANCH  18  20
HETATM   20  C   UNL     1     -11.064  13.281  68.754  1.00  0.00    -0.303 C  
BRANCH  20  21
HETATM   21  C   UNL     1     -12.019  14.438  69.029  1.00  0.00    -0.342 C  
BRANCH  21  22
HETATM   22  C   UNL     1     -12.337  14.586  70.498  1.00  0.00    -0.403 A  
HETATM   23  C   UNL     1     -12.055  15.785  71.171  1.00  0.00    -0.475 A  
HETATM   24  C   UNL     1     -12.372  15.929  72.523  1.00  0.00    -0.575 A  
HETATM   25  C   UNL     1     -12.967  14.878  73.217  1.00  0.00    -0.635 A  
HETATM   26  C   UNL     1     -13.239  13.679  72.561  1.00  0.00    -0.578 A  
HETATM   27  C   UNL     1     -12.922  13.531  71.209  1.00  0.00    -0.384 A  
ENDBRANCH  21  22
ENDBRANCH  20  21
ENDBRANCH  18  20
ENDBRANCH  13  18
ENDBRANCH  11  12
ENDBRANCH  10  11
ENDBRANCH   7  10
ENDBRANCH   6   7
ENDBRANCH   4   6
ENDBRANCH   3   4
ENDBRANCH   2   3
TORSDOF 11
ENDMDL
MODEL        8
REMARK 921   NORMALIZED FREE ENERGY PREDICTED BY IDOCK:   -6.49 KCAL/MOL
REMARK 922        TOTAL FREE ENERGY PREDICTED BY IDOCK:  -11.67 KCAL/MOL
REMARK 923 INTER-LIGAND FREE ENERGY PREDICTED BY IDOCK:   -9.64 KCAL/MOL
REMARK 924 INTRA-LIGAND FREE ENERGY PREDICTED BY IDOCK:   -2.03 KCAL/MOL
REMARK 927      BINDING AFFINITY PREDICTED BY RF-SCORE:    0.00 PKD
ROOT
HETATM    1  C   UNL     1      -9.834  10.911  63.153  1.00  0.00    -0.392 C  
HETATM    2  C   UNL     1     -10.713  11.364  64.309  1.00  0.00    -0.420 C  
ENDROOT
BRANCH   2   3
HETATM    3  C   UNL     1     -11.786  12.343  63.837  1.00  0.00    -0.466 C  
BRANCH   3   4
HETATM    4  N   UNL     1     -12.715  12.619  64.931  1.00  0.00    -0.778 NA 
HETATM    5  H   UNL     1     -12.397  12.214  65.812  1.00  0.00     0.000 HD 
BRANCH   4   6
HETATM    6  C   UNL     1     -12.949  14.066  65.046  1.00  0.00    -0.134 C  
BRANCH   6   7
HETATM    7  C   UNL     1     -11.679  14.861  64.694  1.00  0.00    -0.404 C  
HETATM    8  O   UNL     1     -12.008  16.005  63.891  1.00  0.00    -1.267 OA 
HETATM    9  H   UNL     1     -11.224  16.495  63.674  1.00  0.00     0.000 HD 
BRANCH   7  10
HETATM   10  C   UNL     1     -10.953  15.323  65.963  1.00  0.00    -0.317 C  
BRANCH  10  11
HETATM   11  O   UNL     1     -11.106  14.328  66.994  1.00  0.00    -0.297 OA 
BRANCH  11  12
HETATM   12  C   UNL     1      -9.969  13.627  67.302  1.00  0.00    -0.240 A  
HETATM   13  C   UNL     1     -10.069  12.442  68.059  1.00  0.00    -0.214 A  
HETATM   14  C   UNL     1      -8.698  14.099  66.939  1.00  0.00    -0.187 A  
HETATM   15  C   UNL     1      -8.901  11.728  68.374  1.00  0.00    -0.161 A  
HETATM   16  C   UNL     1      -7.547  13.388  67.276  1.00  0.00    -0.076 A  
HETATM   17  C   UNL     1      -7.647  12.201  67.988  1.00  0.00    -0.123 A  
BRANCH  13  18
HETATM   18  C   UNL     1     -11.391  11.902  68.516  1.00  0.00    -0.276 C  
HETATM   19  O   UNL     1     -12.252  11.588  67.697  1.00  0.00    -0.513 OA 
BRANCH  18  20
HETATM   20  C   UNL     1     -11.624  11.668  70.004  1.00  0.00    -0.338 C  
BRANCH  20  21
HETATM   21  C   UNL     1     -12.910  12.322  70.499  1.00  0.00     0.086 C  
BRANCH  21  22
HETATM   22  C   UNL     1     -12.654  13.615  71.236  1.00  0.00    -0.435 A  
HETATM   23  C   UNL     1     -11.719  14.540  70.749  1.00  0.00    -0.325 A  
HETATM   24  C   UNL     1     -11.500  15.746  71.418  1.00  0.00    -0.496 A  
HETATM   25  C   UNL     1     -12.208  16.036  72.582  1.00  0.00    -0.619 A  
HETATM   26  C   UNL     1     -13.130  15.118  73.082  1.00  0.00    -0.625 A  
HETATM   27  C   UNL     1     -13.349  13.911  72.415  1.00  0.00    -0.629 A  
ENDBRANCH  21  22
ENDBRANCH  20  21
ENDBRANCH  18  20
ENDBRANCH  13  18
ENDBRANCH  11  12
ENDBRANCH  10  11
ENDBRANCH   7  10
ENDBRANCH   6   7
ENDBRANCH   4   6
ENDBRANCH   3   4
ENDBRANCH   2   3
TORSDOF 11
ENDMDL
MODEL        9
REMARK 921   NORMALIZED FREE ENERGY PREDICTED BY IDOCK:   -6.44 KCAL/MOL
REMARK 922        TOTAL FREE ENERGY PREDICTED BY IDOCK:  -11.60 KCAL/MOL
REMARK 923 INTER-LIGAND FREE ENERGY PREDICTED BY IDOCK:   -9.73 KCAL/MOL
REMARK 924 INTRA-LIGAND FREE ENERGY PREDICTED BY IDOCK:   -1.87 KCAL/MOL
REMARK 927      BINDING AFFINITY PREDICTED BY RF-SCORE:    0.00 PKD
ROOT
HETATM    1  C   UNL     1      -9.828  11.387  63.180  1.00  0.00    -0.413 C  
HETATM    2  C   UNL     1     -10.617  11.445  64.479  1.00  0.00    -0.390 C  
ENDROOT
BRANCH   2   3
HETATM    3  C   UNL     1     -11.953  12.160  64.283  1.00  0.00    -0.380 C  
BRANCH   3   4
HETATM    4  N   UNL     1     -12.466  12.605  65.578  1.00  0.00    -0.648 NA 
HETATM    5  H   UNL     1     -11.837  12.359  66.342  1.00  0.00     0.000 HD 
BRANCH   4   6
HETATM    6  C   UNL     1     -12.750  14.046  65.544  1.00  0.00    -0.486 C  
BRANCH   6   7
HETATM    7  C   UNL     1     -11.947  14.742  64.430  1.00  0.00    -0.417 C  
HETATM    8  O   UNL     1     -12.786  15.647  63.696  1.00  0.00    -0.680 OA 
HETATM    9  H   UNL     1     -12.290  16.076  63.008  1.00  0.00     0.000 HD 
BRANCH   7  10
HETATM   10  C   UNL     1     -10.756  15.512  65.013  1.00  0.00    -0.441 C  
BRANCH  10  11
HETATM   11  O   UNL     1      -9.937  14.616  65.789  1.00  0.00    -0.306 OA 
BRANCH  11  12
HETATM   12  C   UNL     1      -9.303  15.188  66.862  1.00  0.00    -0.234 A  
HETATM   13  C   UNL     1      -9.245  14.490  68.086  1.00  0.00    -0.195 A  
HETATM   14  C   UNL     1      -8.768  16.484  66.789  1.00  0.00    -0.257 A  
HETATM   15  C   UNL     1      -8.596  15.081  69.183  1.00  0.00    -0.188 A  
HETATM   16  C   UNL     1      -8.144  17.064  67.893  1.00  0.00    -0.196 A  
HETATM   17  C   UNL     1      -8.053  16.362  69.088  1.00  0.00    -0.198 A  
BRANCH  13  18
HETATM   18  C   UNL     1      -9.833  13.120  68.246  1.00  0.00    -0.227 C  
HETATM   19  O   UNL     1      -9.211  12.129  67.868  1.00  0.00    -0.175 OA 
BRANCH  18  20
HETATM   20  C   UNL     1     -11.171  12.964  68.958  1.00  0.00    -0.320 C  
BRANCH  20  21
HETATM   21  C   UNL     1     -11.868  14.302  69.181  1.00  0.00    -0.368 C  
BRANCH  21  22
HETATM   22  C   UNL     1     -12.191  14.548  70.636  1.00  0.00    -0.401 A  
HETATM   23  C   UNL     1     -13.027  13.667  71.339  1.00  0.00    -0.427 A  
HETATM   24  C   UNL     1     -13.306  13.883  72.690  1.00  0.00    -0.640 A  
HETATM   25  C   UNL     1     -12.758  14.980  73.350  1.00  0.00    -0.654 A  
HETATM   26  C   UNL     1     -11.937  15.868  72.657  1.00  0.00    -0.610 A  
HETATM   27  C   UNL     1     -11.657  15.656  71.305  1.00  0.00    -0.485 A  
ENDBRANCH  21  22
ENDBRANCH  20  21
ENDBRANCH  18  20
ENDBRANCH  13  18
ENDBRANCH  11  12
ENDBRANCH  10  11
ENDBRANCH   7  10
ENDBRANCH   6   7
ENDBRANCH   4   6
ENDBRANCH   3   4
ENDBRANCH   2   3
TORSDOF 11
ENDMDL
MODEL       10
REMARK 921   NORMALIZED FREE ENERGY PREDICTED BY IDOCK:   -6.43 KCAL/MOL
REMARK 922        TOTAL FREE ENERGY PREDICTED BY IDOCK:  -11.58 KCAL/MOL
REMARK 923 INTER-LIGAND FREE ENERGY PREDICTED BY IDOCK:   -9.70 KCAL/MOL
REMARK 924 INTRA-LIGAND FREE ENERGY PREDICTED BY IDOCK:   -1.87 KCAL/MOL
REMARK 927      BINDING AFFINITY PREDICTED BY RF-SCORE:    0.00 PKD
ROOT
HETATM    1  C   UNL     1     -11.792  12.319  64.634  1.00  0.00    -0.435 C  
HETATM    2  C   UNL     1     -11.066  12.674  65.923  1.00  0.00    -0.323 C  
ENDROOT
BRANCH   2   3
HETATM    3  C   UNL     1     -10.872  11.442  66.806  1.00  0.00    -0.286 C  
BRANCH   3   4
HETATM    4  N   UNL     1     -11.810  11.488  67.926  1.00  0.00    -0.614 NA 
HETATM    5  H   UNL     1     -12.780  11.460  67.612  1.00  0.00     0.000 HD 
BRANCH   4   6
HETATM    6  C   UNL     1     -11.512  10.413  68.883  1.00  0.00    -0.186 C  
BRANCH   6   7
HETATM    7  C   UNL     1     -12.526  10.407  70.041  1.00  0.00    -0.119 C  
HETATM    8  O   UNL     1     -12.481   9.155  70.743  1.00  0.00    -0.490 OA 
HETATM    9  H   UNL     1     -13.107   9.152  71.457  1.00  0.00     0.000 HD 
BRANCH   7  10
HETATM   10  C   UNL     1     -12.243  11.550  71.022  1.00  0.00    -0.263 C  
BRANCH  10  11
HETATM   11  O   UNL     1     -12.929  12.740  70.586  1.00  0.00    -0.018 OA 
BRANCH  11  12
HETATM   12  C   UNL     1     -12.687  13.861  71.338  1.00  0.00    -0.365 A  
HETATM   13  C   UNL     1     -11.809  14.849  70.845  1.00  0.00    -0.375 A  
HETATM   14  C   UNL     1     -13.239  14.017  72.618  1.00  0.00    -0.606 A  
HETATM   15  C   UNL     1     -11.561  15.995  71.620  1.00  0.00    -0.538 A  
HETATM   16  C   UNL     1     -12.969  15.151  73.382  1.00  0.00    -0.642 A  
HETATM   17  C   UNL     1     -12.135  16.143  72.883  1.00  0.00    -0.643 A  
BRANCH  13  18
HETATM   18  C   UNL     1     -11.151  14.728  69.503  1.00  0.00    -0.279 C  
HETATM   19  O   UNL     1     -10.279  13.883  69.312  1.00  0.00    -0.043 OA 
BRANCH  18  20
HETATM   20  C   UNL     1     -11.633  15.609  68.357  1.00  0.00    -0.358 C  
BRANCH  20  21
HETATM   21  C   UNL     1     -10.489  16.075  67.463  1.00  0.00    -0.297 C  
BRANCH  21  22
HETATM   22  C   UNL     1     -10.324  17.577  67.474  1.00  0.00    -0.356 A  
HETATM   23  C   UNL     1     -10.191  18.270  68.686  1.00  0.00    -0.377 A  
HETATM   24  C   UNL     1     -10.014  19.655  68.693  1.00  0.00    -0.553 A  
HETATM   25  C   UNL     1      -9.973  20.360  67.492  1.00  0.00    -0.537 A  
HETATM   26  C   UNL     1     -10.117  19.682  66.284  1.00  0.00    -0.578 A  
HETATM   27  C   UNL     1     -10.296  18.297  66.273  1.00  0.00    -0.422 A  
ENDBRANCH  21  22
ENDBRANCH  20  21
ENDBRANCH  18  20
ENDBRANCH  13  18
ENDBRANCH  11  12
ENDBRANCH  10  11
ENDBRANCH   7  10
ENDBRANCH   6   7
ENDBRANCH   4   6
ENDBRANCH   3   4
ENDBRANCH   2   3
TORSDOF 11
ENDMDL
MODEL       11
REMARK 921   NORMALIZED FREE ENERGY PREDICTED BY IDOCK:   -6.39 KCAL/MOL
REMARK 922        TOTAL FREE ENERGY PREDICTED BY IDOCK:  -11.51 KCAL/MOL
REMARK 923 INTER-LIGAND FREE ENERGY PREDICTED BY IDOCK:   -9.28 KCAL/MOL
REMARK 924 INTRA-LIGAND FREE ENERGY PREDICTED BY IDOCK:   -2.23 KCAL/MOL
REMARK 927      BINDING AFFINITY PREDICTED BY RF-SCORE:    0.00 PKD
ROOT
HETATM    1  C   UNL     1      -9.990   9.676  66.076  1.00  0.00    -0.344 C  
HETATM    2  C   UNL     1      -9.367  10.307  67.312  1.00  0.00    -0.169 C  
ENDROOT
BRANCH   2   3
HETATM    3  C   UNL     1     -10.309  11.330  67.945  1.00  0.00    -0.182 C  
BRANCH   3   4
HETATM    4  N   UNL     1     -10.126  11.335  69.395  1.00  0.00    -0.434 NA 
HETATM    5  H   UNL     1     -10.536  12.163  69.828  1.00  0.00     0.000 HD 
BRANCH   4   6
HETATM    6  C   UNL     1     -10.653  10.093  69.978  1.00  0.00    -0.287 C  
BRANCH   6   7
HETATM    7  C   UNL     1     -12.158  10.217  70.275  1.00  0.00    -0.204 C  
HETATM    8  O   UNL     1     -12.656   9.007  70.867  1.00  0.00    -0.487 OA 
HETATM    9  H   UNL     1     -13.585   9.084  71.050  1.00  0.00     0.000 HD 
BRANCH   7  10
HETATM   10  C   UNL     1     -12.435  11.395  71.217  1.00  0.00    -0.318 C  
BRANCH  10  11
HETATM   11  O   UNL     1     -12.524  12.612  70.451  1.00  0.00    -0.246 OA 
BRANCH  11  12
HETATM   12  C   UNL     1     -12.485  13.768  71.189  1.00  0.00    -0.370 A  
HETATM   13  C   UNL     1     -11.771  14.880  70.696  1.00  0.00    -0.357 A  
HETATM   14  C   UNL     1     -13.084  13.848  72.455  1.00  0.00    -0.532 A  
HETATM   15  C   UNL     1     -11.732  16.062  71.456  1.00  0.00    -0.554 A  
HETATM   16  C   UNL     1     -13.020  15.022  73.205  1.00  0.00    -0.631 A  
HETATM   17  C   UNL     1     -12.350  16.130  72.705  1.00  0.00    -0.574 A  
BRANCH  13  18
HETATM   18  C   UNL     1     -11.073  14.851  69.370  1.00  0.00    -0.280 C  
HETATM   19  O   UNL     1      -9.872  14.599  69.305  1.00  0.00    -0.174 OA 
BRANCH  18  20
HETATM   20  C   UNL     1     -11.885  15.056  68.098  1.00  0.00    -0.286 C  
BRANCH  20  21
HETATM   21  C   UNL     1     -11.002  15.234  66.867  1.00  0.00    -0.315 C  
BRANCH  21  22
HETATM   22  C   UNL     1     -11.207  14.139  65.847  1.00  0.00    -0.313 A  
HETATM   23  C   UNL     1     -10.131  13.669  65.080  1.00  0.00    -0.293 A  
HETATM   24  C   UNL     1     -10.317  12.640  64.154  1.00  0.00    -0.412 A  
HETATM   25  C   UNL     1     -11.579  12.076  63.982  1.00  0.00    -0.495 A  
HETATM   26  C   UNL     1     -12.657  12.545  64.730  1.00  0.00    -0.493 A  
HETATM   27  C   UNL     1     -12.474  13.575  65.655  1.00  0.00    -0.528 A  
ENDBRANCH  21  22
ENDBRANCH  20  21
ENDBRANCH  18  20
ENDBRANCH  13  18
ENDBRANCH  11  12
ENDBRANCH  10  11
ENDBRANCH   7  10
ENDBRANCH   6   7
ENDBRANCH   4   6
ENDBRANCH   3   4
ENDBRANCH   2   3
TORSDOF 11
ENDMDL
MODEL       12
REMARK 921   NORMALIZED FREE ENERGY PREDICTED BY IDOCK:   -6.38 KCAL/MOL
REMARK 922        TOTAL FREE ENERGY PREDICTED BY IDOCK:  -11.50 KCAL/MOL
REMARK 923 INTER-LIGAND FREE ENERGY PREDICTED BY IDOCK:   -9.80 KCAL/MOL
REMARK 924 INTRA-LIGAND FREE ENERGY PREDICTED BY IDOCK:   -1.70 KCAL/MOL
REMARK 927      BINDING AFFINITY PREDICTED BY RF-SCORE:    0.00 PKD
ROOT
HETATM    1  C   UNL     1      -9.058  15.596  66.229  1.00  0.00    -0.376 C  
HETATM    2  C   UNL     1      -9.608  15.406  67.635  1.00  0.00    -0.210 C  
ENDROOT
BRANCH   2   3
HETATM    3  C   UNL     1     -10.747  16.385  67.919  1.00  0.00    -0.332 C  
BRANCH   3   4
HETATM    4  N   UNL     1     -11.934  15.647  68.347  1.00  0.00    -0.474 NA 
HETATM    5  H   UNL     1     -12.440  15.248  67.557  1.00  0.00     0.000 HD 
BRANCH   4   6
HETATM    6  C   UNL     1     -11.566  14.623  69.336  1.00  0.00    -0.305 C  
BRANCH   6   7
HETATM    7  C   UNL     1     -12.410  14.763  70.616  1.00  0.00    -0.337 C  
HETATM    8  O   UNL     1     -13.620  15.486  70.344  1.00  0.00    -0.806 OA 
HETATM    9  H   UNL     1     -14.141  15.572  71.134  1.00  0.00     0.000 HD 
BRANCH   7  10
HETATM   10  C   UNL     1     -12.759  13.387  71.194  1.00  0.00    -0.328 C  
BRANCH  10  11
HETATM   11  O   UNL     1     -12.199  12.356  70.357  1.00  0.00    -0.346 OA 
BRANCH  11  12
HETATM   12  C   UNL     1     -12.319  11.080  70.845  1.00  0.00    -0.402 A  
HETATM   13  C   UNL     1     -11.525  10.052  70.296  1.00  0.00    -0.372 A  
HETATM   14  C   UNL     1     -13.263  10.760  71.832  1.00  0.00    -0.524 A  
HETATM   15  C   UNL     1     -11.653   8.745  70.797  1.00  0.00    -0.288 A  
HETATM   16  C   UNL     1     -13.391   9.455  72.305  1.00  0.00    -0.539 A  
HETATM   17  C   UNL     1     -12.584   8.448  71.792  1.00  0.00    -0.378 A  
BRANCH  13  18
HETATM   18  C   UNL     1     -10.525  10.314  69.210  1.00  0.00    -0.228 C  
HETATM   19  O   UNL     1      -9.335  10.451  69.482  1.00  0.00    -0.198 OA 
BRANCH  18  20
HETATM   20  C   UNL     1     -10.990  10.327  67.759  1.00  0.00    -0.360 C  
BRANCH  20  21
HETATM   21  C   UNL     1     -10.076  11.158  66.865  1.00  0.00    -0.250 C  
BRANCH  21  22
HETATM   22  C   UNL     1     -10.839  11.910  65.800  1.00  0.00    -0.341 A  
HETATM   23  C   UNL     1     -11.820  12.848  66.154  1.00  0.00    -0.487 A  
HETATM   24  C   UNL     1     -12.508  13.559  65.170  1.00  0.00    -0.495 A  
HETATM   25  C   UNL     1     -12.227  13.338  63.823  1.00  0.00    -0.508 A  
HETATM   26  C   UNL     1     -11.264  12.398  63.461  1.00  0.00    -0.540 A  
HETATM   27  C   UNL     1     -10.575  11.684  64.444  1.00  0.00    -0.377 A  
ENDBRANCH  21  22
ENDBRANCH  20  21
ENDBRANCH  18  20
ENDBRANCH  13  18
ENDBRANCH  11  12
ENDBRANCH  10  11
ENDBRANCH   7  10
ENDBRANCH   6   7
ENDBRANCH   4   6
ENDBRANCH   3   4
ENDBRANCH   2   3
TORSDOF 11
ENDMDL
MODEL       13
REMARK 921   NORMALIZED FREE ENERGY PREDICTED BY IDOCK:   -6.33 KCAL/MOL
REMARK 922        TOTAL FREE ENERGY PREDICTED BY IDOCK:  -11.41 KCAL/MOL
REMARK 923 INTER-LIGAND FREE ENERGY PREDICTED BY IDOCK:   -9.76 KCAL/MOL
REMARK 924 INTRA-LIGAND FREE ENERGY PREDICTED BY IDOCK:   -1.65 KCAL/MOL
REMARK 927      BINDING AFFINITY PREDICTED BY RF-SCORE:    0.00 PKD
ROOT
HETATM    1  C   UNL     1     -10.448  11.027  64.614  1.00  0.00    -0.398 C  
HETATM    2  C   UNL     1     -10.540  11.756  63.282  1.00  0.00    -0.427 C  
ENDROOT
BRANCH   2   3
HETATM    3  C   UNL     1     -11.757  12.680  63.240  1.00  0.00    -0.393 C  
BRANCH   3   4
HETATM    4  N   UNL     1     -12.186  12.989  64.603  1.00  0.00    -0.401 NA 
HETATM    5  H   UNL     1     -11.489  12.709  65.294  1.00  0.00     0.000 HD 
BRANCH   4   6
HETATM    6  C   UNL     1     -12.531  14.412  64.717  1.00  0.00    -0.357 C  
BRANCH   6   7
HETATM    7  C   UNL     1     -11.274  15.296  64.616  1.00  0.00    -0.356 C  
HETATM    8  O   UNL     1     -11.549  16.476  63.846  1.00  0.00    -1.598 OA 
HETATM    9  H   UNL     1     -10.773  17.021  63.784  1.00  0.00     0.000 HD 
BRANCH   7  10
HETATM   10  C   UNL     1     -10.778  15.702  66.009  1.00  0.00    -0.317 C  
BRANCH  10  11
HETATM   11  O   UNL     1     -10.738  14.542  66.863  1.00  0.00    -0.280 OA 
BRANCH  11  12
HETATM   12  C   UNL     1     -11.079  14.769  68.171  1.00  0.00    -0.278 A  
HETATM   13  C   UNL     1     -11.564  13.702  68.956  1.00  0.00    -0.356 A  
HETATM   14  C   UNL     1     -11.023  16.055  68.729  1.00  0.00    -0.320 A  
HETATM   15  C   UNL     1     -11.915  13.940  70.296  1.00  0.00    -0.401 A  
HETATM   16  C   UNL     1     -11.393  16.278  70.055  1.00  0.00    -0.276 A  
HETATM   17  C   UNL     1     -11.834  15.222  70.840  1.00  0.00    -0.387 A  
BRANCH  13  18
HETATM   18  C   UNL     1     -11.689  12.310  68.412  1.00  0.00    -0.337 C  
HETATM   19  O   UNL     1     -12.273  12.108  67.350  1.00  0.00    -0.486 OA 
BRANCH  18  20
HETATM   20  C   UNL     1     -11.015  11.161  69.151  1.00  0.00    -0.295 C  
BRANCH  20  21
HETATM   21  C   UNL     1     -10.047  10.388  68.261  1.00  0.00    -0.174 C  
BRANCH  21  22
HETATM   22  C   UNL     1     -10.342   8.907  68.236  1.00  0.00    -0.250 A  
HETATM   23  C   UNL     1     -10.403   8.173  69.430  1.00  0.00    -0.219 A  
HETATM   24  C   UNL     1     -10.699   6.809  69.407  1.00  0.00    -0.291 A  
HETATM   25  C   UNL     1     -10.933   6.165  68.195  1.00  0.00    -0.398 A  
HETATM   26  C   UNL     1     -10.861   6.883  67.002  1.00  0.00    -0.436 A  
HETATM   27  C   UNL     1     -10.563   8.247  67.021  1.00  0.00    -0.328 A  
ENDBRANCH  21  22
ENDBRANCH  20  21
ENDBRANCH  18  20
ENDBRANCH  13  18
ENDBRANCH  11  12
ENDBRANCH  10  11
ENDBRANCH   7  10
ENDBRANCH   6   7
ENDBRANCH   4   6
ENDBRANCH   3   4
ENDBRANCH   2   3
TORSDOF 11
ENDMDL
MODEL       14
REMARK 921   NORMALIZED FREE ENERGY PREDICTED BY IDOCK:   -6.31 KCAL/MOL
REMARK 922        TOTAL FREE ENERGY PREDICTED BY IDOCK:  -11.39 KCAL/MOL
REMARK 923 INTER-LIGAND FREE ENERGY PREDICTED BY IDOCK:   -9.64 KCAL/MOL
REMARK 924 INTRA-LIGAND FREE ENERGY PREDICTED BY IDOCK:   -1.75 KCAL/MOL
REMARK 927      BINDING AFFINITY PREDICTED BY RF-SCORE:    0.00 PKD
ROOT
HETATM    1  C   UNL     1     -10.286   5.017  71.920  1.00  0.00    -0.270 C  
HETATM    2  C   UNL     1     -11.142   6.275  71.934  1.00  0.00    -0.315 C  
ENDROOT
BRANCH   2   3
HETATM    3  C   UNL     1     -11.481   6.728  70.515  1.00  0.00    -0.360 C  
BRANCH   3   4
HETATM    4  N   UNL     1     -11.730   8.169  70.505  1.00  0.00    -0.458 NA 
HETATM    5  H   UNL     1     -12.459   8.425  69.839  1.00  0.00     0.000 HD 
BRANCH   4   6
HETATM    6  C   UNL     1     -12.037   8.641  71.863  1.00  0.00    -0.356 C  
BRANCH   6   7
HETATM    7  C   UNL     1     -13.435   9.281  71.922  1.00  0.00    -0.430 C  
HETATM    8  O   UNL     1     -14.125   8.876  73.114  1.00  0.00    -1.125 OA 
HETATM    9  H   UNL     1     -14.988   9.271  73.150  1.00  0.00     0.000 HD 
BRANCH   7  10
HETATM   10  C   UNL     1     -13.338  10.811  71.886  1.00  0.00    -0.340 C  
BRANCH  10  11
HETATM   11  O   UNL     1     -12.428  11.212  70.844  1.00  0.00    -0.362 OA 
BRANCH  11  12
HETATM   12  C   UNL     1     -12.385  12.560  70.594  1.00  0.00    -0.282 A  
HETATM   13  C   UNL     1     -11.799  13.024  69.399  1.00  0.00    -0.380 A  
HETATM   14  C   UNL     1     -12.850  13.492  71.534  1.00  0.00    -0.440 A  
HETATM   15  C   UNL     1     -11.755  14.406  69.148  1.00  0.00    -0.354 A  
HETATM   16  C   UNL     1     -12.781  14.861  71.278  1.00  0.00    -0.412 A  
HETATM   17  C   UNL     1     -12.239  15.319  70.085  1.00  0.00    -0.402 A  
BRANCH  13  18
HETATM   18  C   UNL     1     -11.245  12.085  68.369  1.00  0.00    -0.262 C  
HETATM   19  O   UNL     1     -12.000  11.390  67.692  1.00  0.00    -0.630 OA 
BRANCH  18  20
HETATM   20  C   UNL     1      -9.743  12.063  68.115  1.00  0.00    -0.199 C  
BRANCH  20  21
HETATM   21  C   UNL     1      -9.398  12.336  66.655  1.00  0.00    -0.228 C  
BRANCH  21  22
HETATM   22  C   UNL     1      -9.708  13.756  66.244  1.00  0.00    -0.297 A  
HETATM   23  C   UNL     1     -10.756  14.028  65.353  1.00  0.00    -0.344 A  
HETATM   24  C   UNL     1     -11.056  15.343  64.993  1.00  0.00    -0.428 A  
HETATM   25  C   UNL     1     -10.310  16.397  65.514  1.00  0.00    -0.336 A  
HETATM   26  C   UNL     1      -9.258  16.137  66.390  1.00  0.00    -0.334 A  
HETATM   27  C   UNL     1      -8.954  14.822  66.750  1.00  0.00    -0.292 A  
ENDBRANCH  21  22
ENDBRANCH  20  21
ENDBRANCH  18  20
ENDBRANCH  13  18
ENDBRANCH  11  12
ENDBRANCH  10  11
ENDBRANCH   7  10
ENDBRANCH   6   7
ENDBRANCH   4   6
ENDBRANCH   3   4
ENDBRANCH   2   3
TORSDOF 11
ENDMDL
MODEL       15
REMARK 921   NORMALIZED FREE ENERGY PREDICTED BY IDOCK:   -6.28 KCAL/MOL
REMARK 922        TOTAL FREE ENERGY PREDICTED BY IDOCK:  -11.33 KCAL/MOL
REMARK 923 INTER-LIGAND FREE ENERGY PREDICTED BY IDOCK:   -8.85 KCAL/MOL
REMARK 924 INTRA-LIGAND FREE ENERGY PREDICTED BY IDOCK:   -2.48 KCAL/MOL
REMARK 927      BINDING AFFINITY PREDICTED BY RF-SCORE:    0.00 PKD
ROOT
HETATM    1  C   UNL     1      -9.586  10.570  63.586  1.00  0.00    -0.370 C  
HETATM    2  C   UNL     1     -10.085  11.651  64.533  1.00  0.00    -0.321 C  
ENDROOT
BRANCH   2   3
HETATM    3  C   UNL     1     -11.080  12.579  63.839  1.00  0.00    -0.423 C  
BRANCH   3   4
HETATM    4  N   UNL     1     -12.176  12.896  64.753  1.00  0.00    -0.418 NA 
HETATM    5  H   UNL     1     -11.969  12.610  65.710  1.00  0.00     0.000 HD 
BRANCH   4   6
HETATM    6  C   UNL     1     -12.510  14.325  64.668  1.00  0.00    -0.351 C  
BRANCH   6   7
HETATM    7  C   UNL     1     -11.238  15.191  64.673  1.00  0.00    -0.343 C  
HETATM    8  O   UNL     1     -11.436  16.381  63.894  1.00  0.00    -1.569 OA 
HETATM    9  H   UNL     1     -10.651  16.915  63.897  1.00  0.00     0.000 HD 
BRANCH   7  10
HETATM   10  C   UNL     1     -10.847  15.581  66.104  1.00  0.00    -0.295 C  
BRANCH  10  11
HETATM   11  O   UNL     1     -10.723  14.393  66.910  1.00  0.00    -0.286 OA 
BRANCH  11  12
HETATM   12  C   UNL     1     -11.286  14.474  68.157  1.00  0.00    -0.298 A  
HETATM   13  C   UNL     1     -11.678  13.291  68.819  1.00  0.00    -0.366 A  
HETATM   14  C   UNL     1     -11.545  15.712  68.764  1.00  0.00    -0.393 A  
HETATM   15  C   UNL     1     -12.256  13.378  70.096  1.00  0.00    -0.385 A  
HETATM   16  C   UNL     1     -12.137  15.782  70.025  1.00  0.00    -0.344 A  
HETATM   17  C   UNL     1     -12.489  14.617  70.693  1.00  0.00    -0.408 A  
BRANCH  13  18
HETATM   18  C   UNL     1     -11.469  11.936  68.211  1.00  0.00    -0.311 C  
HETATM   19  O   UNL     1     -12.107  11.595  67.218  1.00  0.00    -0.595 OA 
BRANCH  18  20
HETATM   20  C   UNL     1     -10.399  11.019  68.790  1.00  0.00    -0.217 C  
BRANCH  20  21
HETATM   21  C   UNL     1     -10.615   9.559  68.404  1.00  0.00    -0.261 C  
BRANCH  21  22
HETATM   22  C   UNL     1      -9.551   9.048  67.463  1.00  0.00    -0.182 A  
HETATM   23  C   UNL     1      -9.804   7.945  66.633  1.00  0.00    -0.311 A  
HETATM   24  C   UNL     1      -8.828   7.488  65.746  1.00  0.00    -0.122 A  
HETATM   25  C   UNL     1      -7.590   8.123  65.682  1.00  0.00    -0.083 A  
HETATM   26  C   UNL     1      -7.324   9.211  66.512  1.00  0.00    -0.089 A  
HETATM   27  C   UNL     1      -8.298   9.669  67.401  1.00  0.00    -0.114 A  
ENDBRANCH  21  22
ENDBRANCH  20  21
ENDBRANCH  18  20
ENDBRANCH  13  18
ENDBRANCH  11  12
ENDBRANCH  10  11
ENDBRANCH   7  10
ENDBRANCH   6   7
ENDBRANCH   4   6
ENDBRANCH   3   4
ENDBRANCH   2   3
TORSDOF 11
ENDMDL
MODEL       16
REMARK 921   NORMALIZED FREE ENERGY PREDICTED BY IDOCK:   -6.25 KCAL/MOL
REMARK 922        TOTAL FREE ENERGY PREDICTED BY IDOCK:  -11.28 KCAL/MOL
REMARK 923 INTER-LIGAND FREE ENERGY PREDICTED BY IDOCK:   -9.33 KCAL/MOL
REMARK 924 INTRA-LIGAND FREE ENERGY PREDICTED BY IDOCK:   -1.95 KCAL/MOL
REMARK 927      BINDING AFFINITY PREDICTED BY RF-SCORE:    0.00 PKD
ROOT
HETATM    1  C   UNL     1     -10.041  10.631  64.815  1.00  0.00    -0.412 C  
HETATM    2  C   UNL     1     -11.124  11.693  64.697  1.00  0.00    -0.342 C  
ENDROOT
BRANCH   2   3
HETATM    3  C   UNL     1     -11.232  12.216  63.266  1.00  0.00    -0.328 C  
BRANCH   3   4
HETATM    4  N   UNL     1     -12.239  13.272  63.203  1.00  0.00    -0.901 NA 
HETATM    5  H   UNL     1     -13.167  12.903  62.991  1.00  0.00     0.000 HD 
BRANCH   4   6
HETATM    6  C   UNL     1     -12.233  14.056  64.446  1.00  0.00    -0.426 C  
BRANCH   6   7
HETATM    7  C   UNL     1     -11.289  15.267  64.331  1.00  0.00    -0.215 C  
HETATM    8  O   UNL     1     -11.924  16.333  63.609  1.00  0.00    -1.356 OA 
HETATM    9  H   UNL     1     -11.342  17.080  63.538  1.00  0.00     0.000 HD 
BRANCH   7  10
HETATM   10  C   UNL     1     -10.873  15.770  65.719  1.00  0.00    -0.280 C  
BRANCH  10  11
HETATM   11  O   UNL     1      -9.728  16.635  65.593  1.00  0.00    -0.530 OA 
BRANCH  11  12
HETATM   12  C   UNL     1      -9.632  17.616  66.546  1.00  0.00    -0.292 A  
HETATM   13  C   UNL     1      -8.747  17.444  67.631  1.00  0.00    -0.221 A  
HETATM   14  C   UNL     1     -10.444  18.760  66.503  1.00  0.00    -0.484 A  
HETATM   15  C   UNL     1      -8.653  18.451  68.607  1.00  0.00    -0.315 A  
HETATM   16  C   UNL     1     -10.353  19.741  67.490  1.00  0.00    -0.578 A  
HETATM   17  C   UNL     1      -9.455  19.591  68.538  1.00  0.00    -0.455 A  
BRANCH  13  18
HETATM   18  C   UNL     1      -7.879  16.228  67.762  1.00  0.00    -0.142 C  
HETATM   19  O   UNL     1      -6.708  16.258  67.391  1.00  0.00    -0.144 OA 
BRANCH  18  20
HETATM   20  C   UNL     1      -8.442  14.983  68.436  1.00  0.00    -0.153 C  
BRANCH  20  21
HETATM   21  C   UNL     1      -8.451  13.775  67.506  1.00  0.00    -0.199 C  
BRANCH  21  22
HETATM   22  C   UNL     1      -9.421  12.708  67.956  1.00  0.00    -0.209 A  
HETATM   23  C   UNL     1     -10.792  12.987  68.056  1.00  0.00    -0.261 A  
HETATM   24  C   UNL     1     -11.690  11.993  68.449  1.00  0.00    -0.390 A  
HETATM   25  C   UNL     1     -11.228  10.714  68.750  1.00  0.00    -0.337 A  
HETATM   26  C   UNL     1      -9.867  10.430  68.666  1.00  0.00    -0.183 A  
HETATM   27  C   UNL     1      -8.966  11.423  68.275  1.00  0.00    -0.175 A  
ENDBRANCH  21  22
ENDBRANCH  20  21
ENDBRANCH  18  20
ENDBRANCH  13  18
ENDBRANCH  11  12
ENDBRANCH  10  11
ENDBRANCH   7  10
ENDBRANCH   6   7
ENDBRANCH   4   6
ENDBRANCH   3   4
ENDBRANCH   2   3
TORSDOF 11
ENDMDL
MODEL       17
REMARK 921   NORMALIZED FREE ENERGY PREDICTED BY IDOCK:   -6.24 KCAL/MOL
REMARK 922        TOTAL FREE ENERGY PREDICTED BY IDOCK:  -11.27 KCAL/MOL
REMARK 923 INTER-LIGAND FREE ENERGY PREDICTED BY IDOCK:   -9.68 KCAL/MOL
REMARK 924 INTRA-LIGAND FREE ENERGY PREDICTED BY IDOCK:   -1.58 KCAL/MOL
REMARK 927      BINDING AFFINITY PREDICTED BY RF-SCORE:    0.00 PKD
ROOT
HETATM    1  C   UNL     1     -13.028  11.239  71.521  1.00  0.00    -0.520 C  
HETATM    2  C   UNL     1     -12.892   9.727  71.619  1.00  0.00    -0.519 C  
ENDROOT
BRANCH   2   3
HETATM    3  C   UNL     1     -11.456   9.282  71.346  1.00  0.00    -0.369 C  
BRANCH   3   4
HETATM    4  N   UNL     1     -11.409   8.511  70.105  1.00  0.00    -0.438 NA 
HETATM    5  H   UNL     1     -12.285   8.569  69.586  1.00  0.00     0.000 HD 
BRANCH   4   6
HETATM    6  C   UNL     1     -10.261   8.932  69.289  1.00  0.00    -0.209 C  
BRANCH   6   7
HETATM    7  C   UNL     1     -10.171  10.467  69.211  1.00  0.00    -0.230 C  
HETATM    8  O   UNL     1      -8.802  10.886  69.107  1.00  0.00    -0.307 OA 
HETATM    9  H   UNL     1      -8.747  11.833  69.059  1.00  0.00     0.000 HD 
BRANCH   7  10
HETATM   10  C   UNL     1     -10.958  11.001  68.009  1.00  0.00    -0.258 C  
BRANCH  10  11
HETATM   11  O   UNL     1     -10.239  12.096  67.410  1.00  0.00    -0.197 OA 
BRANCH  11  12
HETATM   12  C   UNL     1     -10.830  12.645  66.301  1.00  0.00    -0.273 A  
HETATM   13  C   UNL     1     -11.017  14.041  66.234  1.00  0.00    -0.300 A  
HETATM   14  C   UNL     1     -11.317  11.841  65.259  1.00  0.00    -0.284 A  
HETATM   15  C   UNL     1     -11.625  14.599  65.097  1.00  0.00    -0.371 A  
HETATM   16  C   UNL     1     -11.935  12.409  64.145  1.00  0.00    -0.518 A  
HETATM   17  C   UNL     1     -12.085  13.786  64.061  1.00  0.00    -0.448 A  
BRANCH  13  18
HETATM   18  C   UNL     1     -10.559  14.956  67.331  1.00  0.00    -0.263 C  
HETATM   19  O   UNL     1      -9.419  15.413  67.323  1.00  0.00    -0.206 OA 
BRANCH  18  20
HETATM   20  C   UNL     1     -11.550  15.378  68.408  1.00  0.00    -0.368 C  
BRANCH  20  21
HETATM   21  C   UNL     1     -11.748  14.299  69.468  1.00  0.00    -0.366 C  
BRANCH  21  22
HETATM   22  C   UNL     1     -12.295  14.854  70.762  1.00  0.00    -0.392 A  
HETATM   23  C   UNL     1     -13.679  14.973  70.958  1.00  0.00    -0.417 A  
HETATM   24  C   UNL     1     -14.184  15.464  72.164  1.00  0.00    -0.660 A  
HETATM   25  C   UNL     1     -13.313  15.846  73.181  1.00  0.00    -0.681 A  
HETATM   26  C   UNL     1     -11.936  15.744  72.991  1.00  0.00    -0.596 A  
HETATM   27  C   UNL     1     -11.428  15.255  71.786  1.00  0.00    -0.494 A  
ENDBRANCH  21  22
ENDBRANCH  20  21
ENDBRANCH  18  20
ENDBRANCH  13  18
ENDBRANCH  11  12
ENDBRANCH  10  11
ENDBRANCH   7  10
ENDBRANCH   6   7
ENDBRANCH   4   6
ENDBRANCH   3   4
ENDBRANCH   2   3
TORSDOF 11
ENDMDL
MODEL       18
REMARK 921   NORMALIZED FREE ENERGY PREDICTED BY IDOCK:   -6.23 KCAL/MOL
REMARK 922        TOTAL FREE ENERGY PREDICTED BY IDOCK:  -11.25 KCAL/MOL
REMARK 923 INTER-LIGAND FREE ENERGY PREDICTED BY IDOCK:   -9.46 KCAL/MOL
REMARK 924 INTRA-LIGAND FREE ENERGY PREDICTED BY IDOCK:   -1.79 KCAL/MOL
REMARK 927      BINDING AFFINITY PREDICTED BY RF-SCORE:    0.00 PKD
ROOT
HETATM    1  C   UNL     1     -11.926  12.472  63.973  1.00  0.00    -0.536 C  
HETATM    2  C   UNL     1     -10.732  11.660  63.497  1.00  0.00    -0.495 C  
ENDROOT
BRANCH   2   3
HETATM    3  C   UNL     1     -10.173  10.786  64.620  1.00  0.00    -0.350 C  
BRANCH   3   4
HETATM    4  N   UNL     1      -8.984  11.418  65.188  1.00  0.00    -0.393 NA 
HETATM    5  H   UNL     1      -9.204  12.305  65.643  1.00  0.00     0.000 HD 
BRANCH   4   6
HETATM    6  C   UNL     1      -8.302  10.489  66.100  1.00  0.00    -0.155 C  
BRANCH   6   7
HETATM    7  C   UNL     1      -7.589  11.250  67.232  1.00  0.00    -0.130 C  
HETATM    8  O   UNL     1      -7.257  12.582  66.812  1.00  0.00    -0.378 OA 
HETATM    9  H   UNL     1      -6.816  13.051  67.511  1.00  0.00     0.000 HD 
BRANCH   7  10
HETATM   10  C   UNL     1      -8.470  11.318  68.486  1.00  0.00    -0.156 C  
BRANCH  10  11
HETATM   11  O   UNL     1      -9.794  10.847  68.170  1.00  0.00    -0.166 OA 
BRANCH  11  12
HETATM   12  C   UNL     1     -10.680  10.854  69.217  1.00  0.00    -0.231 A  
HETATM   13  C   UNL     1     -11.493  11.987  69.429  1.00  0.00    -0.361 A  
HETATM   14  C   UNL     1     -10.749   9.785  70.123  1.00  0.00    -0.339 A  
HETATM   15  C   UNL     1     -12.398  11.990  70.504  1.00  0.00    -0.369 A  
HETATM   16  C   UNL     1     -11.639   9.812  71.197  1.00  0.00    -0.469 A  
HETATM   17  C   UNL     1     -12.466  10.911  71.385  1.00  0.00    -0.460 A  
BRANCH  13  18
HETATM   18  C   UNL     1     -11.442  13.181  68.524  1.00  0.00    -0.303 C  
HETATM   19  O   UNL     1     -12.014  13.161  67.436  1.00  0.00    -0.365 OA 
BRANCH  18  20
HETATM   20  C   UNL     1     -10.744  14.448  69.003  1.00  0.00    -0.261 C  
BRANCH  20  21
HETATM   21  C   UNL     1     -11.727  15.579  69.287  1.00  0.00    -0.380 C  
BRANCH  21  22
HETATM   22  C   UNL     1     -12.285  15.521  70.689  1.00  0.00    -0.445 A  
HETATM   23  C   UNL     1     -13.657  15.321  70.903  1.00  0.00    -0.402 A  
HETATM   24  C   UNL     1     -14.168  15.243  72.200  1.00  0.00    -0.667 A  
HETATM   25  C   UNL     1     -13.316  15.369  73.294  1.00  0.00    -0.559 A  
HETATM   26  C   UNL     1     -11.953  15.582  73.093  1.00  0.00    -0.577 A  
HETATM   27  C   UNL     1     -11.439  15.661  71.797  1.00  0.00    -0.505 A  
ENDBRANCH  21  22
ENDBRANCH  20  21
ENDBRANCH  18  20
ENDBRANCH  13  18
ENDBRANCH  11  12
ENDBRANCH  10  11
ENDBRANCH   7  10
ENDBRANCH   6   7
ENDBRANCH   4   6
ENDBRANCH   3   4
ENDBRANCH   2   3
TORSDOF 11
ENDMDL
MODEL       19
REMARK 921   NORMALIZED FREE ENERGY PREDICTED BY IDOCK:   -6.22 KCAL/MOL
REMARK 922        TOTAL FREE ENERGY PREDICTED BY IDOCK:  -11.23 KCAL/MOL
REMARK 923 INTER-LIGAND FREE ENERGY PREDICTED BY IDOCK:   -9.33 KCAL/MOL
REMARK 924 INTRA-LIGAND FREE ENERGY PREDICTED BY IDOCK:   -1.90 KCAL/MOL
REMARK 927      BINDING AFFINITY PREDICTED BY RF-SCORE:    0.00 PKD
ROOT
HETATM    1  C   UNL     1      -9.225   9.704  65.273  1.00  0.00    -0.295 C  
HETATM    2  C   UNL     1      -9.447  11.110  64.736  1.00  0.00    -0.250 C  
ENDROOT
BRANCH   2   3
HETATM    3  C   UNL     1     -10.391  11.101  63.535  1.00  0.00    -0.387 C  
BRANCH   3   4
HETATM    4  N   UNL     1     -10.624  12.471  63.082  1.00  0.00    -0.565 NA 
HETATM    5  H   UNL     1     -10.481  12.569  62.077  1.00  0.00     0.000 HD 
BRANCH   4   6
HETATM    6  C   UNL     1     -11.961  12.921  63.492  1.00  0.00    -0.556 C  
BRANCH   6   7
HETATM    7  C   UNL     1     -11.871  14.142  64.425  1.00  0.00    -0.428 C  
HETATM    8  O   UNL     1     -12.322  15.326  63.750  1.00  0.00    -0.969 OA 
HETATM    9  H   UNL     1     -12.266  16.079  64.326  1.00  0.00     0.000 HD 
BRANCH   7  10
HETATM   10  C   UNL     1     -12.711  13.927  65.690  1.00  0.00    -0.495 C  
BRANCH  10  11
HETATM   11  O   UNL     1     -11.927  14.262  66.851  1.00  0.00    -0.416 OA 
BRANCH  11  12
HETATM   12  C   UNL     1     -11.277  13.208  67.440  1.00  0.00    -0.287 A  
HETATM   13  C   UNL     1      -9.936  13.361  67.847  1.00  0.00    -0.236 A  
HETATM   14  C   UNL     1     -11.896  11.957  67.586  1.00  0.00    -0.265 A  
HETATM   15  C   UNL     1      -9.273  12.277  68.448  1.00  0.00    -0.145 A  
HETATM   16  C   UNL     1     -11.218  10.886  68.167  1.00  0.00    -0.363 A  
HETATM   17  C   UNL     1      -9.910  11.046  68.603  1.00  0.00    -0.197 A  
BRANCH  13  18
HETATM   18  C   UNL     1      -9.199  14.657  67.684  1.00  0.00    -0.193 C  
HETATM   19  O   UNL     1      -8.822  15.022  66.573  1.00  0.00    -0.273 OA 
BRANCH  18  20
HETATM   20  C   UNL     1      -8.998  15.554  68.899  1.00  0.00    -0.220 C  
BRANCH  20  21
HETATM   21  C   UNL     1     -10.116  16.580  69.054  1.00  0.00    -0.279 C  
BRANCH  21  22
HETATM   22  C   UNL     1      -9.852  17.845  68.273  1.00  0.00    -0.348 A  
HETATM   23  C   UNL     1     -10.777  18.303  67.323  1.00  0.00    -0.366 A  
HETATM   24  C   UNL     1     -10.543  19.485  66.619  1.00  0.00    -0.583 A  
HETATM   25  C   UNL     1      -9.381  20.218  66.851  1.00  0.00    -0.505 A  
HETATM   26  C   UNL     1      -8.449  19.764  67.783  1.00  0.00    -0.359 A  
HETATM   27  C   UNL     1      -8.680  18.581  68.488  1.00  0.00    -0.352 A  
ENDBRANCH  21  22
ENDBRANCH  20  21
ENDBRANCH  18  20
ENDBRANCH  13  18
ENDBRANCH  11  12
ENDBRANCH  10  11
ENDBRANCH   7  10
ENDBRANCH   6   7
ENDBRANCH   4   6
ENDBRANCH   3   4
ENDBRANCH   2   3
TORSDOF 11
ENDMDL
MODEL       20
REMARK 921   NORMALIZED FREE ENERGY PREDICTED BY IDOCK:   -6.21 KCAL/MOL
REMARK 922        TOTAL FREE ENERGY PREDICTED BY IDOCK:  -11.22 KCAL/MOL
REMARK 923 INTER-LIGAND FREE ENERGY PREDICTED BY IDOCK:   -9.47 KCAL/MOL
REMARK 924 INTRA-LIGAND FREE ENERGY PREDICTED BY IDOCK:   -1.75 KCAL/MOL
REMARK 927      BINDING AFFINITY PREDICTED BY RF-SCORE:    0.00 PKD
ROOT
HETATM    1  C   UNL     1      -8.932   9.420  65.098  1.00  0.00    -0.258 C  
HETATM    2  C   UNL     1     -10.061  10.342  64.666  1.00  0.00    -0.378 C  
ENDROOT
BRANCH   2   3
HETATM    3  C   UNL     1      -9.777  10.959  63.297  1.00  0.00    -0.362 C  
BRANCH   3   4
HETATM    4  N   UNL     1     -10.810  11.943  62.978  1.00  0.00    -0.673 NA 
HETATM    5  H   UNL     1     -11.327  11.693  62.134  1.00  0.00     0.000 HD 
BRANCH   4   6
HETATM    6  C   UNL     1     -11.703  12.135  64.129  1.00  0.00    -0.396 C  
BRANCH   6   7
HETATM    7  C   UNL     1     -11.707  13.605  64.586  1.00  0.00    -0.388 C  
HETATM    8  O   UNL     1     -12.478  14.411  63.682  1.00  0.00    -1.066 OA 
HETATM    9  H   UNL     1     -12.480  15.318  63.964  1.00  0.00     0.000 HD 
BRANCH   7  10
HETATM   10  C   UNL     1     -12.282  13.737  66.001  1.00  0.00    -0.457 C  
BRANCH  10  11
HETATM   11  O   UNL     1     -11.355  13.176  66.952  1.00  0.00    -0.293 OA 
BRANCH  11  12
HETATM   12  C   UNL     1     -11.144  13.933  68.076  1.00  0.00    -0.259 A  
HETATM   13  C   UNL     1      -9.942  14.659  68.206  1.00  0.00    -0.222 A  
HETATM   14  C   UNL     1     -12.068  13.948  69.131  1.00  0.00    -0.377 A  
HETATM   15  C   UNL     1      -9.729  15.432  69.360  1.00  0.00    -0.273 A  
HETATM   16  C   UNL     1     -11.833  14.705  70.279  1.00  0.00    -0.363 A  
HETATM   17  C   UNL     1     -10.667  15.450  70.392  1.00  0.00    -0.312 A  
BRANCH  13  18
HETATM   18  C   UNL     1      -8.893  14.656  67.134  1.00  0.00    -0.221 C  
HETATM   19  O   UNL     1      -7.999  13.812  67.143  1.00  0.00    -0.145 OA 
BRANCH  18  20
HETATM   20  C   UNL     1      -8.995  15.658  65.991  1.00  0.00    -0.297 C  
BRANCH  20  21
HETATM   21  C   UNL     1      -8.138  16.897  66.228  1.00  0.00    -0.351 C  
BRANCH  21  22
HETATM   22  C   UNL     1      -8.865  17.959  67.018  1.00  0.00    -0.256 A  
HETATM   23  C   UNL     1     -10.191  18.294  66.709  1.00  0.00    -0.393 A  
HETATM   24  C   UNL     1     -10.871  19.259  67.455  1.00  0.00    -0.554 A  
HETATM   25  C   UNL     1     -10.231  19.902  68.512  1.00  0.00    -0.529 A  
HETATM   26  C   UNL     1      -8.909  19.586  68.819  1.00  0.00    -0.354 A  
HETATM   27  C   UNL     1      -8.227  18.622  68.073  1.00  0.00    -0.294 A  
ENDBRANCH  21  22
ENDBRANCH  20  21
ENDBRANCH  18  20
ENDBRANCH  13  18
ENDBRANCH  11  12
ENDBRANCH  10  11
ENDBRANCH   7  10
ENDBRANCH   6   7
ENDBRANCH   4   6
ENDBRANCH   3   4
ENDBRANCH   2   3
TORSDOF 11
ENDMDL
MODEL       21
REMARK 921   NORMALIZED FREE ENERGY PREDICTED BY IDOCK:   -6.21 KCAL/MOL
REMARK 922        TOTAL FREE ENERGY PREDICTED BY IDOCK:  -11.22 KCAL/MOL
REMARK 923 INTER-LIGAND FREE ENERGY PREDICTED BY IDOCK:  -10.34 KCAL/MOL
REMARK 924 INTRA-LIGAND FREE ENERGY PREDICTED BY IDOCK:   -0.87 KCAL/MOL
REMARK 927      BINDING AFFINITY PREDICTED BY RF-SCORE:    0.00 PKD
ROOT
HETATM    1  C   UNL     1      -9.980   5.318  69.165  1.00  0.00    -0.275 C  
HETATM    2  C   UNL     1     -11.174   6.234  69.388  1.00  0.00    -0.489 C  
ENDROOT
BRANCH   2   3
HETATM    3  C   UNL     1     -11.024   7.033  70.682  1.00  0.00    -0.260 C  
BRANCH   3   4
HETATM    4  N   UNL     1     -11.926   8.182  70.657  1.00  0.00    -0.486 NA 
HETATM    5  H   UNL     1     -12.103   8.508  69.707  1.00  0.00     0.000 HD 
BRANCH   4   6
HETATM    6  C   UNL     1     -13.173   7.865  71.368  1.00  0.00    -0.245 C  
BRANCH   6   7
HETATM    7  C   UNL     1     -13.783   9.127  72.005  1.00  0.00    -0.448 C  
HETATM    8  O   UNL     1     -14.232   8.850  73.340  1.00  0.00    -1.241 OA 
HETATM    9  H   UNL     1     -14.609   9.629  73.732  1.00  0.00     0.000 HD 
BRANCH   7  10
HETATM   10  C   UNL     1     -12.762  10.271  72.039  1.00  0.00    -0.301 C  
BRANCH  10  11
HETATM   11  O   UNL     1     -12.944  11.113  70.884  1.00  0.00    -0.297 OA 
BRANCH  11  12
HETATM   12  C   UNL     1     -12.984  12.459  71.145  1.00  0.00    -0.141 A  
HETATM   13  C   UNL     1     -12.224  13.341  70.349  1.00  0.00    -0.404 A  
HETATM   14  C   UNL     1     -13.711  12.972  72.229  1.00  0.00    -0.608 A  
HETATM   15  C   UNL     1     -12.265  14.719  70.621  1.00  0.00    -0.385 A  
HETATM   16  C   UNL     1     -13.726  14.341  72.497  1.00  0.00    -0.608 A  
HETATM   17  C   UNL     1     -13.009  15.215  71.692  1.00  0.00    -0.454 A  
BRANCH  13  18
HETATM   18  C   UNL     1     -11.391  12.856  69.200  1.00  0.00    -0.273 C  
HETATM   19  O   UNL     1     -10.988  11.696  69.170  1.00  0.00    -0.227 OA 
BRANCH  18  20
HETATM   20  C   UNL     1     -11.121  13.795  68.030  1.00  0.00    -0.284 C  
BRANCH  20  21
HETATM   21  C   UNL     1     -12.245  13.773  66.999  1.00  0.00    -0.381 C  
BRANCH  21  22
HETATM   22  C   UNL     1     -11.883  12.975  65.768  1.00  0.00    -0.453 A  
HETATM   23  C   UNL     1     -12.793  12.846  64.709  1.00  0.00    -0.359 A  
HETATM   24  C   UNL     1     -12.449  12.129  63.562  1.00  0.00    -0.666 A  
HETATM   25  C   UNL     1     -11.195  11.530  63.464  1.00  0.00    -0.412 A  
HETATM   26  C   UNL     1     -10.288  11.641  64.516  1.00  0.00    -0.349 A  
HETATM   27  C   UNL     1     -10.631  12.357  65.665  1.00  0.00    -0.297 A  
ENDBRANCH  21  22
ENDBRANCH  20  21
ENDBRANCH  18  20
ENDBRANCH  13  18
ENDBRANCH  11  12
ENDBRANCH  10  11
ENDBRANCH   7  10
ENDBRANCH   6   7
ENDBRANCH   4   6
ENDBRANCH   3   4
ENDBRANCH   2   3
TORSDOF 11
ENDMDL
MODEL       22
REMARK 921   NORMALIZED FREE ENERGY PREDICTED BY IDOCK:   -6.19 KCAL/MOL
REMARK 922        TOTAL FREE ENERGY PREDICTED BY IDOCK:  -11.18 KCAL/MOL
REMARK 923 INTER-LIGAND FREE ENERGY PREDICTED BY IDOCK:   -9.50 KCAL/MOL
REMARK 924 INTRA-LIGAND FREE ENERGY PREDICTED BY IDOCK:   -1.68 KCAL/MOL
REMARK 927      BINDING AFFINITY PREDICTED BY RF-SCORE:    0.00 PKD
ROOT
HETATM    1  C   UNL     1     -13.195   9.525  72.176  1.00  0.00    -0.539 C  
HETATM    2  C   UNL     1     -12.878  10.621  71.171  1.00  0.00    -0.518 C  
ENDROOT
BRANCH   2   3
HETATM    3  C   UNL     1     -13.134  12.006  71.764  1.00  0.00    -0.355 C  
BRANCH   3   4
HETATM    4  N   UNL     1     -12.228  12.977  71.154  1.00  0.00    -0.368 NA 
HETATM    5  H   UNL     1     -11.947  12.697  70.214  1.00  0.00     0.000 HD 
BRANCH   4   6
HETATM    6  C   UNL     1     -12.834  14.316  71.169  1.00  0.00    -0.359 C  
BRANCH   6   7
HETATM    7  C   UNL     1     -12.325  15.166  69.990  1.00  0.00    -0.315 C  
HETATM    8  O   UNL     1     -11.575  16.293  70.469  1.00  0.00    -0.465 OA 
HETATM    9  H   UNL     1     -11.262  16.817  69.741  1.00  0.00     0.000 HD 
BRANCH   7  10
HETATM   10  C   UNL     1     -11.445  14.330  69.053  1.00  0.00    -0.284 C  
BRANCH  10  11
HETATM   11  O   UNL     1     -12.281  13.526  68.198  1.00  0.00    -0.302 OA 
BRANCH  11  12
HETATM   12  C   UNL     1     -11.611  12.629  67.405  1.00  0.00    -0.360 A  
HETATM   13  C   UNL     1     -11.487  12.884  66.024  1.00  0.00    -0.384 A  
HETATM   14  C   UNL     1     -11.103  11.429  67.926  1.00  0.00    -0.320 A  
HETATM   15  C   UNL     1     -10.802  11.962  65.214  1.00  0.00    -0.347 A  
HETATM   16  C   UNL     1     -10.442  10.515  67.106  1.00  0.00    -0.302 A  
HETATM   17  C   UNL     1     -10.287  10.783  65.752  1.00  0.00    -0.295 A  
BRANCH  13  18
HETATM   18  C   UNL     1     -12.042  14.127  65.393  1.00  0.00    -0.410 C  
HETATM   19  O   UNL     1     -13.256  14.295  65.314  1.00  0.00    -0.704 OA 
BRANCH  18  20
HETATM   20  C   UNL     1     -11.082  15.214  64.927  1.00  0.00    -0.425 C  
BRANCH  20  21
HETATM   21  C   UNL     1      -9.907  15.399  65.881  1.00  0.00    -0.387 C  
BRANCH  21  22
HETATM   22  C   UNL     1      -9.859  16.786  66.476  1.00  0.00    -0.303 A  
HETATM   23  C   UNL     1     -10.548  17.846  65.869  1.00  0.00    -0.216 A  
HETATM   24  C   UNL     1     -10.522  19.123  66.433  1.00  0.00    -0.548 A  
HETATM   25  C   UNL     1      -9.805  19.354  67.604  1.00  0.00    -0.450 A  
HETATM   26  C   UNL     1      -9.106  18.311  68.208  1.00  0.00    -0.318 A  
HETATM   27  C   UNL     1      -9.129  17.033  67.645  1.00  0.00    -0.229 A  
ENDBRANCH  21  22
ENDBRANCH  20  21
ENDBRANCH  18  20
ENDBRANCH  13  18
ENDBRANCH  11  12
ENDBRANCH  10  11
ENDBRANCH   7  10
ENDBRANCH   6   7
ENDBRANCH   4   6
ENDBRANCH   3   4
ENDBRANCH   2   3
TORSDOF 11
ENDMDL
MODEL       23
REMARK 921   NORMALIZED FREE ENERGY PREDICTED BY IDOCK:   -6.19 KCAL/MOL
REMARK 922        TOTAL FREE ENERGY PREDICTED BY IDOCK:  -11.18 KCAL/MOL
REMARK 923 INTER-LIGAND FREE ENERGY PREDICTED BY IDOCK:   -9.66 KCAL/MOL
REMARK 924 INTRA-LIGAND FREE ENERGY PREDICTED BY IDOCK:   -1.52 KCAL/MOL
REMARK 927      BINDING AFFINITY PREDICTED BY RF-SCORE:    0.00 PKD
ROOT
HETATM    1  C   UNL     1     -13.611   9.536  72.080  1.00  0.00    -0.492 C  
HETATM    2  C   UNL     1     -12.717  10.614  71.487  1.00  0.00    -0.549 C  
ENDROOT
BRANCH   2   3
HETATM    3  C   UNL     1     -11.347  10.051  71.112  1.00  0.00    -0.323 C  
BRANCH   3   4
HETATM    4  N   UNL     1     -10.718  10.912  70.112  1.00  0.00    -0.440 NA 
HETATM    5  H   UNL     1     -10.202  11.681  70.542  1.00  0.00     0.000 HD 
BRANCH   4   6
HETATM    6  C   UNL     1      -9.869  10.115  69.216  1.00  0.00    -0.220 C  
BRANCH   6   7
HETATM    7  C   UNL     1     -10.563   9.882  67.861  1.00  0.00    -0.254 C  
HETATM    8  O   UNL     1     -11.901  10.403  67.884  1.00  0.00    -0.702 OA 
HETATM    9  H   UNL     1     -12.328  10.258  67.048  1.00  0.00     0.000 HD 
BRANCH   7  10
HETATM   10  C   UNL     1      -9.779  10.545  66.723  1.00  0.00    -0.179 C  
BRANCH  10  11
HETATM   11  O   UNL     1      -9.908  11.976  66.820  1.00  0.00    -0.199 OA 
BRANCH  11  12
HETATM   12  C   UNL     1     -10.698  12.556  65.860  1.00  0.00    -0.264 A  
HETATM   13  C   UNL     1     -11.663  13.511  66.242  1.00  0.00    -0.401 A  
HETATM   14  C   UNL     1     -10.615  12.171  64.513  1.00  0.00    -0.350 A  
HETATM   15  C   UNL     1     -12.472  14.101  65.256  1.00  0.00    -0.474 A  
HETATM   16  C   UNL     1     -11.438  12.752  63.550  1.00  0.00    -0.521 A  
HETATM   17  C   UNL     1     -12.362  13.720  63.919  1.00  0.00    -0.346 A  
BRANCH  13  18
HETATM   18  C   UNL     1     -11.834  13.940  67.669  1.00  0.00    -0.386 C  
HETATM   19  O   UNL     1     -12.110  13.114  68.536  1.00  0.00    -0.317 OA 
BRANCH  18  20
HETATM   20  C   UNL     1     -11.583  15.395  68.042  1.00  0.00    -0.303 C  
BRANCH  20  21
HETATM   21  C   UNL     1     -10.193  15.868  67.629  1.00  0.00    -0.263 C  
BRANCH  21  22
HETATM   22  C   UNL     1     -10.113  17.369  67.485  1.00  0.00    -0.322 A  
HETATM   23  C   UNL     1      -9.647  18.163  68.543  1.00  0.00    -0.349 A  
HETATM   24  C   UNL     1      -9.551  19.548  68.400  1.00  0.00    -0.473 A  
HETATM   25  C   UNL     1      -9.924  20.154  67.202  1.00  0.00    -0.595 A  
HETATM   26  C   UNL     1     -10.402  19.375  66.149  1.00  0.00    -0.595 A  
HETATM   27  C   UNL     1     -10.500  17.989  66.290  1.00  0.00    -0.340 A  
ENDBRANCH  21  22
ENDBRANCH  20  21
ENDBRANCH  18  20
ENDBRANCH  13  18
ENDBRANCH  11  12
ENDBRANCH  10  11
ENDBRANCH   7  10
ENDBRANCH   6   7
ENDBRANCH   4   6
ENDBRANCH   3   4
ENDBRANCH   2   3
TORSDOF 11
ENDMDL
MODEL       24
REMARK 921   NORMALIZED FREE ENERGY PREDICTED BY IDOCK:   -6.18 KCAL/MOL
REMARK 922        TOTAL FREE ENERGY PREDICTED BY IDOCK:  -11.17 KCAL/MOL
REMARK 923 INTER-LIGAND FREE ENERGY PREDICTED BY IDOCK:  -10.16 KCAL/MOL
REMARK 924 INTRA-LIGAND FREE ENERGY PREDICTED BY IDOCK:   -1.01 KCAL/MOL
REMARK 927      BINDING AFFINITY PREDICTED BY RF-SCORE:    0.00 PKD
ROOT
HETATM    1  C   UNL     1     -10.070  20.209  67.215  1.00  0.00    -0.572 C  
HETATM    2  C   UNL     1     -10.012  19.349  68.469  1.00  0.00    -0.520 C  
ENDROOT
BRANCH   2   3
HETATM    3  C   UNL     1      -8.817  18.398  68.432  1.00  0.00    -0.320 C  
BRANCH   3   4
HETATM    4  N   UNL     1      -9.287  17.023  68.278  1.00  0.00    -0.247 NA 
HETATM    5  H   UNL     1      -8.603  16.346  68.615  1.00  0.00     0.000 HD 
BRANCH   4   6
HETATM    6  C   UNL     1     -10.592  16.856  68.934  1.00  0.00    -0.353 C  
BRANCH   6   7
HETATM    7  C   UNL     1     -11.184  15.466  68.641  1.00  0.00    -0.308 C  
HETATM    8  O   UNL     1     -12.505  15.355  69.193  1.00  0.00    -0.600 OA 
HETATM    9  H   UNL     1     -12.870  14.497  69.012  1.00  0.00     0.000 HD 
BRANCH   7  10
HETATM   10  C   UNL     1     -11.240  15.202  67.132  1.00  0.00    -0.320 C  
BRANCH  10  11
HETATM   11  O   UNL     1     -12.192  14.155  66.862  1.00  0.00    -0.439 OA 
BRANCH  11  12
HETATM   12  C   UNL     1     -11.926  13.398  65.749  1.00  0.00    -0.407 A  
HETATM   13  C   UNL     1     -11.179  12.209  65.883  1.00  0.00    -0.384 A  
HETATM   14  C   UNL     1     -12.321  13.815  64.469  1.00  0.00    -0.399 A  
HETATM   15  C   UNL     1     -10.906  11.438  64.740  1.00  0.00    -0.339 A  
HETATM   16  C   UNL     1     -12.026  13.048  63.343  1.00  0.00    -0.592 A  
HETATM   17  C   UNL     1     -11.324  11.858  63.477  1.00  0.00    -0.516 A  
BRANCH  13  18
HETATM   18  C   UNL     1     -10.689  11.725  67.215  1.00  0.00    -0.237 C  
HETATM   19  O   UNL     1      -9.545  11.977  67.585  1.00  0.00    -0.180 OA 
BRANCH  18  20
HETATM   20  C   UNL     1     -11.652  10.988  68.137  1.00  0.00    -0.345 C  
BRANCH  20  21
HETATM   21  C   UNL     1     -11.614  11.525  69.564  1.00  0.00    -0.400 C  
BRANCH  21  22
HETATM   22  C   UNL     1     -11.870  10.449  70.593  1.00  0.00    -0.445 A  
HETATM   23  C   UNL     1     -10.828   9.618  71.029  1.00  0.00    -0.412 A  
HETATM   24  C   UNL     1     -11.061   8.639  71.997  1.00  0.00    -0.437 A  
HETATM   25  C   UNL     1     -12.336   8.479  72.535  1.00  0.00    -0.372 A  
HETATM   26  C   UNL     1     -13.381   9.291  72.099  1.00  0.00    -0.537 A  
HETATM   27  C   UNL     1     -13.151  10.269  71.129  1.00  0.00    -0.481 A  
ENDBRANCH  21  22
ENDBRANCH  20  21
ENDBRANCH  18  20
ENDBRANCH  13  18
ENDBRANCH  11  12
ENDBRANCH  10  11
ENDBRANCH   7  10
ENDBRANCH   6   7
ENDBRANCH   4   6
ENDBRANCH   3   4
ENDBRANCH   2   3
TORSDOF 11
ENDMDL
MODEL       25
REMARK 921   NORMALIZED FREE ENERGY PREDICTED BY IDOCK:   -6.18 KCAL/MOL
REMARK 922        TOTAL FREE ENERGY PREDICTED BY IDOCK:  -11.17 KCAL/MOL
REMARK 923 INTER-LIGAND FREE ENERGY PREDICTED BY IDOCK:   -9.24 KCAL/MOL
REMARK 924 INTRA-LIGAND FREE ENERGY PREDICTED BY IDOCK:   -1.92 KCAL/MOL
REMARK 927      BINDING AFFINITY PREDICTED BY RF-SCORE:    0.00 PKD
ROOT
HETATM    1  C   UNL     1     -13.499  15.729  73.120  1.00  0.00    -0.652 C  
HETATM    2  C   UNL     1     -13.928  15.301  71.725  1.00  0.00    -0.638 C  
ENDROOT
BRANCH   2   3
HETATM    3  C   UNL     1     -12.750  15.323  70.753  1.00  0.00    -0.433 C  
BRANCH   3   4
HETATM    4  N   UNL     1     -12.784  14.128  69.911  1.00  0.00    -0.424 NA 
HETATM    5  H   UNL     1     -12.079  14.161  69.175  1.00  0.00     0.000 HD 
BRANCH   4   6
HETATM    6  C   UNL     1     -12.658  12.920  70.739  1.00  0.00    -0.232 C  
BRANCH   6   7
HETATM    7  C   UNL     1     -11.892  11.815  69.989  1.00  0.00    -0.342 C  
HETATM    8  O   UNL     1     -12.794  10.788  69.549  1.00  0.00    -0.549 OA 
HETATM    9  H   UNL     1     -12.320  10.106  69.087  1.00  0.00     0.000 HD 
BRANCH   7  10
HETATM   10  C   UNL     1     -11.147  12.390  68.779  1.00  0.00    -0.262 C  
BRANCH  10  11
HETATM   11  O   UNL     1     -11.803  11.972  67.566  1.00  0.00    -0.526 OA 
BRANCH  11  12
HETATM   12  C   UNL     1     -11.007  11.294  66.678  1.00  0.00    -0.268 A  
HETATM   13  C   UNL     1     -11.059  11.627  65.308  1.00  0.00    -0.298 A  
HETATM   14  C   UNL     1     -10.192  10.229  67.090  1.00  0.00    -0.277 A  
HETATM   15  C   UNL     1     -10.244  10.929  64.401  1.00  0.00    -0.423 A  
HETATM   16  C   UNL     1      -9.403   9.534  66.174  1.00  0.00    -0.254 A  
HETATM   17  C   UNL     1      -9.425   9.886  64.831  1.00  0.00    -0.355 A  
BRANCH  13  18
HETATM   18  C   UNL     1     -11.939  12.726  64.791  1.00  0.00    -0.402 C  
HETATM   19  O   UNL     1     -13.153  12.561  64.703  1.00  0.00    -0.845 OA 
BRANCH  18  20
HETATM   20  C   UNL     1     -11.320  14.077  64.455  1.00  0.00    -0.365 C  
BRANCH  20  21
HETATM   21  C   UNL     1     -11.655  15.143  65.494  1.00  0.00    -0.142 C  
BRANCH  21  22
HETATM   22  C   UNL     1     -10.568  15.299  66.531  1.00  0.00    -0.304 A  
HETATM   23  C   UNL     1      -9.324  14.675  66.360  1.00  0.00    -0.313 A  
HETATM   24  C   UNL     1      -8.312  14.839  67.308  1.00  0.00    -0.234 A  
HETATM   25  C   UNL     1      -8.535  15.624  68.438  1.00  0.00    -0.164 A  
HETATM   26  C   UNL     1      -9.772  16.237  68.624  1.00  0.00    -0.235 A  
HETATM   27  C   UNL     1     -10.787  16.073  67.678  1.00  0.00    -0.311 A  
ENDBRANCH  21  22
ENDBRANCH  20  21
ENDBRANCH  18  20
ENDBRANCH  13  18
ENDBRANCH  11  12
ENDBRANCH  10  11
ENDBRANCH   7  10
ENDBRANCH   6   7
ENDBRANCH   4   6
ENDBRANCH   3   4
ENDBRANCH   2   3
TORSDOF 11
ENDMDL
MODEL       26
REMARK 921   NORMALIZED FREE ENERGY PREDICTED BY IDOCK:   -6.16 KCAL/MOL
REMARK 922        TOTAL FREE ENERGY PREDICTED BY IDOCK:  -11.14 KCAL/MOL
REMARK 923 INTER-LIGAND FREE ENERGY PREDICTED BY IDOCK:   -9.97 KCAL/MOL
REMARK 924 INTRA-LIGAND FREE ENERGY PREDICTED BY IDOCK:   -1.17 KCAL/MOL
REMARK 927      BINDING AFFINITY PREDICTED BY RF-SCORE:    0.00 PKD
ROOT
HETATM    1  C   UNL     1     -13.010  14.946  73.167  1.00  0.00    -0.627 C  
HETATM    2  C   UNL     1     -13.940  14.068  72.344  1.00  0.00    -0.622 C  
ENDROOT
BRANCH   2   3
HETATM    3  C   UNL     1     -13.186  12.891  71.727  1.00  0.00    -0.384 C  
BRANCH   3   4
HETATM    4  N   UNL     1     -13.527  11.662  72.440  1.00  0.00    -0.475 NA 
HETATM    5  H   UNL     1     -14.525  11.604  72.646  1.00  0.00     0.000 HD 
BRANCH   4   6
HETATM    6  C   UNL     1     -13.054  10.491  71.688  1.00  0.00    -0.446 C  
BRANCH   6   7
HETATM    7  C   UNL     1     -12.967   9.250  72.596  1.00  0.00    -0.212 C  
HETATM    8  O   UNL     1     -14.265   8.907  73.106  1.00  0.00    -1.144 OA 
HETATM    9  H   UNL     1     -14.210   8.142  73.666  1.00  0.00     0.000 HD 
BRANCH   7  10
HETATM   10  C   UNL     1     -12.389   8.053  71.832  1.00  0.00    -0.323 C  
BRANCH  10  11
HETATM   11  O   UNL     1     -11.166   8.444  71.178  1.00  0.00    -0.249 OA 
BRANCH  11  12
HETATM   12  C   UNL     1     -10.958   7.880  69.946  1.00  0.00    -0.178 A  
HETATM   13  C   UNL     1     -10.708   8.714  68.836  1.00  0.00    -0.109 A  
HETATM   14  C   UNL     1     -11.055   6.494  69.749  1.00  0.00    -0.430 A  
HETATM   15  C   UNL     1     -10.497   8.133  67.574  1.00  0.00    -0.326 A  
HETATM   16  C   UNL     1     -10.862   5.934  68.487  1.00  0.00    -0.323 A  
HETATM   17  C   UNL     1     -10.579   6.751  67.401  1.00  0.00    -0.372 A  
BRANCH  13  18
HETATM   18  C   UNL     1     -10.631  10.206  68.966  1.00  0.00    -0.223 C  
HETATM   19  O   UNL     1      -9.586  10.746  69.321  1.00  0.00    -0.187 OA 
BRANCH  18  20
HETATM   20  C   UNL     1     -11.838  11.049  68.573  1.00  0.00    -0.286 C  
BRANCH  20  21
HETATM   21  C   UNL     1     -11.437  12.351  67.886  1.00  0.00    -0.385 C  
BRANCH  21  22
HETATM   22  C   UNL     1     -11.466  12.241  66.380  1.00  0.00    -0.434 A  
HETATM   23  C   UNL     1     -12.389  12.984  65.629  1.00  0.00    -0.504 A  
HETATM   24  C   UNL     1     -12.398  12.900  64.235  1.00  0.00    -0.458 A  
HETATM   25  C   UNL     1     -11.491  12.072  63.580  1.00  0.00    -0.536 A  
HETATM   26  C   UNL     1     -10.579  11.320  64.317  1.00  0.00    -0.422 A  
HETATM   27  C   UNL     1     -10.568  11.400  65.712  1.00  0.00    -0.315 A  
ENDBRANCH  21  22
ENDBRANCH  20  21
ENDBRANCH  18  20
ENDBRANCH  13  18
ENDBRANCH  11  12
ENDBRANCH  10  11
ENDBRANCH   7  10
ENDBRANCH   6   7
ENDBRANCH   4   6
ENDBRANCH   3   4
ENDBRANCH   2   3
TORSDOF 11
ENDMDL
MODEL       27
REMARK 921   NORMALIZED FREE ENERGY PREDICTED BY IDOCK:   -6.14 KCAL/MOL
REMARK 922        TOTAL FREE ENERGY PREDICTED BY IDOCK:  -11.11 KCAL/MOL
REMARK 923 INTER-LIGAND FREE ENERGY PREDICTED BY IDOCK:   -9.95 KCAL/MOL
REMARK 924 INTRA-LIGAND FREE ENERGY PREDICTED BY IDOCK:   -1.16 KCAL/MOL
REMARK 927      BINDING AFFINITY PREDICTED BY RF-SCORE:    0.00 PKD
ROOT
HETATM    1  C   UNL     1      -9.589  20.648  67.319  1.00  0.00    -0.558 C  
HETATM    2  C   UNL     1     -10.555  19.475  67.255  1.00  0.00    -0.610 C  
ENDROOT
BRANCH   2   3
HETATM    3  C   UNL     1     -10.658  18.920  65.835  1.00  0.00    -0.373 C  
BRANCH   3   4
HETATM    4  N   UNL     1     -10.387  17.484  65.847  1.00  0.00    -0.549 NA 
HETATM    5  H   UNL     1      -9.483  17.263  65.430  1.00  0.00     0.000 HD 
BRANCH   4   6
HETATM    6  C   UNL     1     -10.505  16.956  67.214  1.00  0.00    -0.301 C  
BRANCH   6   7
HETATM    7  C   UNL     1     -10.838  15.453  67.199  1.00  0.00    -0.321 C  
HETATM    8  O   UNL     1     -12.018  15.192  67.973  1.00  0.00    -0.489 OA 
HETATM    9  H   UNL     1     -12.223  14.265  67.964  1.00  0.00     0.000 HD 
BRANCH   7  10
HETATM   10  C   UNL     1     -11.049  14.954  65.765  1.00  0.00    -0.342 C  
BRANCH  10  11
HETATM   11  O   UNL     1     -11.791  13.718  65.790  1.00  0.00    -0.340 OA 
BRANCH  11  12
HETATM   12  C   UNL     1     -11.143  12.639  65.245  1.00  0.00    -0.295 A  
HETATM   13  C   UNL     1     -10.545  11.687  66.097  1.00  0.00    -0.306 A  
HETATM   14  C   UNL     1     -11.003  12.495  63.857  1.00  0.00    -0.471 A  
HETATM   15  C   UNL     1      -9.881  10.584  65.534  1.00  0.00    -0.324 A  
HETATM   16  C   UNL     1     -10.325  11.405  63.314  1.00  0.00    -0.422 A  
HETATM   17  C   UNL     1      -9.768  10.447  64.151  1.00  0.00    -0.387 A  
BRANCH  13  18
HETATM   18  C   UNL     1     -10.620  11.800  67.590  1.00  0.00    -0.205 C  
HETATM   19  O   UNL     1      -9.715  12.343  68.219  1.00  0.00    -0.215 OA 
BRANCH  18  20
HETATM   20  C   UNL     1     -11.870  11.309  68.311  1.00  0.00    -0.299 C  
BRANCH  20  21
HETATM   21  C   UNL     1     -11.895  11.726  69.777  1.00  0.00    -0.420 C  
BRANCH  21  22
HETATM   22  C   UNL     1     -11.974  10.543  70.713  1.00  0.00    -0.472 A  
HETATM   23  C   UNL     1     -10.876   9.684  70.869  1.00  0.00    -0.409 A  
HETATM   24  C   UNL     1     -10.942   8.604  71.752  1.00  0.00    -0.396 A  
HETATM   25  C   UNL     1     -12.105   8.369  72.482  1.00  0.00    -0.403 A  
HETATM   26  C   UNL     1     -13.206   9.209  72.324  1.00  0.00    -0.528 A  
HETATM   27  C   UNL     1     -13.143  10.289  71.440  1.00  0.00    -0.512 A  
ENDBRANCH  21  22
ENDBRANCH  20  21
ENDBRANCH  18  20
ENDBRANCH  13  18
ENDBRANCH  11  12
ENDBRANCH  10  11
ENDBRANCH   7  10
ENDBRANCH   6   7
ENDBRANCH   4   6
ENDBRANCH   3   4
ENDBRANCH   2   3
TORSDOF 11
ENDMDL
MODEL       28
REMARK 921   NORMALIZED FREE ENERGY PREDICTED BY IDOCK:   -6.13 KCAL/MOL
REMARK 922        TOTAL FREE ENERGY PREDICTED BY IDOCK:  -11.09 KCAL/MOL
REMARK 923 INTER-LIGAND FREE ENERGY PREDICTED BY IDOCK:   -9.38 KCAL/MOL
REMARK 924 INTRA-LIGAND FREE ENERGY PREDICTED BY IDOCK:   -1.71 KCAL/MOL
REMARK 927      BINDING AFFINITY PREDICTED BY RF-SCORE:    0.00 PKD
ROOT
HETATM    1  C   UNL     1      -8.973  15.348  66.217  1.00  0.00    -0.341 C  
HETATM    2  C   UNL     1     -10.383  15.901  66.075  1.00  0.00    -0.363 C  
ENDROOT
BRANCH   2   3
HETATM    3  C   UNL     1     -10.989  15.530  64.722  1.00  0.00    -0.399 C  
BRANCH   3   4
HETATM    4  N   UNL     1     -10.906  14.084  64.527  1.00  0.00    -0.563 NA 
HETATM    5  H   UNL     1     -10.541  13.608  65.353  1.00  0.00     0.000 HD 
BRANCH   4   6
HETATM    6  C   UNL     1     -12.213  13.550  64.119  1.00  0.00    -0.394 C  
BRANCH   6   7
HETATM    7  C   UNL     1     -12.184  12.013  64.048  1.00  0.00    -0.403 C  
HETATM    8  O   UNL     1     -12.766  11.554  62.818  1.00  0.00    -0.907 OA 
HETATM    9  H   UNL     1     -12.748  10.606  62.775  1.00  0.00     0.000 HD 
BRANCH   7  10
HETATM   10  C   UNL     1     -10.748  11.486  64.159  1.00  0.00    -0.368 C  
BRANCH  10  11
HETATM   11  O   UNL     1     -10.636  10.631  65.313  1.00  0.00    -0.231 OA 
BRANCH  11  12
HETATM   12  C   UNL     1      -9.612  10.941  66.171  1.00  0.00    -0.202 A  
HETATM   13  C   UNL     1      -9.909  11.501  67.430  1.00  0.00    -0.202 A  
HETATM   14  C   UNL     1      -8.270  10.777  65.796  1.00  0.00    -0.146 A  
HETATM   15  C   UNL     1      -8.856  11.819  68.305  1.00  0.00    -0.172 A  
HETATM   16  C   UNL     1      -7.236  11.116  66.669  1.00  0.00    -0.144 A  
HETATM   17  C   UNL     1      -7.528  11.632  67.924  1.00  0.00    -0.105 A  
BRANCH  13  18
HETATM   18  C   UNL     1     -11.319  11.742  67.880  1.00  0.00    -0.292 C  
HETATM   19  O   UNL     1     -12.019  10.806  68.259  1.00  0.00    -0.520 OA 
BRANCH  18  20
HETATM   20  C   UNL     1     -11.846  13.170  67.938  1.00  0.00    -0.390 C  
BRANCH  20  21
HETATM   21  C   UNL     1     -11.323  13.932  69.152  1.00  0.00    -0.331 C  
BRANCH  21  22
HETATM   22  C   UNL     1     -12.307  13.937  70.298  1.00  0.00    -0.413 A  
HETATM   23  C   UNL     1     -13.004  15.108  70.633  1.00  0.00    -0.420 A  
HETATM   24  C   UNL     1     -13.931  15.105  71.677  1.00  0.00    -0.618 A  
HETATM   25  C   UNL     1     -14.166  13.938  72.399  1.00  0.00    -0.506 A  
HETATM   26  C   UNL     1     -13.469  12.773  72.083  1.00  0.00    -0.591 A  
HETATM   27  C   UNL     1     -12.540  12.773  71.040  1.00  0.00    -0.362 A  
ENDBRANCH  21  22
ENDBRANCH  20  21
ENDBRANCH  18  20
ENDBRANCH  13  18
ENDBRANCH  11  12
ENDBRANCH  10  11
ENDBRANCH   7  10
ENDBRANCH   6   7
ENDBRANCH   4   6
ENDBRANCH   3   4
ENDBRANCH   2   3
TORSDOF 11
ENDMDL
MODEL       29
REMARK 921   NORMALIZED FREE ENERGY PREDICTED BY IDOCK:   -6.11 KCAL/MOL
REMARK 922        TOTAL FREE ENERGY PREDICTED BY IDOCK:  -11.05 KCAL/MOL
REMARK 923 INTER-LIGAND FREE ENERGY PREDICTED BY IDOCK:   -9.25 KCAL/MOL
REMARK 924 INTRA-LIGAND FREE ENERGY PREDICTED BY IDOCK:   -1.81 KCAL/MOL
REMARK 927      BINDING AFFINITY PREDICTED BY RF-SCORE:    0.00 PKD
ROOT
HETATM    1  C   UNL     1     -12.546  11.804  70.933  1.00  0.00    -0.384 C  
HETATM    2  C   UNL     1     -13.394  12.313  72.089  1.00  0.00    -0.473 C  
ENDROOT
BRANCH   2   3
HETATM    3  C   UNL     1     -13.473  13.839  72.087  1.00  0.00    -0.502 C  
BRANCH   3   4
HETATM    4  N   UNL     1     -13.146  14.347  70.756  1.00  0.00    -0.395 NA 
HETATM    5  H   UNL     1     -13.961  14.358  70.142  1.00  0.00     0.000 HD 
BRANCH   4   6
HETATM    6  C   UNL     1     -12.518  15.671  70.857  1.00  0.00    -0.445 C  
BRANCH   6   7
HETATM    7  C   UNL     1     -11.352  15.807  69.861  1.00  0.00    -0.349 C  
HETATM    8  O   UNL     1     -10.268  14.943  70.235  1.00  0.00    -0.480 OA 
HETATM    9  H   UNL     1      -9.548  15.027  69.620  1.00  0.00     0.000 HD 
BRANCH   7  10
HETATM   10  C   UNL     1     -11.806  15.467  68.437  1.00  0.00    -0.244 C  
BRANCH  10  11
HETATM   11  O   UNL     1     -11.427  14.113  68.122  1.00  0.00    -0.276 OA 
BRANCH  11  12
HETATM   12  C   UNL     1     -11.440  13.800  66.786  1.00  0.00    -0.348 A  
HETATM   13  C   UNL     1     -10.219  13.670  66.094  1.00  0.00    -0.306 A  
HETATM   14  C   UNL     1     -12.644  13.672  66.077  1.00  0.00    -0.441 A  
HETATM   15  C   UNL     1     -10.236  13.352  64.725  1.00  0.00    -0.339 A  
HETATM   16  C   UNL     1     -12.644  13.375  64.715  1.00  0.00    -0.370 A  
HETATM   17  C   UNL     1     -11.443  13.209  64.039  1.00  0.00    -0.455 A  
BRANCH  13  18
HETATM   18  C   UNL     1      -8.895  13.834  66.780  1.00  0.00    -0.138 C  
HETATM   19  O   UNL     1      -8.258  12.849  67.144  1.00  0.00    -0.182 OA 
BRANCH  18  20
HETATM   20  C   UNL     1      -8.313  15.232  66.946  1.00  0.00    -0.278 C  
BRANCH  20  21
HETATM   21  C   UNL     1      -8.956  16.244  66.003  1.00  0.00    -0.325 C  
BRANCH  21  22
HETATM   22  C   UNL     1      -9.388  17.504  66.716  1.00  0.00    -0.275 A  
HETATM   23  C   UNL     1      -8.867  17.822  67.978  1.00  0.00    -0.259 A  
HETATM   24  C   UNL     1      -9.248  19.000  68.625  1.00  0.00    -0.414 A  
HETATM   25  C   UNL     1     -10.156  19.866  68.021  1.00  0.00    -0.572 A  
HETATM   26  C   UNL     1     -10.689  19.552  66.772  1.00  0.00    -0.569 A  
HETATM   27  C   UNL     1     -10.311  18.375  66.123  1.00  0.00    -0.431 A  
ENDBRANCH  21  22
ENDBRANCH  20  21
ENDBRANCH  18  20
ENDBRANCH  13  18
ENDBRANCH  11  12
ENDBRANCH  10  11
ENDBRANCH   7  10
ENDBRANCH   6   7
ENDBRANCH   4   6
ENDBRANCH   3   4
ENDBRANCH   2   3
TORSDOF 11
ENDMDL
MODEL       30
REMARK 921   NORMALIZED FREE ENERGY PREDICTED BY IDOCK:   -6.11 KCAL/MOL
REMARK 922        TOTAL FREE ENERGY PREDICTED BY IDOCK:  -11.05 KCAL/MOL
REMARK 923 INTER-LIGAND FREE ENERGY PREDICTED BY IDOCK:   -9.86 KCAL/MOL
REMARK 924 INTRA-LIGAND FREE ENERGY PREDICTED BY IDOCK:   -1.18 KCAL/MOL
REMARK 927      BINDING AFFINITY PREDICTED BY RF-SCORE:    0.00 PKD
ROOT
HETATM    1  C   UNL     1      -9.776   5.837  70.141  1.00  0.00    -0.219 C  
HETATM    2  C   UNL     1     -11.210   6.321  69.984  1.00  0.00    -0.480 C  
ENDROOT
BRANCH   2   3
HETATM    3  C   UNL     1     -11.698   7.023  71.250  1.00  0.00    -0.317 C  
BRANCH   3   4
HETATM    4  N   UNL     1     -12.691   8.036  70.898  1.00  0.00    -0.509 NA 
HETATM    5  H   UNL     1     -13.581   7.619  70.624  1.00  0.00     0.000 HD 
BRANCH   4   6
HETATM    6  C   UNL     1     -12.851   8.995  72.000  1.00  0.00    -0.401 C  
BRANCH   6   7
HETATM    7  C   UNL     1     -13.100  10.416  71.464  1.00  0.00    -0.431 C  
HETATM    8  O   UNL     1     -13.317  11.332  72.549  1.00  0.00    -0.506 OA 
HETATM    9  H   UNL     1     -13.471  12.209  72.217  1.00  0.00     0.000 HD 
BRANCH   7  10
HETATM   10  C   UNL     1     -11.913  10.899  70.622  1.00  0.00    -0.368 C  
BRANCH  10  11
HETATM   11  O   UNL     1     -12.379  11.296  69.317  1.00  0.00    -0.342 OA 
BRANCH  11  12
HETATM   12  C   UNL     1     -11.517  11.028  68.284  1.00  0.00    -0.304 A  
HETATM   13  C   UNL     1     -11.130  12.070  67.417  1.00  0.00    -0.337 A  
HETATM   14  C   UNL     1     -11.065   9.724  68.029  1.00  0.00    -0.168 A  
HETATM   15  C   UNL     1     -10.248  11.790  66.359  1.00  0.00    -0.248 A  
HETATM   16  C   UNL     1     -10.206   9.460  66.963  1.00  0.00    -0.322 A  
HETATM   17  C   UNL     1      -9.794  10.492  66.131  1.00  0.00    -0.271 A  
BRANCH  13  18
HETATM   18  C   UNL     1     -11.607  13.479  67.606  1.00  0.00    -0.339 C  
HETATM   19  O   UNL     1     -12.439  13.961  66.841  1.00  0.00    -0.357 OA 
BRANCH  18  20
HETATM   20  C   UNL     1     -11.112  14.277  68.806  1.00  0.00    -0.276 C  
BRANCH  20  21
HETATM   21  C   UNL     1     -12.007  15.471  69.117  1.00  0.00    -0.331 C  
BRANCH  21  22
HETATM   22  C   UNL     1     -12.413  15.525  70.571  1.00  0.00    -0.472 A  
HETATM   23  C   UNL     1     -11.547  16.065  71.533  1.00  0.00    -0.529 A  
HETATM   24  C   UNL     1     -11.932  16.136  72.873  1.00  0.00    -0.623 A  
HETATM   25  C   UNL     1     -13.183  15.664  73.266  1.00  0.00    -0.666 A  
HETATM   26  C   UNL     1     -14.045  15.113  72.320  1.00  0.00    -0.633 A  
HETATM   27  C   UNL     1     -13.661  15.040  70.979  1.00  0.00    -0.417 A  
ENDBRANCH  21  22
ENDBRANCH  20  21
ENDBRANCH  18  20
ENDBRANCH  13  18
ENDBRANCH  11  12
ENDBRANCH  10  11
ENDBRANCH   7  10
ENDBRANCH   6   7
ENDBRANCH   4   6
ENDBRANCH   3   4
ENDBRANCH   2   3
TORSDOF 11
ENDMDL
MODEL       31
REMARK 921   NORMALIZED FREE ENERGY PREDICTED BY IDOCK:   -6.08 KCAL/MOL
REMARK 922        TOTAL FREE ENERGY PREDICTED BY IDOCK:  -11.01 KCAL/MOL
REMARK 923 INTER-LIGAND FREE ENERGY PREDICTED BY IDOCK:   -9.63 KCAL/MOL
REMARK 924 INTRA-LIGAND FREE ENERGY PREDICTED BY IDOCK:   -1.38 KCAL/MOL
REMARK 927      BINDING AFFINITY PREDICTED BY RF-SCORE:    0.00 PKD
ROOT
HETATM    1  C   UNL     1     -13.935   8.581  71.749  1.00  0.00    -0.491 C  
HETATM    2  C   UNL     1     -13.169   9.867  72.020  1.00  0.00    -0.555 C  
ENDROOT
BRANCH   2   3
HETATM    3  C   UNL     1     -11.806   9.855  71.329  1.00  0.00    -0.395 C  
BRANCH   3   4
HETATM    4  N   UNL     1     -11.768   8.783  70.336  1.00  0.00    -0.467 NA 
HETATM    5  H   UNL     1     -12.676   8.643  69.892  1.00  0.00     0.000 HD 
BRANCH   4   6
HETATM    6  C   UNL     1     -10.710   9.042  69.349  1.00  0.00    -0.191 C  
BRANCH   6   7
HETATM    7  C   UNL     1     -10.637  10.539  68.996  1.00  0.00    -0.222 C  
HETATM    8  O   UNL     1      -9.300  11.032  69.170  1.00  0.00    -0.360 OA 
HETATM    9  H   UNL     1      -9.256  11.956  68.952  1.00  0.00     0.000 HD 
BRANCH   7  10
HETATM   10  C   UNL     1     -11.085  10.782  67.550  1.00  0.00    -0.308 C  
BRANCH  10  11
HETATM   11  O   UNL     1     -11.981  11.910  67.508  1.00  0.00    -0.586 OA 
BRANCH  11  12
HETATM   12  C   UNL     1     -11.827  12.735  66.423  1.00  0.00    -0.408 A  
HETATM   13  C   UNL     1     -11.254  14.012  66.599  1.00  0.00    -0.330 A  
HETATM   14  C   UNL     1     -12.289  12.364  65.151  1.00  0.00    -0.403 A  
HETATM   15  C   UNL     1     -11.101  14.855  65.485  1.00  0.00    -0.353 A  
HETATM   16  C   UNL     1     -12.146  13.220  64.059  1.00  0.00    -0.508 A  
HETATM   17  C   UNL     1     -11.549  14.462  64.224  1.00  0.00    -0.279 A  
BRANCH  13  18
HETATM   18  C   UNL     1     -10.776  14.490  67.938  1.00  0.00    -0.245 C  
HETATM   19  O   UNL     1      -9.816  13.951  68.483  1.00  0.00    -0.226 OA 
BRANCH  18  20
HETATM   20  C   UNL     1     -11.443  15.702  68.575  1.00  0.00    -0.380 C  
BRANCH  20  21
HETATM   21  C   UNL     1     -10.431  16.668  69.183  1.00  0.00    -0.333 C  
BRANCH  21  22
HETATM   22  C   UNL     1     -10.175  17.866  68.301  1.00  0.00    -0.391 A  
HETATM   23  C   UNL     1      -9.484  18.982  68.796  1.00  0.00    -0.433 A  
HETATM   24  C   UNL     1      -9.227  20.079  67.972  1.00  0.00    -0.376 A  
HETATM   25  C   UNL     1      -9.662  20.076  66.649  1.00  0.00    -0.566 A  
HETATM   26  C   UNL     1     -10.362  18.978  66.151  1.00  0.00    -0.537 A  
HETATM   27  C   UNL     1     -10.622  17.880  66.973  1.00  0.00    -0.287 A  
ENDBRANCH  21  22
ENDBRANCH  20  21
ENDBRANCH  18  20
ENDBRANCH  13  18
ENDBRANCH  11  12
ENDBRANCH  10  11
ENDBRANCH   7  10
ENDBRANCH   6   7
ENDBRANCH   4   6
ENDBRANCH   3   4
ENDBRANCH   2   3
TORSDOF 11
ENDMDL
MODEL       32
REMARK 921   NORMALIZED FREE ENERGY PREDICTED BY IDOCK:   -6.07 KCAL/MOL
REMARK 922        TOTAL FREE ENERGY PREDICTED BY IDOCK:  -11.00 KCAL/MOL
REMARK 923 INTER-LIGAND FREE ENERGY PREDICTED BY IDOCK:   -9.42 KCAL/MOL
REMARK 924 INTRA-LIGAND FREE ENERGY PREDICTED BY IDOCK:   -1.58 KCAL/MOL
REMARK 927      BINDING AFFINITY PREDICTED BY RF-SCORE:    0.00 PKD
ROOT
HETATM    1  C   UNL     1      -8.552  19.495  66.294  1.00  0.00    -0.382 C  
HETATM    2  C   UNL     1     -10.064  19.656  66.289  1.00  0.00    -0.578 C  
ENDROOT
BRANCH   2   3
HETATM    3  C   UNL     1     -10.664  19.291  67.646  1.00  0.00    -0.425 C  
BRANCH   3   4
HETATM    4  N   UNL     1      -9.629  18.712  68.501  1.00  0.00    -0.345 NA 
HETATM    5  H   UNL     1      -9.408  19.315  69.293  1.00  0.00     0.000 HD 
BRANCH   4   6
HETATM    6  C   UNL     1     -10.023  17.363  68.932  1.00  0.00    -0.308 C  
BRANCH   6   7
HETATM    7  C   UNL     1      -9.156  16.290  68.248  1.00  0.00    -0.197 C  
HETATM    8  O   UNL     1      -9.013  15.142  69.099  1.00  0.00    -0.209 OA 
HETATM    9  H   UNL     1      -8.478  14.480  68.677  1.00  0.00     0.000 HD 
BRANCH   7  10
HETATM   10  C   UNL     1      -9.773  15.858  66.912  1.00  0.00    -0.230 C  
BRANCH  10  11
HETATM   11  O   UNL     1     -11.016  15.171  67.155  1.00  0.00    -0.315 OA 
BRANCH  11  12
HETATM   12  C   UNL     1     -11.431  14.342  66.145  1.00  0.00    -0.357 A  
HETATM   13  C   UNL     1     -11.410  12.946  66.342  1.00  0.00    -0.361 A  
HETATM   14  C   UNL     1     -11.811  14.849  64.893  1.00  0.00    -0.337 A  
HETATM   15  C   UNL     1     -11.834  12.100  65.303  1.00  0.00    -0.356 A  
HETATM   16  C   UNL     1     -12.211  13.994  63.866  1.00  0.00    -0.336 A  
HETATM   17  C   UNL     1     -12.227  12.621  64.071  1.00  0.00    -0.544 A  
BRANCH  13  18
HETATM   18  C   UNL     1     -10.976  12.334  67.641  1.00  0.00    -0.244 C  
HETATM   19  O   UNL     1      -9.803  12.404  67.999  1.00  0.00    -0.194 OA 
BRANCH  18  20
HETATM   20  C   UNL     1     -12.022  11.698  68.548  1.00  0.00    -0.284 C  
BRANCH  20  21
HETATM   21  C   UNL     1     -11.669  11.838  70.026  1.00  0.00    -0.386 C  
BRANCH  21  22
HETATM   22  C   UNL     1     -12.379  12.999  70.681  1.00  0.00    -0.391 A  
HETATM   23  C   UNL     1     -13.127  12.807  71.852  1.00  0.00    -0.474 A  
HETATM   24  C   UNL     1     -13.763  13.886  72.470  1.00  0.00    -0.665 A  
HETATM   25  C   UNL     1     -13.662  15.163  71.923  1.00  0.00    -0.577 A  
HETATM   26  C   UNL     1     -12.932  15.361  70.753  1.00  0.00    -0.510 A  
HETATM   27  C   UNL     1     -12.296  14.284  70.131  1.00  0.00    -0.413 A  
ENDBRANCH  21  22
ENDBRANCH  20  21
ENDBRANCH  18  20
ENDBRANCH  13  18
ENDBRANCH  11  12
ENDBRANCH  10  11
ENDBRANCH   7  10
ENDBRANCH   6   7
ENDBRANCH   4   6
ENDBRANCH   3   4
ENDBRANCH   2   3
TORSDOF 11
ENDMDL
MODEL       33
REMARK 921   NORMALIZED FREE ENERGY PREDICTED BY IDOCK:   -6.07 KCAL/MOL
REMARK 922        TOTAL FREE ENERGY PREDICTED BY IDOCK:  -10.99 KCAL/MOL
REMARK 923 INTER-LIGAND FREE ENERGY PREDICTED BY IDOCK:   -8.88 KCAL/MOL
REMARK 924 INTRA-LIGAND FREE ENERGY PREDICTED BY IDOCK:   -2.11 KCAL/MOL
REMARK 927      BINDING AFFINITY PREDICTED BY RF-SCORE:    0.00 PKD
ROOT
HETATM    1  C   UNL     1      -8.888   9.981  65.048  1.00  0.00    -0.213 C  
HETATM    2  C   UNL     1     -10.014  10.984  64.850  1.00  0.00    -0.343 C  
ENDROOT
BRANCH   2   3
HETATM    3  C   UNL     1     -10.081  11.461  63.400  1.00  0.00    -0.405 C  
BRANCH   3   4
HETATM    4  N   UNL     1     -11.184  12.408  63.245  1.00  0.00    -0.673 NA 
HETATM    5  H   UNL     1     -11.846  12.107  62.529  1.00  0.00     0.000 HD 
BRANCH   4   6
HETATM    6  C   UNL     1     -11.841  12.639  64.538  1.00  0.00    -0.379 C  
BRANCH   6   7
HETATM    7  C   UNL     1     -12.462  14.047  64.599  1.00  0.00    -0.335 C  
HETATM    8  O   UNL     1     -13.389  14.141  65.692  1.00  0.00    -0.697 OA 
HETATM    9  H   UNL     1     -13.772  15.010  65.728  1.00  0.00     0.000 HD 
BRANCH   7  10
HETATM   10  C   UNL     1     -11.377  15.118  64.758  1.00  0.00    -0.395 C  
BRANCH  10  11
HETATM   11  O   UNL     1     -10.223  14.541  65.400  1.00  0.00    -0.343 OA 
BRANCH  11  12
HETATM   12  C   UNL     1      -9.685  15.291  66.415  1.00  0.00    -0.285 A  
HETATM   13  C   UNL     1     -10.021  14.991  67.751  1.00  0.00    -0.229 A  
HETATM   14  C   UNL     1      -8.861  16.396  66.150  1.00  0.00    -0.349 A  
HETATM   15  C   UNL     1      -9.470  15.763  68.788  1.00  0.00    -0.219 A  
HETATM   16  C   UNL     1      -8.337  17.164  67.190  1.00  0.00    -0.216 A  
HETATM   17  C   UNL     1      -8.636  16.846  68.508  1.00  0.00    -0.251 A  
BRANCH  13  18
HETATM   18  C   UNL     1     -10.929  13.850  68.104  1.00  0.00    -0.249 C  
HETATM   19  O   UNL     1     -12.143  14.021  68.172  1.00  0.00    -0.355 OA 
BRANCH  18  20
HETATM   20  C   UNL     1     -10.335  12.461  68.297  1.00  0.00    -0.232 C  
BRANCH  20  21
HETATM   21  C   UNL     1     -11.384  11.360  68.175  1.00  0.00    -0.374 C  
BRANCH  21  22
HETATM   22  C   UNL     1     -11.623  10.643  69.482  1.00  0.00    -0.360 A  
HETATM   23  C   UNL     1     -10.855   9.522  69.831  1.00  0.00    -0.272 A  
HETATM   24  C   UNL     1     -11.061   8.875  71.051  1.00  0.00    -0.340 A  
HETATM   25  C   UNL     1     -12.037   9.337  71.931  1.00  0.00    -0.440 A  
HETATM   26  C   UNL     1     -12.814  10.441  71.587  1.00  0.00    -0.579 A  
HETATM   27  C   UNL     1     -12.612  11.090  70.367  1.00  0.00    -0.349 A  
ENDBRANCH  21  22
ENDBRANCH  20  21
ENDBRANCH  18  20
ENDBRANCH  13  18
ENDBRANCH  11  12
ENDBRANCH  10  11
ENDBRANCH   7  10
ENDBRANCH   6   7
ENDBRANCH   4   6
ENDBRANCH   3   4
ENDBRANCH   2   3
TORSDOF 11
ENDMDL
MODEL       34
REMARK 921   NORMALIZED FREE ENERGY PREDICTED BY IDOCK:   -6.07 KCAL/MOL
REMARK 922        TOTAL FREE ENERGY PREDICTED BY IDOCK:  -10.98 KCAL/MOL
REMARK 923 INTER-LIGAND FREE ENERGY PREDICTED BY IDOCK:   -9.50 KCAL/MOL
REMARK 924 INTRA-LIGAND FREE ENERGY PREDICTED BY IDOCK:   -1.48 KCAL/MOL
REMARK 927      BINDING AFFINITY PREDICTED BY RF-SCORE:    0.00 PKD
ROOT
HETATM    1  C   UNL     1     -12.257  11.936  63.350  1.00  0.00    -0.561 C  
HETATM    2  C   UNL     1     -12.045  13.315  63.955  1.00  0.00    -0.531 C  
ENDROOT
BRANCH   2   3
HETATM    3  C   UNL     1     -10.756  13.369  64.773  1.00  0.00    -0.390 C  
BRANCH   3   4
HETATM    4  N   UNL     1      -9.966  12.164  64.524  1.00  0.00    -0.423 NA 
HETATM    5  H   UNL     1      -9.137  12.361  63.964  1.00  0.00     0.000 HD 
BRANCH   4   6
HETATM    6  C   UNL     1      -9.627  11.508  65.795  1.00  0.00    -0.235 C  
BRANCH   6   7
HETATM    7  C   UNL     1     -10.189  10.075  65.844  1.00  0.00    -0.205 C  
HETATM    8  O   UNL     1      -9.397   9.195  65.032  1.00  0.00    -0.424 OA 
HETATM    9  H   UNL     1      -9.745   8.312  65.062  1.00  0.00     0.000 HD 
BRANCH   7  10
HETATM   10  C   UNL     1     -10.219   9.549  67.284  1.00  0.00    -0.234 C  
BRANCH  10  11
HETATM   11  O   UNL     1      -9.980  10.635  68.199  1.00  0.00    -0.153 OA 
BRANCH  11  12
HETATM   12  C   UNL     1     -10.874  10.732  69.235  1.00  0.00    -0.242 A  
HETATM   13  C   UNL     1     -11.366  11.999  69.609  1.00  0.00    -0.249 A  
HETATM   14  C   UNL     1     -11.259   9.605  69.976  1.00  0.00    -0.271 A  
HETATM   15  C   UNL     1     -12.280  12.095  70.672  1.00  0.00    -0.392 A  
HETATM   16  C   UNL     1     -12.152   9.718  71.041  1.00  0.00    -0.434 A  
HETATM   17  C   UNL     1     -12.667  10.961  71.386  1.00  0.00    -0.539 A  
BRANCH  13  18
HETATM   18  C   UNL     1     -10.965  13.251  68.886  1.00  0.00    -0.240 C  
HETATM   19  O   UNL     1      -9.783  13.472  68.634  1.00  0.00    -0.196 OA 
BRANCH  18  20
HETATM   20  C   UNL     1     -12.048  14.206  68.398  1.00  0.00    -0.308 C  
BRANCH  20  21
HETATM   21  C   UNL     1     -11.953  15.577  69.060  1.00  0.00    -0.323 C  
BRANCH  21  22
HETATM   22  C   UNL     1     -12.413  15.556  70.499  1.00  0.00    -0.472 A  
HETATM   23  C   UNL     1     -11.510  15.818  71.539  1.00  0.00    -0.504 A  
HETATM   24  C   UNL     1     -11.941  15.822  72.867  1.00  0.00    -0.599 A  
HETATM   25  C   UNL     1     -13.275  15.559  73.169  1.00  0.00    -0.657 A  
HETATM   26  C   UNL     1     -14.177  15.284  72.143  1.00  0.00    -0.667 A  
HETATM   27  C   UNL     1     -13.749  15.278  70.814  1.00  0.00    -0.255 A  
ENDBRANCH  21  22
ENDBRANCH  20  21
ENDBRANCH  18  20
ENDBRANCH  13  18
ENDBRANCH  11  12
ENDBRANCH  10  11
ENDBRANCH   7  10
ENDBRANCH   6   7
ENDBRANCH   4   6
ENDBRANCH   3   4
ENDBRANCH   2   3
TORSDOF 11
ENDMDL
MODEL       35
REMARK 921   NORMALIZED FREE ENERGY PREDICTED BY IDOCK:   -6.04 KCAL/MOL
REMARK 922        TOTAL FREE ENERGY PREDICTED BY IDOCK:  -10.95 KCAL/MOL
REMARK 923 INTER-LIGAND FREE ENERGY PREDICTED BY IDOCK:   -9.72 KCAL/MOL
REMARK 924 INTRA-LIGAND FREE ENERGY PREDICTED BY IDOCK:   -1.23 KCAL/MOL
REMARK 927      BINDING AFFINITY PREDICTED BY RF-SCORE:    0.00 PKD
ROOT
HETATM    1  C   UNL     1     -12.123   6.924  71.947  1.00  0.00    -0.370 C  
HETATM    2  C   UNL     1     -12.185   8.428  72.161  1.00  0.00    -0.434 C  
ENDROOT
BRANCH   2   3
HETATM    3  C   UNL     1     -13.448   9.023  71.539  1.00  0.00    -0.342 C  
BRANCH   3   4
HETATM    4  N   UNL     1     -13.078  10.008  70.524  1.00  0.00    -0.599 NA 
HETATM    5  H   UNL     1     -13.844  10.191  69.875  1.00  0.00     0.000 HD 
BRANCH   4   6
HETATM    6  C   UNL     1     -12.595  11.240  71.163  1.00  0.00    -0.397 C  
BRANCH   6   7
HETATM    7  C   UNL     1     -12.272  12.317  70.112  1.00  0.00    -0.226 C  
HETATM    8  O   UNL     1     -11.738  13.491  70.743  1.00  0.00    -0.514 OA 
HETATM    9  H   UNL     1     -11.539  14.156  70.094  1.00  0.00     0.000 HD 
BRANCH   7  10
HETATM   10  C   UNL     1     -11.266  11.792  69.081  1.00  0.00    -0.264 C  
BRANCH  10  11
HETATM   11  O   UNL     1     -11.964  11.397  67.885  1.00  0.00    -0.626 OA 
BRANCH  11  12
HETATM   12  C   UNL     1     -11.161  11.035  66.834  1.00  0.00    -0.213 A  
HETATM   13  C   UNL     1     -11.323  11.672  65.586  1.00  0.00    -0.233 A  
HETATM   14  C   UNL     1     -10.225   9.996  66.953  1.00  0.00    -0.299 A  
HETATM   15  C   UNL     1     -10.500  11.297  64.511  1.00  0.00    -0.396 A  
HETATM   16  C   UNL     1      -9.428   9.623  65.871  1.00  0.00    -0.296 A  
HETATM   17  C   UNL     1      -9.561  10.275  64.653  1.00  0.00    -0.374 A  
BRANCH  13  18
HETATM   18  C   UNL     1     -12.333  12.761  65.377  1.00  0.00    -0.470 C  
HETATM   19  O   UNL     1     -13.309  12.573  64.656  1.00  0.00    -0.804 OA 
BRANCH  18  20
HETATM   20  C   UNL     1     -12.176  14.074  66.133  1.00  0.00    -0.494 C  
BRANCH  20  21
HETATM   21  C   UNL     1     -10.775  14.660  65.993  1.00  0.00    -0.313 C  
BRANCH  21  22
HETATM   22  C   UNL     1     -10.611  15.954  66.756  1.00  0.00    -0.309 A  
HETATM   23  C   UNL     1     -10.386  17.159  66.074  1.00  0.00    -0.317 A  
HETATM   24  C   UNL     1     -10.260  18.358  66.779  1.00  0.00    -0.410 A  
HETATM   25  C   UNL     1     -10.351  18.364  68.169  1.00  0.00    -0.393 A  
HETATM   26  C   UNL     1     -10.561  17.169  68.856  1.00  0.00    -0.314 A  
HETATM   27  C   UNL     1     -10.686  15.969  68.154  1.00  0.00    -0.311 A  
ENDBRANCH  21  22
ENDBRANCH  20  21
ENDBRANCH  18  20
ENDBRANCH  13  18
ENDBRANCH  11  12
ENDBRANCH  10  11
ENDBRANCH   7  10
ENDBRANCH   6   7
ENDBRANCH   4   6
ENDBRANCH   3   4
ENDBRANCH   2   3
TORSDOF 11
ENDMDL
MODEL       36
REMARK 921   NORMALIZED FREE ENERGY PREDICTED BY IDOCK:   -6.03 KCAL/MOL
REMARK 922        TOTAL FREE ENERGY PREDICTED BY IDOCK:  -10.92 KCAL/MOL
REMARK 923 INTER-LIGAND FREE ENERGY PREDICTED BY IDOCK:   -9.56 KCAL/MOL
REMARK 924 INTRA-LIGAND FREE ENERGY PREDICTED BY IDOCK:   -1.36 KCAL/MOL
REMARK 927      BINDING AFFINITY PREDICTED BY RF-SCORE:    0.00 PKD
ROOT
HETATM    1  C   UNL     1     -12.463  16.072  74.394  1.00  0.00    -0.712 C  
HETATM    2  C   UNL     1     -12.457  15.258  73.109  1.00  0.00    -0.571 C  
ENDROOT
BRANCH   2   3
HETATM    3  C   UNL     1     -13.760  15.439  72.333  1.00  0.00    -0.542 C  
BRANCH   3   4
HETATM    4  N   UNL     1     -13.583  14.971  70.959  1.00  0.00    -0.609 NA 
HETATM    5  H   UNL     1     -13.705  15.724  70.281  1.00  0.00     0.000 HD 
BRANCH   4   6
HETATM    6  C   UNL     1     -12.281  14.306  70.812  1.00  0.00    -0.353 C  
BRANCH   6   7
HETATM    7  C   UNL     1     -11.619  14.677  69.473  1.00  0.00    -0.310 C  
HETATM    8  O   UNL     1     -12.498  14.378  68.378  1.00  0.00    -0.583 OA 
HETATM    9  H   UNL     1     -12.089  14.606  67.551  1.00  0.00     0.000 HD 
BRANCH   7  10
HETATM   10  C   UNL     1     -11.253  16.166  69.437  1.00  0.00    -0.335 C  
BRANCH  10  11
HETATM   11  O   UNL     1     -11.114  16.595  68.069  1.00  0.00    -0.343 OA 
BRANCH  11  12
HETATM   12  C   UNL     1     -10.319  17.696  67.881  1.00  0.00    -0.371 A  
HETATM   13  C   UNL     1      -8.929  17.527  67.718  1.00  0.00    -0.245 A  
HETATM   14  C   UNL     1     -10.849  18.995  67.916  1.00  0.00    -0.287 A  
HETATM   15  C   UNL     1      -8.117  18.659  67.528  1.00  0.00    -0.262 A  
HETATM   16  C   UNL     1     -10.028  20.109  67.745  1.00  0.00    -0.549 A  
HETATM   17  C   UNL     1      -8.664  19.942  67.546  1.00  0.00    -0.401 A  
BRANCH  13  18
HETATM   18  C   UNL     1      -8.289  16.171  67.712  1.00  0.00    -0.154 C  
HETATM   19  O   UNL     1      -7.708  15.754  68.711  1.00  0.00    -0.153 OA 
BRANCH  18  20
HETATM   20  C   UNL     1      -8.439  15.284  66.482  1.00  0.00    -0.202 C  
BRANCH  20  21
HETATM   21  C   UNL     1      -9.312  14.063  66.752  1.00  0.00    -0.289 C  
BRANCH  21  22
HETATM   22  C   UNL     1     -10.341  13.838  65.669  1.00  0.00    -0.321 A  
HETATM   23  C   UNL     1     -10.624  12.543  65.212  1.00  0.00    -0.319 A  
HETATM   24  C   UNL     1     -11.592  12.335  64.228  1.00  0.00    -0.442 A  
HETATM   25  C   UNL     1     -12.283  13.417  63.688  1.00  0.00    -0.480 A  
HETATM   26  C   UNL     1     -12.000  14.710  64.126  1.00  0.00    -0.316 A  
HETATM   27  C   UNL     1     -11.030  14.921  65.109  1.00  0.00    -0.410 A  
ENDBRANCH  21  22
ENDBRANCH  20  21
ENDBRANCH  18  20
ENDBRANCH  13  18
ENDBRANCH  11  12
ENDBRANCH  10  11
ENDBRANCH   7  10
ENDBRANCH   6   7
ENDBRANCH   4   6
ENDBRANCH   3   4
ENDBRANCH   2   3
TORSDOF 11
ENDMDL
MODEL       37
REMARK 921   NORMALIZED FREE ENERGY PREDICTED BY IDOCK:   -6.01 KCAL/MOL
REMARK 922        TOTAL FREE ENERGY PREDICTED BY IDOCK:  -10.89 KCAL/MOL
REMARK 923 INTER-LIGAND FREE ENERGY PREDICTED BY IDOCK:   -9.35 KCAL/MOL
REMARK 924 INTRA-LIGAND FREE ENERGY PREDICTED BY IDOCK:   -1.54 KCAL/MOL
REMARK 927      BINDING AFFINITY PREDICTED BY RF-SCORE:    0.00 PKD
ROOT
HETATM    1  C   UNL     1     -10.499   4.588  72.573  1.00  0.00    -0.251 C  
HETATM    2  C   UNL     1     -11.327   5.842  72.333  1.00  0.00    -0.348 C  
ENDROOT
BRANCH   2   3
HETATM    3  C   UNL     1     -11.201   6.319  70.887  1.00  0.00    -0.324 C  
BRANCH   3   4
HETATM    4  N   UNL     1     -12.325   7.194  70.560  1.00  0.00    -0.607 NA 
HETATM    5  H   UNL     1     -12.942   6.777  69.862  1.00  0.00     0.000 HD 
BRANCH   4   6
HETATM    6  C   UNL     1     -13.051   7.568  71.781  1.00  0.00    -0.322 C  
BRANCH   6   7
HETATM    7  C   UNL     1     -13.546   9.024  71.706  1.00  0.00    -0.413 C  
HETATM    8  O   UNL     1     -14.323   9.352  72.868  1.00  0.00    -0.870 OA 
HETATM    9  H   UNL     1     -14.628  10.251  72.821  1.00  0.00     0.000 HD 
BRANCH   7  10
HETATM   10  C   UNL     1     -12.367   9.998  71.592  1.00  0.00    -0.394 C  
BRANCH  10  11
HETATM   11  O   UNL     1     -12.060  10.221  70.202  1.00  0.00    -0.254 OA 
BRANCH  11  12
HETATM   12  C   UNL     1     -10.723  10.312  69.908  1.00  0.00    -0.294 A  
HETATM   13  C   UNL     1     -10.306  11.108  68.821  1.00  0.00    -0.222 A  
HETATM   14  C   UNL     1      -9.765   9.577  70.622  1.00  0.00    -0.311 A  
HETATM   15  C   UNL     1      -8.936  11.197  68.521  1.00  0.00    -0.168 A  
HETATM   16  C   UNL     1      -8.411   9.662  70.300  1.00  0.00    -0.221 A  
HETATM   17  C   UNL     1      -7.995  10.474  69.254  1.00  0.00    -0.156 A  
BRANCH  13  18
HETATM   18  C   UNL     1     -11.280  11.888  67.988  1.00  0.00    -0.257 C  
HETATM   19  O   UNL     1     -11.521  11.547  66.832  1.00  0.00    -0.441 OA 
BRANCH  18  20
HETATM   20  C   UNL     1     -12.026  13.057  68.618  1.00  0.00    -0.298 C  
BRANCH  20  21
HETATM   21  C   UNL     1     -11.176  13.803  69.641  1.00  0.00    -0.175 C  
BRANCH  21  22
HETATM   22  C   UNL     1     -11.975  14.237  70.848  1.00  0.00    -0.389 A  
HETATM   23  C   UNL     1     -11.743  15.484  71.445  1.00  0.00    -0.470 A  
HETATM   24  C   UNL     1     -12.498  15.894  72.546  1.00  0.00    -0.566 A  
HETATM   25  C   UNL     1     -13.487  15.060  73.063  1.00  0.00    -0.520 A  
HETATM   26  C   UNL     1     -13.716  13.813  72.485  1.00  0.00    -0.667 A  
HETATM   27  C   UNL     1     -12.961  13.400  71.385  1.00  0.00    -0.412 A  
ENDBRANCH  21  22
ENDBRANCH  20  21
ENDBRANCH  18  20
ENDBRANCH  13  18
ENDBRANCH  11  12
ENDBRANCH  10  11
ENDBRANCH   7  10
ENDBRANCH   6   7
ENDBRANCH   4   6
ENDBRANCH   3   4
ENDBRANCH   2   3
TORSDOF 11
ENDMDL
MODEL       38
REMARK 921   NORMALIZED FREE ENERGY PREDICTED BY IDOCK:   -5.99 KCAL/MOL
REMARK 922        TOTAL FREE ENERGY PREDICTED BY IDOCK:  -10.86 KCAL/MOL
REMARK 923 INTER-LIGAND FREE ENERGY PREDICTED BY IDOCK:   -9.23 KCAL/MOL
REMARK 924 INTRA-LIGAND FREE ENERGY PREDICTED BY IDOCK:   -1.63 KCAL/MOL
REMARK 927      BINDING AFFINITY PREDICTED BY RF-SCORE:    0.00 PKD
ROOT
HETATM    1  C   UNL     1     -12.352  14.491  64.686  1.00  0.00    -0.419 C  
HETATM    2  C   UNL     1     -11.321  13.461  64.246  1.00  0.00    -0.420 C  
ENDROOT
BRANCH   2   3
HETATM    3  C   UNL     1     -11.993  12.171  63.779  1.00  0.00    -0.513 C  
BRANCH   3   4
HETATM    4  N   UNL     1     -11.070  11.050  63.940  1.00  0.00    -0.419 NA 
HETATM    5  H   UNL     1     -10.873  10.588  63.052  1.00  0.00     0.000 HD 
BRANCH   4   6
HETATM    6  C   UNL     1      -9.840  11.496  64.609  1.00  0.00    -0.246 C  
BRANCH   6   7
HETATM    7  C   UNL     1      -8.915  10.305  64.919  1.00  0.00    -0.201 C  
HETATM    8  O   UNL     1      -7.545  10.654  64.671  1.00  0.00    -0.342 OA 
HETATM    9  H   UNL     1      -6.975   9.918  64.863  1.00  0.00     0.000 HD 
BRANCH   7  10
HETATM   10  C   UNL     1      -9.071   9.857  66.377  1.00  0.00    -0.150 C  
BRANCH  10  11
HETATM   11  O   UNL     1     -10.445  10.005  66.782  1.00  0.00    -0.232 OA 
BRANCH  11  12
HETATM   12  C   UNL     1     -10.685   9.796  68.116  1.00  0.00    -0.233 A  
HETATM   13  C   UNL     1     -11.194  10.850  68.902  1.00  0.00    -0.327 A  
HETATM   14  C   UNL     1     -10.370   8.576  68.734  1.00  0.00    -0.233 A  
HETATM   15  C   UNL     1     -11.436  10.633  70.269  1.00  0.00    -0.422 A  
HETATM   16  C   UNL     1     -10.598   8.382  70.096  1.00  0.00    -0.235 A  
HETATM   17  C   UNL     1     -11.135   9.407  70.863  1.00  0.00    -0.389 A  
BRANCH  13  18
HETATM   18  C   UNL     1     -11.515  12.193  68.316  1.00  0.00    -0.305 C  
HETATM   19  O   UNL     1     -12.317  12.292  67.391  1.00  0.00    -0.344 OA 
BRANCH  18  20
HETATM   20  C   UNL     1     -10.897  13.440  68.936  1.00  0.00    -0.253 C  
BRANCH  20  21
HETATM   21  C   UNL     1     -11.921  14.551  69.148  1.00  0.00    -0.344 C  
BRANCH  21  22
HETATM   22  C   UNL     1     -12.276  14.739  70.604  1.00  0.00    -0.385 A  
HETATM   23  C   UNL     1     -13.017  13.765  71.288  1.00  0.00    -0.409 A  
HETATM   24  C   UNL     1     -13.324  13.929  72.640  1.00  0.00    -0.640 A  
HETATM   25  C   UNL     1     -12.899  15.068  73.319  1.00  0.00    -0.647 A  
HETATM   26  C   UNL     1     -12.173  16.048  72.645  1.00  0.00    -0.619 A  
HETATM   27  C   UNL     1     -11.866  15.888  71.292  1.00  0.00    -0.502 A  
ENDBRANCH  21  22
ENDBRANCH  20  21
ENDBRANCH  18  20
ENDBRANCH  13  18
ENDBRANCH  11  12
ENDBRANCH  10  11
ENDBRANCH   7  10
ENDBRANCH   6   7
ENDBRANCH   4   6
ENDBRANCH   3   4
ENDBRANCH   2   3
TORSDOF 11
ENDMDL
MODEL       39
REMARK 921   NORMALIZED FREE ENERGY PREDICTED BY IDOCK:   -5.96 KCAL/MOL
REMARK 922        TOTAL FREE ENERGY PREDICTED BY IDOCK:  -10.82 KCAL/MOL
REMARK 923 INTER-LIGAND FREE ENERGY PREDICTED BY IDOCK:   -8.95 KCAL/MOL
REMARK 924 INTRA-LIGAND FREE ENERGY PREDICTED BY IDOCK:   -1.87 KCAL/MOL
REMARK 927      BINDING AFFINITY PREDICTED BY RF-SCORE:    0.00 PKD
ROOT
HETATM    1  C   UNL     1     -12.873  13.983  65.304  1.00  0.00    -0.418 C  
HETATM    2  C   UNL     1     -11.959  13.553  64.168  1.00  0.00    -0.498 C  
ENDROOT
BRANCH   2   3
HETATM    3  C   UNL     1     -12.454  12.262  63.517  1.00  0.00    -0.534 C  
BRANCH   3   4
HETATM    4  N   UNL     1     -11.312  11.455  63.093  1.00  0.00    -0.864 NA 
HETATM    5  H   UNL     1     -11.235  11.408  62.077  1.00  0.00     0.000 HD 
BRANCH   4   6
HETATM    6  C   UNL     1     -10.077  11.956  63.714  1.00  0.00    -0.398 C  
BRANCH   6   7
HETATM    7  C   UNL     1      -9.352  10.837  64.483  1.00  0.00    -0.236 C  
HETATM    8  O   UNL     1      -7.951  10.839  64.172  1.00  0.00    -0.358 OA 
HETATM    9  H   UNL     1      -7.504  10.148  64.646  1.00  0.00     0.000 HD 
BRANCH   7  10
HETATM   10  C   UNL     1      -9.537  11.005  65.996  1.00  0.00    -0.215 C  
BRANCH  10  11
HETATM   11  O   UNL     1      -9.259  12.370  66.366  1.00  0.00    -0.231 OA 
BRANCH  11  12
HETATM   12  C   UNL     1     -10.105  12.902  67.306  1.00  0.00    -0.231 A  
HETATM   13  C   UNL     1     -10.028  14.277  67.607  1.00  0.00    -0.225 A  
HETATM   14  C   UNL     1     -11.000  12.095  68.024  1.00  0.00    -0.271 A  
HETATM   15  C   UNL     1     -10.895  14.819  68.571  1.00  0.00    -0.255 A  
HETATM   16  C   UNL     1     -11.841  12.644  68.992  1.00  0.00    -0.341 A  
HETATM   17  C   UNL     1     -11.793  14.005  69.263  1.00  0.00    -0.389 A  
BRANCH  13  18
HETATM   18  C   UNL     1      -9.067  15.191  66.907  1.00  0.00    -0.247 C  
HETATM   19  O   UNL     1      -9.308  15.595  65.772  1.00  0.00    -0.332 OA 
BRANCH  18  20
HETATM   20  C   UNL     1      -7.829  15.677  67.650  1.00  0.00    -0.173 C  
BRANCH  20  21
HETATM   21  C   UNL     1      -8.166  16.698  68.732  1.00  0.00    -0.249 C  
BRANCH  21  22
HETATM   22  C   UNL     1      -8.712  17.985  68.160  1.00  0.00    -0.277 A  
HETATM   23  C   UNL     1      -9.914  18.525  68.641  1.00  0.00    -0.419 A  
HETATM   24  C   UNL     1     -10.406  19.727  68.128  1.00  0.00    -0.561 A  
HETATM   25  C   UNL     1      -9.706  20.398  67.128  1.00  0.00    -0.601 A  
HETATM   26  C   UNL     1      -8.518  19.862  66.634  1.00  0.00    -0.381 A  
HETATM   27  C   UNL     1      -8.024  18.659  67.144  1.00  0.00    -0.249 A  
ENDBRANCH  21  22
ENDBRANCH  20  21
ENDBRANCH  18  20
ENDBRANCH  13  18
ENDBRANCH  11  12
ENDBRANCH  10  11
ENDBRANCH   7  10
ENDBRANCH   6   7
ENDBRANCH   4   6
ENDBRANCH   3   4
ENDBRANCH   2   3
TORSDOF 11
ENDMDL
MODEL       40
REMARK 921   NORMALIZED FREE ENERGY PREDICTED BY IDOCK:   -5.94 KCAL/MOL
REMARK 922        TOTAL FREE ENERGY PREDICTED BY IDOCK:  -10.77 KCAL/MOL
REMARK 923 INTER-LIGAND FREE ENERGY PREDICTED BY IDOCK:   -8.23 KCAL/MOL
REMARK 924 INTRA-LIGAND FREE ENERGY PREDICTED BY IDOCK:   -2.54 KCAL/MOL
REMARK 927      BINDING AFFINITY PREDICTED BY RF-SCORE:    0.00 PKD
ROOT
HETATM    1  C   UNL     1     -10.700   9.567  71.184  1.00  0.00    -0.408 C  
HETATM    2  C   UNL     1     -12.219   9.642  71.138  1.00  0.00    -0.437 C  
ENDROOT
BRANCH   2   3
HETATM    3  C   UNL     1     -12.706  11.084  71.272  1.00  0.00    -0.432 C  
BRANCH   3   4
HETATM    4  N   UNL     1     -11.875  11.961  70.448  1.00  0.00    -0.509 NA 
HETATM    5  H   UNL     1     -11.939  11.726  69.457  1.00  0.00     0.000 HD 
BRANCH   4   6
HETATM    6  C   UNL     1     -12.215  13.368  70.701  1.00  0.00    -0.350 C  
BRANCH   6   7
HETATM    7  C   UNL     1     -12.032  14.218  69.431  1.00  0.00    -0.337 C  
HETATM    8  O   UNL     1     -12.735  15.464  69.553  1.00  0.00    -0.604 OA 
HETATM    9  H   UNL     1     -12.621  15.988  68.769  1.00  0.00     0.000 HD 
BRANCH   7  10
HETATM   10  C   UNL     1     -10.547  14.496  69.169  1.00  0.00    -0.234 C  
BRANCH  10  11
HETATM   11  O   UNL     1      -9.979  13.408  68.414  1.00  0.00    -0.235 OA 
BRANCH  11  12
HETATM   12  C   UNL     1     -10.282  13.406  67.076  1.00  0.00    -0.249 A  
HETATM   13  C   UNL     1     -10.686  12.205  66.459  1.00  0.00    -0.290 A  
HETATM   14  C   UNL     1     -10.134  14.560  66.292  1.00  0.00    -0.308 A  
HETATM   15  C   UNL     1     -10.993  12.207  65.087  1.00  0.00    -0.355 A  
HETATM   16  C   UNL     1     -10.424  14.542  64.928  1.00  0.00    -0.435 A  
HETATM   17  C   UNL     1     -10.858  13.369  64.326  1.00  0.00    -0.383 A  
BRANCH  13  18
HETATM   18  C   UNL     1     -10.826  10.925  67.228  1.00  0.00    -0.287 C  
HETATM   19  O   UNL     1     -11.848  10.695  67.870  1.00  0.00    -0.485 OA 
BRANCH  18  20
HETATM   20  C   UNL     1      -9.722   9.879  67.136  1.00  0.00    -0.224 C  
BRANCH  20  21
HETATM   21  C   UNL     1     -10.271   8.478  66.886  1.00  0.00    -0.375 C  
BRANCH  21  22
HETATM   22  C   UNL     1     -10.150   7.585  68.098  1.00  0.00    -0.215 A  
HETATM   23  C   UNL     1     -11.269   6.900  68.593  1.00  0.00    -0.082 A  
HETATM   24  C   UNL     1     -11.150   6.056  69.699  1.00  0.00    -0.474 A  
HETATM   25  C   UNL     1      -9.916   5.893  70.324  1.00  0.00    -0.247 A  
HETATM   26  C   UNL     1      -8.801   6.581  69.848  1.00  0.00    -0.143 A  
HETATM   27  C   UNL     1      -8.917   7.426  68.743  1.00  0.00    -0.129 A  
ENDBRANCH  21  22
ENDBRANCH  20  21
ENDBRANCH  18  20
ENDBRANCH  13  18
ENDBRANCH  11  12
ENDBRANCH  10  11
ENDBRANCH   7  10
ENDBRANCH   6   7
ENDBRANCH   4   6
ENDBRANCH   3   4
ENDBRANCH   2   3
TORSDOF 11
ENDMDL
MODEL       41
REMARK 921   NORMALIZED FREE ENERGY PREDICTED BY IDOCK:   -5.92 KCAL/MOL
REMARK 922        TOTAL FREE ENERGY PREDICTED BY IDOCK:  -10.75 KCAL/MOL
REMARK 923 INTER-LIGAND FREE ENERGY PREDICTED BY IDOCK:   -9.48 KCAL/MOL
REMARK 924 INTRA-LIGAND FREE ENERGY PREDICTED BY IDOCK:   -1.27 KCAL/MOL
REMARK 927      BINDING AFFINITY PREDICTED BY RF-SCORE:    0.00 PKD
ROOT
HETATM    1  C   UNL     1     -10.671  10.251  69.844  1.00  0.00    -0.344 C  
HETATM    2  C   UNL     1     -11.479  10.732  68.648  1.00  0.00    -0.365 C  
ENDROOT
BRANCH   2   3
HETATM    3  C   UNL     1     -12.092  12.106  68.912  1.00  0.00    -0.133 C  
BRANCH   3   4
HETATM    4  N   UNL     1     -11.233  12.862  69.822  1.00  0.00    -0.489 NA 
HETATM    5  H   UNL     1     -10.488  13.350  69.325  1.00  0.00     0.000 HD 
BRANCH   4   6
HETATM    6  C   UNL     1     -12.039  13.779  70.639  1.00  0.00    -0.333 C  
BRANCH   6   7
HETATM    7  C   UNL     1     -12.500  14.994  69.813  1.00  0.00    -0.181 C  
HETATM    8  O   UNL     1     -13.555  15.693  70.492  1.00  0.00    -0.833 OA 
HETATM    9  H   UNL     1     -13.839  16.443  69.982  1.00  0.00     0.000 HD 
BRANCH   7  10
HETATM   10  C   UNL     1     -11.334  15.957  69.559  1.00  0.00    -0.335 C  
BRANCH  10  11
HETATM   11  O   UNL     1     -11.146  16.121  68.140  1.00  0.00    -0.334 OA 
BRANCH  11  12
HETATM   12  C   UNL     1     -10.697  17.357  67.751  1.00  0.00    -0.332 A  
HETATM   13  C   UNL     1     -10.458  17.609  66.384  1.00  0.00    -0.286 A  
HETATM   14  C   UNL     1     -10.404  18.358  68.690  1.00  0.00    -0.286 A  
HETATM   15  C   UNL     1      -9.996  18.876  65.990  1.00  0.00    -0.309 A  
HETATM   16  C   UNL     1      -9.928  19.604  68.284  1.00  0.00    -0.543 A  
HETATM   17  C   UNL     1      -9.728  19.866  66.935  1.00  0.00    -0.532 A  
BRANCH  13  18
HETATM   18  C   UNL     1     -10.710  16.572  65.330  1.00  0.00    -0.259 C  
HETATM   19  O   UNL     1     -11.384  16.843  64.339  1.00  0.00    -1.133 OA 
BRANCH  18  20
HETATM   20  C   UNL     1     -10.053  15.204  65.462  1.00  0.00    -0.402 C  
BRANCH  20  21
HETATM   21  C   UNL     1     -10.997  14.068  65.079  1.00  0.00    -0.379 C  
BRANCH  21  22
HETATM   22  C   UNL     1     -10.352  12.709  65.224  1.00  0.00    -0.309 A  
HETATM   23  C   UNL     1     -10.664  11.674  64.329  1.00  0.00    -0.398 A  
HETATM   24  C   UNL     1     -10.050  10.426  64.449  1.00  0.00    -0.342 A  
HETATM   25  C   UNL     1      -9.124  10.198  65.465  1.00  0.00    -0.216 A  
HETATM   26  C   UNL     1      -8.818  11.216  66.366  1.00  0.00    -0.182 A  
HETATM   27  C   UNL     1      -9.432  12.465  66.250  1.00  0.00    -0.220 A  
ENDBRANCH  21  22
ENDBRANCH  20  21
ENDBRANCH  18  20
ENDBRANCH  13  18
ENDBRANCH  11  12
ENDBRANCH  10  11
ENDBRANCH   7  10
ENDBRANCH   6   7
ENDBRANCH   4   6
ENDBRANCH   3   4
ENDBRANCH   2   3
TORSDOF 11
ENDMDL
MODEL       42
REMARK 921   NORMALIZED FREE ENERGY PREDICTED BY IDOCK:   -5.92 KCAL/MOL
REMARK 922        TOTAL FREE ENERGY PREDICTED BY IDOCK:  -10.74 KCAL/MOL
REMARK 923 INTER-LIGAND FREE ENERGY PREDICTED BY IDOCK:   -8.39 KCAL/MOL
REMARK 924 INTRA-LIGAND FREE ENERGY PREDICTED BY IDOCK:   -2.34 KCAL/MOL
REMARK 927      BINDING AFFINITY PREDICTED BY RF-SCORE:    0.00 PKD
ROOT
HETATM    1  C   UNL     1      -8.000  13.627  67.942  1.00  0.00    -0.161 C  
HETATM    2  C   UNL     1      -7.558  14.507  69.101  1.00  0.00    -0.102 C  
ENDROOT
BRANCH   2   3
HETATM    3  C   UNL     1      -8.632  15.534  69.457  1.00  0.00    -0.218 C  
BRANCH   3   4
HETATM    4  N   UNL     1      -9.792  14.854  70.027  1.00  0.00    -0.455 NA 
HETATM    5  H   UNL     1      -9.575  14.414  70.922  1.00  0.00     0.000 HD 
BRANCH   4   6
HETATM    6  C   UNL     1     -10.925  15.784  70.135  1.00  0.00    -0.352 C  
BRANCH   6   7
HETATM    7  C   UNL     1     -12.165  15.080  70.714  1.00  0.00    -0.329 C  
HETATM    8  O   UNL     1     -13.358  15.804  70.378  1.00  0.00    -0.756 OA 
HETATM    9  H   UNL     1     -14.123  15.369  70.736  1.00  0.00     0.000 HD 
BRANCH   7  10
HETATM   10  C   UNL     1     -12.277  13.644  70.186  1.00  0.00    -0.342 C  
BRANCH  10  11
HETATM   11  O   UNL     1     -12.265  13.659  68.745  1.00  0.00    -0.339 OA 
BRANCH  11  12
HETATM   12  C   UNL     1     -11.697  12.558  68.156  1.00  0.00    -0.348 A  
HETATM   13  C   UNL     1     -11.490  12.549  66.762  1.00  0.00    -0.422 A  
HETATM   14  C   UNL     1     -11.380  11.412  68.901  1.00  0.00    -0.334 A  
HETATM   15  C   UNL     1     -10.911  11.418  66.161  1.00  0.00    -0.310 A  
HETATM   16  C   UNL     1     -10.823  10.291  68.288  1.00  0.00    -0.300 A  
HETATM   17  C   UNL     1     -10.584  10.294  66.920  1.00  0.00    -0.282 A  
BRANCH  13  18
HETATM   18  C   UNL     1     -11.843  13.723  65.898  1.00  0.00    -0.383 C  
HETATM   19  O   UNL     1     -12.967  13.820  65.411  1.00  0.00    -0.706 OA 
BRANCH  18  20
HETATM   20  C   UNL     1     -10.820  14.834  65.701  1.00  0.00    -0.344 C  
BRANCH  20  21
HETATM   21  C   UNL     1     -11.149  16.078  66.520  1.00  0.00     0.024 C  
BRANCH  21  22
HETATM   22  C   UNL     1      -9.999  17.056  66.572  1.00  0.00    -0.318 A  
HETATM   23  C   UNL     1      -8.732  16.692  66.091  1.00  0.00    -0.322 A  
HETATM   24  C   UNL     1      -7.676  17.605  66.118  1.00  0.00    -0.293 A  
HETATM   25  C   UNL     1      -7.873  18.886  66.629  1.00  0.00    -0.271 A  
HETATM   26  C   UNL     1      -9.124  19.252  67.122  1.00  0.00    -0.346 A  
HETATM   27  C   UNL     1     -10.182  18.341  67.098  1.00  0.00    -0.387 A  
ENDBRANCH  21  22
ENDBRANCH  20  21
ENDBRANCH  18  20
ENDBRANCH  13  18
ENDBRANCH  11  12
ENDBRANCH  10  11
ENDBRANCH   7  10
ENDBRANCH   6   7
ENDBRANCH   4   6
ENDBRANCH   3   4
ENDBRANCH   2   3
TORSDOF 11
ENDMDL
MODEL       43
REMARK 921   NORMALIZED FREE ENERGY PREDICTED BY IDOCK:   -5.91 KCAL/MOL
REMARK 922        TOTAL FREE ENERGY PREDICTED BY IDOCK:  -10.73 KCAL/MOL
REMARK 923 INTER-LIGAND FREE ENERGY PREDICTED BY IDOCK:   -9.47 KCAL/MOL
REMARK 924 INTRA-LIGAND FREE ENERGY PREDICTED BY IDOCK:   -1.27 KCAL/MOL
REMARK 927      BINDING AFFINITY PREDICTED BY RF-SCORE:    0.00 PKD
ROOT
HETATM    1  C   UNL     1     -12.127   6.512  71.961  1.00  0.00    -0.358 C  
HETATM    2  C   UNL     1     -11.964   7.824  71.209  1.00  0.00    -0.324 C  
ENDROOT
BRANCH   2   3
HETATM    3  C   UNL     1     -12.723   8.955  71.900  1.00  0.00    -0.376 C  
BRANCH   3   4
HETATM    4  N   UNL     1     -13.278   9.860  70.896  1.00  0.00    -0.570 NA 
HETATM    5  H   UNL     1     -14.273  10.032  71.045  1.00  0.00     0.000 HD 
BRANCH   4   6
HETATM    6  C   UNL     1     -12.506  11.110  70.855  1.00  0.00    -0.409 C  
BRANCH   6   7
HETATM    7  C   UNL     1     -11.610  11.165  69.605  1.00  0.00    -0.326 C  
HETATM    8  O   UNL     1     -12.159  10.353  68.555  1.00  0.00    -0.767 OA 
HETATM    9  H   UNL     1     -11.606  10.388  67.784  1.00  0.00     0.000 HD 
BRANCH   7  10
HETATM   10  C   UNL     1     -11.457  12.607  69.105  1.00  0.00    -0.304 C  
BRANCH  10  11
HETATM   11  O   UNL     1     -10.536  12.637  67.997  1.00  0.00    -0.212 OA 
BRANCH  11  12
HETATM   12  C   UNL     1     -10.963  13.345  66.903  1.00  0.00    -0.284 A  
HETATM   13  C   UNL     1     -10.343  14.572  66.587  1.00  0.00    -0.274 A  
HETATM   14  C   UNL     1     -12.049  12.910  66.129  1.00  0.00    -0.458 A  
HETATM   15  C   UNL     1     -10.785  15.295  65.466  1.00  0.00    -0.385 A  
HETATM   16  C   UNL     1     -12.487  13.649  65.031  1.00  0.00    -0.454 A  
HETATM   17  C   UNL     1     -11.854  14.838  64.696  1.00  0.00    -0.442 A  
BRANCH  13  18
HETATM   18  C   UNL     1      -9.204  15.117  67.396  1.00  0.00    -0.193 C  
HETATM   19  O   UNL     1      -8.060  15.105  66.946  1.00  0.00    -0.211 OA 
BRANCH  18  20
HETATM   20  C   UNL     1      -9.493  15.761  68.746  1.00  0.00    -0.219 C  
BRANCH  20  21
HETATM   21  C   UNL     1     -10.490  16.910  68.639  1.00  0.00    -0.352 C  
BRANCH  21  22
HETATM   22  C   UNL     1      -9.845  18.192  68.169  1.00  0.00    -0.350 A  
HETATM   23  C   UNL     1     -10.566  19.109  67.389  1.00  0.00    -0.577 A  
HETATM   24  C   UNL     1      -9.976  20.305  66.976  1.00  0.00    -0.601 A  
HETATM   25  C   UNL     1      -8.661  20.595  67.333  1.00  0.00    -0.311 A  
HETATM   26  C   UNL     1      -7.932  19.685  68.096  1.00  0.00    -0.353 A  
HETATM   27  C   UNL     1      -8.519  18.487  68.510  1.00  0.00    -0.354 A  
ENDBRANCH  21  22
ENDBRANCH  20  21
ENDBRANCH  18  20
ENDBRANCH  13  18
ENDBRANCH  11  12
ENDBRANCH  10  11
ENDBRANCH   7  10
ENDBRANCH   6   7
ENDBRANCH   4   6
ENDBRANCH   3   4
ENDBRANCH   2   3
TORSDOF 11
ENDMDL
MODEL       44
REMARK 921   NORMALIZED FREE ENERGY PREDICTED BY IDOCK:   -5.90 KCAL/MOL
REMARK 922        TOTAL FREE ENERGY PREDICTED BY IDOCK:  -10.71 KCAL/MOL
REMARK 923 INTER-LIGAND FREE ENERGY PREDICTED BY IDOCK:   -9.05 KCAL/MOL
REMARK 924 INTRA-LIGAND FREE ENERGY PREDICTED BY IDOCK:   -1.66 KCAL/MOL
REMARK 927      BINDING AFFINITY PREDICTED BY RF-SCORE:    0.00 PKD
ROOT
HETATM    1  C   UNL     1     -10.721  16.032  67.239  1.00  0.00    -0.295 C  
HETATM    2  C   UNL     1     -10.293  15.520  65.872  1.00  0.00    -0.365 C  
ENDROOT
BRANCH   2   3
HETATM    3  C   UNL     1     -11.040  14.240  65.502  1.00  0.00    -0.323 C  
BRANCH   3   4
HETATM    4  N   UNL     1     -10.455  13.661  64.294  1.00  0.00    -0.603 NA 
HETATM    5  H   UNL     1      -9.463  13.453  64.413  1.00  0.00     0.000 HD 
BRANCH   4   6
HETATM    6  C   UNL     1     -11.217  12.476  63.877  1.00  0.00    -0.436 C  
BRANCH   6   7
HETATM    7  C   UNL     1     -10.280  11.294  63.573  1.00  0.00    -0.403 C  
HETATM    8  O   UNL     1      -9.149  11.733  62.805  1.00  0.00    -0.606 OA 
HETATM    9  H   UNL     1      -8.571  11.003  62.618  1.00  0.00     0.000 HD 
BRANCH   7  10
HETATM   10  C   UNL     1      -9.790  10.637  64.869  1.00  0.00    -0.302 C  
BRANCH  10  11
HETATM   11  O   UNL     1     -10.727  10.906  65.930  1.00  0.00    -0.215 OA 
BRANCH  11  12
HETATM   12  C   UNL     1     -10.659  10.050  66.999  1.00  0.00    -0.212 A  
HETATM   13  C   UNL     1     -10.571  10.576  68.304  1.00  0.00    -0.240 A  
HETATM   14  C   UNL     1     -10.607   8.659  66.819  1.00  0.00    -0.223 A  
HETATM   15  C   UNL     1     -10.499   9.695  69.396  1.00  0.00    -0.236 A  
HETATM   16  C   UNL     1     -10.517   7.798  67.912  1.00  0.00    -0.263 A  
HETATM   17  C   UNL     1     -10.468   8.314  69.200  1.00  0.00    -0.217 A  
BRANCH  13  18
HETATM   18  C   UNL     1     -10.579  12.053  68.566  1.00  0.00    -0.231 C  
HETATM   19  O   UNL     1      -9.555  12.716  68.420  1.00  0.00    -0.217 OA 
BRANCH  18  20
HETATM   20  C   UNL     1     -11.891  12.734  68.936  1.00  0.00    -0.351 C  
BRANCH  20  21
HETATM   21  C   UNL     1     -12.277  12.496  70.392  1.00  0.00    -0.368 C  
BRANCH  21  22
HETATM   22  C   UNL     1     -12.311  13.774  71.196  1.00  0.00    -0.428 A  
HETATM   23  C   UNL     1     -11.688  14.935  70.715  1.00  0.00    -0.364 A  
HETATM   24  C   UNL     1     -11.740  16.123  71.448  1.00  0.00    -0.506 A  
HETATM   25  C   UNL     1     -12.411  16.161  72.668  1.00  0.00    -0.574 A  
HETATM   26  C   UNL     1     -13.022  15.009  73.161  1.00  0.00    -0.631 A  
HETATM   27  C   UNL     1     -12.970  13.820  72.431  1.00  0.00    -0.440 A  
ENDBRANCH  21  22
ENDBRANCH  20  21
ENDBRANCH  18  20
ENDBRANCH  13  18
ENDBRANCH  11  12
ENDBRANCH  10  11
ENDBRANCH   7  10
ENDBRANCH   6   7
ENDBRANCH   4   6
ENDBRANCH   3   4
ENDBRANCH   2   3
TORSDOF 11
ENDMDL
MODEL       45
REMARK 921   NORMALIZED FREE ENERGY PREDICTED BY IDOCK:   -5.89 KCAL/MOL
REMARK 922        TOTAL FREE ENERGY PREDICTED BY IDOCK:  -10.70 KCAL/MOL
REMARK 923 INTER-LIGAND FREE ENERGY PREDICTED BY IDOCK:   -8.40 KCAL/MOL
REMARK 924 INTRA-LIGAND FREE ENERGY PREDICTED BY IDOCK:   -2.30 KCAL/MOL
REMARK 927      BINDING AFFINITY PREDICTED BY RF-SCORE:    0.00 PKD
ROOT
HETATM    1  C   UNL     1     -12.505  14.577  64.703  1.00  0.00    -0.339 C  
HETATM    2  C   UNL     1     -11.583  13.495  64.161  1.00  0.00    -0.415 C  
ENDROOT
BRANCH   2   3
HETATM    3  C   UNL     1     -12.381  12.327  63.584  1.00  0.00    -0.562 C  
BRANCH   3   4
HETATM    4  N   UNL     1     -11.464  11.333  63.028  1.00  0.00    -0.818 NA 
HETATM    5  H   UNL     1     -11.660  11.142  62.045  1.00  0.00     0.000 HD 
BRANCH   4   6
HETATM    6  C   UNL     1     -10.072  11.752  63.239  1.00  0.00    -0.420 C  
BRANCH   6   7
HETATM    7  C   UNL     1      -9.105  10.567  63.062  1.00  0.00    -0.275 C  
HETATM    8  O   UNL     1      -7.788  11.036  62.736  1.00  0.00    -0.383 OA 
HETATM    9  H   UNL     1      -7.192  10.304  62.626  1.00  0.00     0.000 HD 
BRANCH   7  10
HETATM   10  C   UNL     1      -9.041   9.717  64.336  1.00  0.00    -0.248 C  
BRANCH  10  11
HETATM   11  O   UNL     1     -10.141  10.063  65.201  1.00  0.00    -0.325 OA 
BRANCH  11  12
HETATM   12  C   UNL     1     -10.185   9.379  66.389  1.00  0.00    -0.230 A  
HETATM   13  C   UNL     1     -10.580  10.054  67.562  1.00  0.00    -0.336 A  
HETATM   14  C   UNL     1      -9.781   8.038  66.476  1.00  0.00    -0.297 A  
HETATM   15  C   UNL     1     -10.622   9.351  68.778  1.00  0.00    -0.234 A  
HETATM   16  C   UNL     1      -9.810   7.359  67.694  1.00  0.00    -0.194 A  
HETATM   17  C   UNL     1     -10.235   8.012  68.844  1.00  0.00    -0.220 A  
BRANCH  13  18
HETATM   18  C   UNL     1     -10.985  11.498  67.549  1.00  0.00    -0.255 C  
HETATM   19  O   UNL     1     -12.089  11.830  67.124  1.00  0.00    -0.592 OA 
BRANCH  18  20
HETATM   20  C   UNL     1     -10.045  12.539  68.144  1.00  0.00    -0.225 C  
BRANCH  20  21
HETATM   21  C   UNL     1      -9.303  13.330  67.072  1.00  0.00    -0.242 C  
BRANCH  21  22
HETATM   22  C   UNL     1      -9.672  14.795  67.077  1.00  0.00    -0.242 A  
HETATM   23  C   UNL     1     -10.532  15.310  68.058  1.00  0.00    -0.248 A  
HETATM   24  C   UNL     1     -10.854  16.668  68.075  1.00  0.00    -0.337 A  
HETATM   25  C   UNL     1     -10.324  17.524  67.112  1.00  0.00    -0.330 A  
HETATM   26  C   UNL     1      -9.478  17.019  66.125  1.00  0.00    -0.253 A  
HETATM   27  C   UNL     1      -9.156  15.660  66.105  1.00  0.00    -0.378 A  
ENDBRANCH  21  22
ENDBRANCH  20  21
ENDBRANCH  18  20
ENDBRANCH  13  18
ENDBRANCH  11  12
ENDBRANCH  10  11
ENDBRANCH   7  10
ENDBRANCH   6   7
ENDBRANCH   4   6
ENDBRANCH   3   4
ENDBRANCH   2   3
TORSDOF 11
ENDMDL
MODEL       46
REMARK 921   NORMALIZED FREE ENERGY PREDICTED BY IDOCK:   -5.89 KCAL/MOL
REMARK 922        TOTAL FREE ENERGY PREDICTED BY IDOCK:  -10.70 KCAL/MOL
REMARK 923 INTER-LIGAND FREE ENERGY PREDICTED BY IDOCK:   -9.58 KCAL/MOL
REMARK 924 INTRA-LIGAND FREE ENERGY PREDICTED BY IDOCK:   -1.12 KCAL/MOL
REMARK 927      BINDING AFFINITY PREDICTED BY RF-SCORE:    0.00 PKD
ROOT
HETATM    1  C   UNL     1     -10.547   5.833  69.425  1.00  0.00    -0.383 C  
HETATM    2  C   UNL     1     -11.578   6.514  70.311  1.00  0.00    -0.473 C  
ENDROOT
BRANCH   2   3
HETATM    3  C   UNL     1     -10.918   7.514  71.260  1.00  0.00    -0.242 C  
BRANCH   3   4
HETATM    4  N   UNL     1     -11.343   8.870  70.919  1.00  0.00    -0.273 NA 
HETATM    5  H   UNL     1     -11.447   9.457  71.747  1.00  0.00     0.000 HD 
BRANCH   4   6
HETATM    6  C   UNL     1     -10.419   9.461  69.941  1.00  0.00    -0.233 C  
BRANCH   6   7
HETATM    7  C   UNL     1     -11.041  10.700  69.272  1.00  0.00    -0.252 C  
HETATM    8  O   UNL     1     -11.880  10.312  68.174  1.00  0.00    -0.737 OA 
HETATM    9  H   UNL     1     -12.264  11.077  67.761  1.00  0.00     0.000 HD 
BRANCH   7  10
HETATM   10  C   UNL     1     -11.866  11.510  70.280  1.00  0.00    -0.342 C  
BRANCH  10  11
HETATM   11  O   UNL     1     -12.057  12.848  69.781  1.00  0.00    -0.299 OA 
BRANCH  11  12
HETATM   12  C   UNL     1     -12.314  13.796  70.739  1.00  0.00    -0.379 A  
HETATM   13  C   UNL     1     -11.674  15.050  70.662  1.00  0.00    -0.357 A  
HETATM   14  C   UNL     1     -13.148  13.521  71.834  1.00  0.00    -0.475 A  
HETATM   15  C   UNL     1     -11.938  16.017  71.646  1.00  0.00    -0.569 A  
HETATM   16  C   UNL     1     -13.385  14.486  72.813  1.00  0.00    -0.600 A  
HETATM   17  C   UNL     1     -12.785  15.734  72.718  1.00  0.00    -0.553 A  
BRANCH  13  18
HETATM   18  C   UNL     1     -10.738  15.396  69.542  1.00  0.00    -0.267 C  
HETATM   19  O   UNL     1      -9.529  15.215  69.664  1.00  0.00    -0.193 OA 
BRANCH  18  20
HETATM   20  C   UNL     1     -11.312  15.898  68.223  1.00  0.00    -0.342 C  
BRANCH  20  21
HETATM   21  C   UNL     1     -10.408  15.576  67.038  1.00  0.00    -0.279 C  
BRANCH  21  22
HETATM   22  C   UNL     1     -11.053  14.622  66.061  1.00  0.00    -0.332 A  
HETATM   23  C   UNL     1     -11.485  15.073  64.805  1.00  0.00    -0.403 A  
HETATM   24  C   UNL     1     -12.060  14.185  63.893  1.00  0.00    -0.301 A  
HETATM   25  C   UNL     1     -12.213  12.841  64.229  1.00  0.00    -0.499 A  
HETATM   26  C   UNL     1     -11.799  12.387  65.480  1.00  0.00    -0.469 A  
HETATM   27  C   UNL     1     -11.226  13.273  66.394  1.00  0.00    -0.325 A  
ENDBRANCH  21  22
ENDBRANCH  20  21
ENDBRANCH  18  20
ENDBRANCH  13  18
ENDBRANCH  11  12
ENDBRANCH  10  11
ENDBRANCH   7  10
ENDBRANCH   6   7
ENDBRANCH   4   6
ENDBRANCH   3   4
ENDBRANCH   2   3
TORSDOF 11
ENDMDL
MODEL       47
REMARK 921   NORMALIZED FREE ENERGY PREDICTED BY IDOCK:   -5.89 KCAL/MOL
REMARK 922        TOTAL FREE ENERGY PREDICTED BY IDOCK:  -10.70 KCAL/MOL
REMARK 923 INTER-LIGAND FREE ENERGY PREDICTED BY IDOCK:   -9.11 KCAL/MOL
REMARK 924 INTRA-LIGAND FREE ENERGY PREDICTED BY IDOCK:   -1.59 KCAL/MOL
REMARK 927      BINDING AFFINITY PREDICTED BY RF-SCORE:    0.00 PKD
ROOT
HETATM    1  C   UNL     1     -10.422  11.647  63.511  1.00  0.00    -0.498 C  
HETATM    2  C   UNL     1     -11.157  12.778  64.214  1.00  0.00    -0.410 C  
ENDROOT
BRANCH   2   3
HETATM    3  C   UNL     1     -11.738  12.314  65.549  1.00  0.00    -0.377 C  
BRANCH   3   4
HETATM    4  N   UNL     1     -10.979  12.907  66.648  1.00  0.00    -0.271 NA 
HETATM    5  H   UNL     1     -11.526  13.601  67.158  1.00  0.00     0.000 HD 
BRANCH   4   6
HETATM    6  C   UNL     1     -10.464  11.856  67.535  1.00  0.00    -0.209 C  
BRANCH   6   7
HETATM    7  C   UNL     1     -11.589  10.899  67.970  1.00  0.00    -0.215 C  
HETATM    8  O   UNL     1     -11.106   9.548  68.028  1.00  0.00    -0.495 OA 
HETATM    9  H   UNL     1     -11.801   8.958  68.297  1.00  0.00     0.000 HD 
BRANCH   7  10
HETATM   10  C   UNL     1     -12.147  11.298  69.342  1.00  0.00    -0.315 C  
BRANCH  10  11
HETATM   11  O   UNL     1     -11.559  12.547  69.756  1.00  0.00    -0.277 OA 
BRANCH  11  12
HETATM   12  C   UNL     1     -12.370  13.349  70.517  1.00  0.00    -0.329 A  
HETATM   13  C   UNL     1     -12.424  14.732  70.250  1.00  0.00    -0.393 A  
HETATM   14  C   UNL     1     -13.097  12.835  71.602  1.00  0.00    -0.428 A  
HETATM   15  C   UNL     1     -13.254  15.551  71.033  1.00  0.00    -0.539 A  
HETATM   16  C   UNL     1     -13.902  13.664  72.382  1.00  0.00    -0.691 A  
HETATM   17  C   UNL     1     -13.985  15.020  72.096  1.00  0.00    -0.610 A  
BRANCH  13  18
HETATM   18  C   UNL     1     -11.641  15.356  69.133  1.00  0.00    -0.339 C  
HETATM   19  O   UNL     1     -11.993  15.201  67.966  1.00  0.00    -0.277 OA 
BRANCH  18  20
HETATM   20  C   UNL     1     -10.454  16.250  69.466  1.00  0.00    -0.299 C  
BRANCH  20  21
HETATM   21  C   UNL     1      -9.337  16.140  68.434  1.00  0.00    -0.206 C  
BRANCH  21  22
HETATM   22  C   UNL     1      -8.833  17.491  67.982  1.00  0.00    -0.258 A  
HETATM   23  C   UNL     1      -9.455  18.164  66.920  1.00  0.00    -0.286 A  
HETATM   24  C   UNL     1      -9.003  19.423  66.520  1.00  0.00    -0.391 A  
HETATM   25  C   UNL     1      -7.926  20.019  67.171  1.00  0.00    -0.351 A  
HETATM   26  C   UNL     1      -7.293  19.352  68.219  1.00  0.00    -0.343 A  
HETATM   27  C   UNL     1      -7.741  18.092  68.620  1.00  0.00    -0.304 A  
ENDBRANCH  21  22
ENDBRANCH  20  21
ENDBRANCH  18  20
ENDBRANCH  13  18
ENDBRANCH  11  12
ENDBRANCH  10  11
ENDBRANCH   7  10
ENDBRANCH   6   7
ENDBRANCH   4   6
ENDBRANCH   3   4
ENDBRANCH   2   3
TORSDOF 11
ENDMDL
MODEL       48
REMARK 921   NORMALIZED FREE ENERGY PREDICTED BY IDOCK:   -5.88 KCAL/MOL
REMARK 922        TOTAL FREE ENERGY PREDICTED BY IDOCK:  -10.67 KCAL/MOL
REMARK 923 INTER-LIGAND FREE ENERGY PREDICTED BY IDOCK:   -9.35 KCAL/MOL
REMARK 924 INTRA-LIGAND FREE ENERGY PREDICTED BY IDOCK:   -1.32 KCAL/MOL
REMARK 927      BINDING AFFINITY PREDICTED BY RF-SCORE:    0.00 PKD
ROOT
HETATM    1  C   UNL     1      -5.538  17.404  69.097  1.00  0.00    -0.180 C  
HETATM    2  C   UNL     1      -6.233  18.570  69.784  1.00  0.00    -0.205 C  
ENDROOT
BRANCH   2   3
HETATM    3  C   UNL     1      -7.384  19.107  68.934  1.00  0.00    -0.344 C  
BRANCH   3   4
HETATM    4  N   UNL     1      -8.091  17.993  68.305  1.00  0.00    -0.283 NA 
HETATM    5  H   UNL     1      -8.843  17.637  68.896  1.00  0.00     0.000 HD 
BRANCH   4   6
HETATM    6  C   UNL     1      -8.578  18.386  66.975  1.00  0.00    -0.262 C  
BRANCH   6   7
HETATM    7  C   UNL     1     -10.115  18.333  66.912  1.00  0.00    -0.366 C  
HETATM    8  O   UNL     1     -10.572  18.574  65.572  1.00  0.00    -0.621 OA 
HETATM    9  H   UNL     1     -11.521  18.541  65.533  1.00  0.00     0.000 HD 
BRANCH   7  10
HETATM   10  C   UNL     1     -10.637  16.973  67.390  1.00  0.00    -0.289 C  
BRANCH  10  11
HETATM   11  O   UNL     1      -9.951  15.920  66.686  1.00  0.00    -0.239 OA 
BRANCH  11  12
HETATM   12  C   UNL     1     -10.765  14.990  66.091  1.00  0.00    -0.327 A  
HETATM   13  C   UNL     1     -10.930  13.727  66.695  1.00  0.00    -0.298 A  
HETATM   14  C   UNL     1     -11.385  15.244  64.858  1.00  0.00    -0.387 A  
HETATM   15  C   UNL     1     -11.764  12.776  66.081  1.00  0.00    -0.458 A  
HETATM   16  C   UNL     1     -12.193  14.283  64.252  1.00  0.00    -0.451 A  
HETATM   17  C   UNL     1     -12.388  13.052  64.864  1.00  0.00    -0.512 A  
BRANCH  13  18
HETATM   18  C   UNL     1     -10.265  13.373  67.992  1.00  0.00    -0.243 C  
HETATM   19  O   UNL     1      -9.064  13.116  68.024  1.00  0.00    -0.193 OA 
BRANCH  18  20
HETATM   20  C   UNL     1     -11.078  13.417  69.279  1.00  0.00    -0.216 C  
BRANCH  20  21
HETATM   21  C   UNL     1     -12.142  14.509  69.256  1.00  0.00    -0.325 C  
BRANCH  21  22
HETATM   22  C   UNL     1     -12.523  14.973  70.642  1.00  0.00    -0.422 A  
HETATM   23  C   UNL     1     -11.716  15.890  71.333  1.00  0.00    -0.530 A  
HETATM   24  C   UNL     1     -12.081  16.337  72.604  1.00  0.00    -0.628 A  
HETATM   25  C   UNL     1     -13.251  15.870  73.199  1.00  0.00    -0.692 A  
HETATM   26  C   UNL     1     -14.052  14.949  72.527  1.00  0.00    -0.478 A  
HETATM   27  C   UNL     1     -13.688  14.499  71.256  1.00  0.00    -0.407 A  
ENDBRANCH  21  22
ENDBRANCH  20  21
ENDBRANCH  18  20
ENDBRANCH  13  18
ENDBRANCH  11  12
ENDBRANCH  10  11
ENDBRANCH   7  10
ENDBRANCH   6   7
ENDBRANCH   4   6
ENDBRANCH   3   4
ENDBRANCH   2   3
TORSDOF 11
ENDMDL
MODEL       49
REMARK 921   NORMALIZED FREE ENERGY PREDICTED BY IDOCK:   -5.86 KCAL/MOL
REMARK 922        TOTAL FREE ENERGY PREDICTED BY IDOCK:  -10.64 KCAL/MOL
REMARK 923 INTER-LIGAND FREE ENERGY PREDICTED BY IDOCK:   -9.69 KCAL/MOL
REMARK 924 INTRA-LIGAND FREE ENERGY PREDICTED BY IDOCK:   -0.96 KCAL/MOL
REMARK 927      BINDING AFFINITY PREDICTED BY RF-SCORE:    0.00 PKD
ROOT
HETATM    1  C   UNL     1     -10.951   6.484  67.817  1.00  0.00    -0.407 C  
HETATM    2  C   UNL     1     -11.223   6.238  69.293  1.00  0.00    -0.458 C  
ENDROOT
BRANCH   2   3
HETATM    3  C   UNL     1     -10.396   7.175  70.172  1.00  0.00    -0.206 C  
BRANCH   3   4
HETATM    4  N   UNL     1     -10.948   7.194  71.525  1.00  0.00    -0.234 NA 
HETATM    5  H   UNL     1     -10.373   6.661  72.178  1.00  0.00     0.000 HD 
BRANCH   4   6
HETATM    6  C   UNL     1     -11.144   8.580  71.974  1.00  0.00    -0.342 C  
BRANCH   6   7
HETATM    7  C   UNL     1     -12.121   9.327  71.048  1.00  0.00    -0.280 C  
HETATM    8  O   UNL     1     -13.325   8.567  70.868  1.00  0.00    -0.505 OA 
HETATM    9  H   UNL     1     -13.928   9.028  70.296  1.00  0.00     0.000 HD 
BRANCH   7  10
HETATM   10  C   UNL     1     -12.472  10.706  71.620  1.00  0.00    -0.311 C  
BRANCH  10  11
HETATM   11  O   UNL     1     -12.213  11.719  70.629  1.00  0.00    -0.371 OA 
BRANCH  11  12
HETATM   12  C   UNL     1     -12.617  12.984  70.970  1.00  0.00    -0.299 A  
HETATM   13  C   UNL     1     -12.171  14.083  70.206  1.00  0.00    -0.430 A  
HETATM   14  C   UNL     1     -13.411  13.218  72.103  1.00  0.00    -0.655 A  
HETATM   15  C   UNL     1     -12.586  15.378  70.560  1.00  0.00    -0.471 A  
HETATM   16  C   UNL     1     -13.799  14.511  72.451  1.00  0.00    -0.587 A  
HETATM   17  C   UNL     1     -13.392  15.590  71.679  1.00  0.00    -0.585 A  
BRANCH  13  18
HETATM   18  C   UNL     1     -11.287  13.910  69.007  1.00  0.00    -0.283 C  
HETATM   19  O   UNL     1     -10.068  14.015  69.114  1.00  0.00    -0.116 OA 
BRANCH  18  20
HETATM   20  C   UNL     1     -11.913  13.521  67.674  1.00  0.00    -0.373 C  
BRANCH  20  21
HETATM   21  C   UNL     1     -11.734  12.039  67.359  1.00  0.00    -0.352 C  
BRANCH  21  22
HETATM   22  C   UNL     1     -11.221  11.804  65.958  1.00  0.00    -0.352 A  
HETATM   23  C   UNL     1     -10.316  10.766  65.695  1.00  0.00    -0.297 A  
HETATM   24  C   UNL     1      -9.862  10.534  64.395  1.00  0.00    -0.405 A  
HETATM   25  C   UNL     1     -10.302  11.340  63.348  1.00  0.00    -0.449 A  
HETATM   26  C   UNL     1     -11.191  12.384  63.601  1.00  0.00    -0.544 A  
HETATM   27  C   UNL     1     -11.646  12.618  64.900  1.00  0.00    -0.376 A  
ENDBRANCH  21  22
ENDBRANCH  20  21
ENDBRANCH  18  20
ENDBRANCH  13  18
ENDBRANCH  11  12
ENDBRANCH  10  11
ENDBRANCH   7  10
ENDBRANCH   6   7
ENDBRANCH   4   6
ENDBRANCH   3   4
ENDBRANCH   2   3
TORSDOF 11
ENDMDL
MODEL       50
REMARK 921   NORMALIZED FREE ENERGY PREDICTED BY IDOCK:   -5.85 KCAL/MOL
REMARK 922        TOTAL FREE ENERGY PREDICTED BY IDOCK:  -10.63 KCAL/MOL
REMARK 923 INTER-LIGAND FREE ENERGY PREDICTED BY IDOCK:   -9.51 KCAL/MOL
REMARK 924 INTRA-LIGAND FREE ENERGY PREDICTED BY IDOCK:   -1.11 KCAL/MOL
REMARK 927      BINDING AFFINITY PREDICTED BY RF-SCORE:    0.00 PKD
ROOT
HETATM    1  C   UNL     1     -10.750  11.752  63.395  1.00  0.00    -0.468 C  
HETATM    2  C   UNL     1     -12.194  12.213  63.521  1.00  0.00    -0.670 C  
ENDROOT
BRANCH   2   3
HETATM    3  C   UNL     1     -12.540  12.556  64.969  1.00  0.00    -0.345 C  
BRANCH   3   4
HETATM    4  N   UNL     1     -12.571  14.008  65.136  1.00  0.00    -0.612 NA 
HETATM    5  H   UNL     1     -13.519  14.379  65.068  1.00  0.00     0.000 HD 
BRANCH   4   6
HETATM    6  C   UNL     1     -11.923  14.389  66.399  1.00  0.00    -0.385 C  
BRANCH   6   7
HETATM    7  C   UNL     1     -10.775  13.423  66.743  1.00  0.00    -0.277 C  
HETATM    8  O   UNL     1      -9.560  13.834  66.097  1.00  0.00    -0.369 OA 
HETATM    9  H   UNL     1      -8.852  13.238  66.310  1.00  0.00     0.000 HD 
BRANCH   7  10
HETATM   10  C   UNL     1     -10.548  13.360  68.258  1.00  0.00    -0.254 C  
BRANCH  10  11
HETATM   11  O   UNL     1     -11.519  12.477  68.854  1.00  0.00    -0.263 OA 
BRANCH  11  12
HETATM   12  C   UNL     1     -12.159  12.977  69.959  1.00  0.00    -0.297 A  
HETATM   13  C   UNL     1     -12.656  12.086  70.933  1.00  0.00    -0.347 A  
HETATM   14  C   UNL     1     -12.392  14.352  70.111  1.00  0.00    -0.406 A  
HETATM   15  C   UNL     1     -13.313  12.601  72.063  1.00  0.00    -0.555 A  
HETATM   16  C   UNL     1     -13.063  14.846  71.229  1.00  0.00    -0.448 A  
HETATM   17  C   UNL     1     -13.519  13.973  72.207  1.00  0.00    -0.597 A  
BRANCH  13  18
HETATM   18  C   UNL     1     -12.479  10.601  70.815  1.00  0.00    -0.385 C  
HETATM   19  O   UNL     1     -13.458   9.865  70.721  1.00  0.00    -0.296 OA 
BRANCH  18  20
HETATM   20  C   UNL     1     -11.071  10.025  70.731  1.00  0.00    -0.407 C  
BRANCH  20  21
HETATM   21  C   UNL     1     -11.060   8.504  70.833  1.00  0.00    -0.295 C  
BRANCH  21  22
HETATM   22  C   UNL     1     -10.911   7.837  69.486  1.00  0.00    -0.157 A  
HETATM   23  C   UNL     1     -10.610   8.595  68.344  1.00  0.00    -0.169 A  
HETATM   24  C   UNL     1     -10.448   7.974  67.104  1.00  0.00    -0.408 A  
HETATM   25  C   UNL     1     -10.589   6.593  66.991  1.00  0.00    -0.404 A  
HETATM   26  C   UNL     1     -10.901   5.832  68.117  1.00  0.00    -0.249 A  
HETATM   27  C   UNL     1     -11.065   6.451  69.358  1.00  0.00    -0.450 A  
ENDBRANCH  21  22
ENDBRANCH  20  21
ENDBRANCH  18  20
ENDBRANCH  13  18
ENDBRANCH  11  12
ENDBRANCH  10  11
ENDBRANCH   7  10
ENDBRANCH   6   7
ENDBRANCH   4   6
ENDBRANCH   3   4
ENDBRANCH   2   3
TORSDOF 11
ENDMDL
MODEL       51
REMARK 921   NORMALIZED FREE ENERGY PREDICTED BY IDOCK:   -5.85 KCAL/MOL
REMARK 922        TOTAL FREE ENERGY PREDICTED BY IDOCK:  -10.62 KCAL/MOL
REMARK 923 INTER-LIGAND FREE ENERGY PREDICTED BY IDOCK:   -9.60 KCAL/MOL
REMARK 924 INTRA-LIGAND FREE ENERGY PREDICTED BY IDOCK:   -1.02 KCAL/MOL
REMARK 927      BINDING AFFINITY PREDICTED BY RF-SCORE:    0.00 PKD
ROOT
HETATM    1  C   UNL     1     -10.092   5.544  69.479  1.00  0.00    -0.305 C  
HETATM    2  C   UNL     1     -11.364   6.101  70.099  1.00  0.00    -0.433 C  
ENDROOT
BRANCH   2   3
HETATM    3  C   UNL     1     -11.236   6.212  71.618  1.00  0.00    -0.286 C  
BRANCH   3   4
HETATM    4  N   UNL     1     -12.275   7.100  72.135  1.00  0.00    -0.455 NA 
HETATM    5  H   UNL     1     -12.588   6.820  73.065  1.00  0.00     0.000 HD 
BRANCH   4   6
HETATM    6  C   UNL     1     -11.811   8.494  72.109  1.00  0.00    -0.379 C  
BRANCH   6   7
HETATM    7  C   UNL     1     -12.728   9.366  71.232  1.00  0.00    -0.314 C  
HETATM    8  O   UNL     1     -14.007   8.737  71.061  1.00  0.00    -0.595 OA 
HETATM    9  H   UNL     1     -14.572   9.275  70.520  1.00  0.00     0.000 HD 
BRANCH   7  10
HETATM   10  C   UNL     1     -12.923  10.754  71.854  1.00  0.00    -0.419 C  
BRANCH  10  11
HETATM   11  O   UNL     1     -12.496  11.764  70.920  1.00  0.00    -0.372 OA 
BRANCH  11  12
HETATM   12  C   UNL     1     -12.795  13.054  71.280  1.00  0.00    -0.281 A  
HETATM   13  C   UNL     1     -12.400  14.116  70.441  1.00  0.00    -0.428 A  
HETATM   14  C   UNL     1     -13.425  13.345  72.499  1.00  0.00    -0.640 A  
HETATM   15  C   UNL     1     -12.706  15.436  70.814  1.00  0.00    -0.516 A  
HETATM   16  C   UNL     1     -13.705  14.662  72.864  1.00  0.00    -0.359 A  
HETATM   17  C   UNL     1     -13.351  15.706  72.021  1.00  0.00    -0.543 A  
BRANCH  13  18
HETATM   18  C   UNL     1     -11.686  13.880  69.143  1.00  0.00    -0.338 C  
HETATM   19  O   UNL     1     -12.229  13.244  68.242  1.00  0.00    -0.266 OA 
BRANCH  18  20
HETATM   20  C   UNL     1     -10.315  14.506  68.925  1.00  0.00    -0.237 C  
BRANCH  20  21
HETATM   21  C   UNL     1     -10.173  15.121  67.536  1.00  0.00    -0.238 C  
BRANCH  21  22
HETATM   22  C   UNL     1     -10.143  16.630  67.573  1.00  0.00    -0.273 A  
HETATM   23  C   UNL     1      -9.986  17.369  66.392  1.00  0.00    -0.322 A  
HETATM   24  C   UNL     1      -9.983  18.765  66.424  1.00  0.00    -0.426 A  
HETATM   25  C   UNL     1     -10.131  19.435  67.636  1.00  0.00    -0.505 A  
HETATM   26  C   UNL     1     -10.275  18.710  68.818  1.00  0.00    -0.316 A  
HETATM   27  C   UNL     1     -10.277  17.314  68.788  1.00  0.00    -0.353 A  
ENDBRANCH  21  22
ENDBRANCH  20  21
ENDBRANCH  18  20
ENDBRANCH  13  18
ENDBRANCH  11  12
ENDBRANCH  10  11
ENDBRANCH   7  10
ENDBRANCH   6   7
ENDBRANCH   4   6
ENDBRANCH   3   4
ENDBRANCH   2   3
TORSDOF 11
ENDMDL
MODEL       52
REMARK 921   NORMALIZED FREE ENERGY PREDICTED BY IDOCK:   -5.84 KCAL/MOL
REMARK 922        TOTAL FREE ENERGY PREDICTED BY IDOCK:  -10.62 KCAL/MOL
REMARK 923 INTER-LIGAND FREE ENERGY PREDICTED BY IDOCK:   -9.29 KCAL/MOL
REMARK 924 INTRA-LIGAND FREE ENERGY PREDICTED BY IDOCK:   -1.33 KCAL/MOL
REMARK 927      BINDING AFFINITY PREDICTED BY RF-SCORE:    0.00 PKD
ROOT
HETATM    1  C   UNL     1     -10.430  11.991  63.431  1.00  0.00    -0.474 C  
HETATM    2  C   UNL     1     -11.897  12.380  63.339  1.00  0.00    -0.571 C  
ENDROOT
BRANCH   2   3
HETATM    3  C   UNL     1     -12.529  12.487  64.726  1.00  0.00    -0.457 C  
BRANCH   3   4
HETATM    4  N   UNL     1     -12.818  13.888  65.028  1.00  0.00    -0.733 NA 
HETATM    5  H   UNL     1     -13.821  14.079  65.027  1.00  0.00     0.000 HD 
BRANCH   4   6
HETATM    6  C   UNL     1     -12.187  14.275  66.297  1.00  0.00    -0.410 C  
BRANCH   6   7
HETATM    7  C   UNL     1     -11.272  13.155  66.824  1.00  0.00    -0.299 C  
HETATM    8  O   UNL     1      -9.916  13.616  66.920  1.00  0.00    -0.249 OA 
HETATM    9  H   UNL     1      -9.352  12.924  67.245  1.00  0.00     0.000 HD 
BRANCH   7  10
HETATM   10  C   UNL     1     -11.742  12.667  68.199  1.00  0.00    -0.347 C  
BRANCH  10  11
HETATM   11  O   UNL     1     -10.897  13.227  69.223  1.00  0.00    -0.156 OA 
BRANCH  11  12
HETATM   12  C   UNL     1     -11.538  14.030  70.132  1.00  0.00    -0.204 A  
HETATM   13  C   UNL     1     -11.148  15.379  70.259  1.00  0.00    -0.331 A  
HETATM   14  C   UNL     1     -12.527  13.522  70.987  1.00  0.00    -0.451 A  
HETATM   15  C   UNL     1     -11.805  16.198  71.193  1.00  0.00    -0.411 A  
HETATM   16  C   UNL     1     -13.157  14.344  71.922  1.00  0.00    -0.433 A  
HETATM   17  C   UNL     1     -12.800  15.682  72.022  1.00  0.00    -0.518 A  
BRANCH  13  18
HETATM   18  C   UNL     1     -10.069  15.978  69.407  1.00  0.00    -0.271 C  
HETATM   19  O   UNL     1      -8.904  15.608  69.528  1.00  0.00    -0.264 OA 
BRANCH  18  20
HETATM   20  C   UNL     1     -10.447  16.990  68.332  1.00  0.00    -0.370 C  
BRANCH  20  21
HETATM   21  C   UNL     1     -10.156  18.425  68.760  1.00  0.00    -0.393 C  
BRANCH  21  22
HETATM   22  C   UNL     1      -8.948  19.001  68.060  1.00  0.00    -0.348 A  
HETATM   23  C   UNL     1      -7.694  19.001  68.688  1.00  0.00    -0.378 A  
HETATM   24  C   UNL     1      -6.573  19.513  68.031  1.00  0.00    -0.269 A  
HETATM   25  C   UNL     1      -6.695  20.033  66.745  1.00  0.00    -0.241 A  
HETATM   26  C   UNL     1      -7.940  20.050  66.118  1.00  0.00    -0.315 A  
HETATM   27  C   UNL     1      -9.062  19.541  66.773  1.00  0.00    -0.396 A  
ENDBRANCH  21  22
ENDBRANCH  20  21
ENDBRANCH  18  20
ENDBRANCH  13  18
ENDBRANCH  11  12
ENDBRANCH  10  11
ENDBRANCH   7  10
ENDBRANCH   6   7
ENDBRANCH   4   6
ENDBRANCH   3   4
ENDBRANCH   2   3
TORSDOF 11
ENDMDL
MODEL       53
REMARK 921   NORMALIZED FREE ENERGY PREDICTED BY IDOCK:   -5.84 KCAL/MOL
REMARK 922        TOTAL FREE ENERGY PREDICTED BY IDOCK:  -10.62 KCAL/MOL
REMARK 923 INTER-LIGAND FREE ENERGY PREDICTED BY IDOCK:   -9.27 KCAL/MOL
REMARK 924 INTRA-LIGAND FREE ENERGY PREDICTED BY IDOCK:   -1.35 KCAL/MOL
REMARK 927      BINDING AFFINITY PREDICTED BY RF-SCORE:    0.00 PKD
ROOT
HETATM    1  C   UNL     1     -12.102  13.183  65.240  1.00  0.00    -0.471 C  
HETATM    2  C   UNL     1     -10.766  13.603  64.645  1.00  0.00    -0.433 C  
ENDROOT
BRANCH   2   3
HETATM    3  C   UNL     1     -10.343  14.981  65.154  1.00  0.00    -0.392 C  
BRANCH   3   4
HETATM    4  N   UNL     1     -10.928  15.219  66.472  1.00  0.00    -0.313 NA 
HETATM    5  H   UNL     1     -10.654  14.502  67.145  1.00  0.00     0.000 HD 
BRANCH   4   6
HETATM    6  C   UNL     1     -10.590  16.570  66.942  1.00  0.00    -0.238 C  
BRANCH   6   7
HETATM    7  C   UNL     1      -9.845  16.517  68.288  1.00  0.00    -0.243 C  
HETATM    8  O   UNL     1      -9.038  17.691  68.463  1.00  0.00    -0.273 OA 
HETATM    9  H   UNL     1      -8.579  17.658  69.294  1.00  0.00     0.000 HD 
BRANCH   7  10
HETATM   10  C   UNL     1     -10.832  16.399  69.455  1.00  0.00    -0.338 C  
BRANCH  10  11
HETATM   11  O   UNL     1     -11.876  15.467  69.111  1.00  0.00    -0.347 OA 
BRANCH  11  12
HETATM   12  C   UNL     1     -12.436  14.802  70.172  1.00  0.00    -0.309 A  
HETATM   13  C   UNL     1     -12.281  13.404  70.272  1.00  0.00    -0.405 A  
HETATM   14  C   UNL     1     -13.217  15.472  71.126  1.00  0.00    -0.576 A  
HETATM   15  C   UNL     1     -12.857  12.726  71.359  1.00  0.00    -0.371 A  
HETATM   16  C   UNL     1     -13.799  14.781  72.188  1.00  0.00    -0.578 A  
HETATM   17  C   UNL     1     -13.616  13.410  72.309  1.00  0.00    -0.703 A  
BRANCH  13  18
HETATM   18  C   UNL     1     -11.493  12.618  69.266  1.00  0.00    -0.294 C  
HETATM   19  O   UNL     1     -10.574  13.148  68.646  1.00  0.00    -0.249 OA 
BRANCH  18  20
HETATM   20  C   UNL     1     -11.792  11.136  69.083  1.00  0.00    -0.419 C  
BRANCH  20  21
HETATM   21  C   UNL     1     -10.642  10.250  69.550  1.00  0.00    -0.270 C  
BRANCH  21  22
HETATM   22  C   UNL     1     -11.122   9.014  70.274  1.00  0.00    -0.263 A  
HETATM   23  C   UNL     1     -11.915   9.125  71.425  1.00  0.00    -0.410 A  
HETATM   24  C   UNL     1     -12.378   7.982  72.079  1.00  0.00    -0.366 A  
HETATM   25  C   UNL     1     -12.051   6.719  71.592  1.00  0.00    -0.404 A  
HETATM   26  C   UNL     1     -11.252   6.598  70.457  1.00  0.00    -0.388 A  
HETATM   27  C   UNL     1     -10.786   7.740  69.802  1.00  0.00    -0.211 A  
ENDBRANCH  21  22
ENDBRANCH  20  21
ENDBRANCH  18  20
ENDBRANCH  13  18
ENDBRANCH  11  12
ENDBRANCH  10  11
ENDBRANCH   7  10
ENDBRANCH   6   7
ENDBRANCH   4   6
ENDBRANCH   3   4
ENDBRANCH   2   3
TORSDOF 11
ENDMDL
MODEL       54
REMARK 921   NORMALIZED FREE ENERGY PREDICTED BY IDOCK:   -5.84 KCAL/MOL
REMARK 922        TOTAL FREE ENERGY PREDICTED BY IDOCK:  -10.61 KCAL/MOL
REMARK 923 INTER-LIGAND FREE ENERGY PREDICTED BY IDOCK:   -8.59 KCAL/MOL
REMARK 924 INTRA-LIGAND FREE ENERGY PREDICTED BY IDOCK:   -2.03 KCAL/MOL
REMARK 927      BINDING AFFINITY PREDICTED BY RF-SCORE:    0.00 PKD
ROOT
HETATM    1  C   UNL     1     -11.164   6.093  70.229  1.00  0.00    -0.439 C  
HETATM    2  C   UNL     1     -10.560   6.959  69.134  1.00  0.00    -0.245 C  
ENDROOT
BRANCH   2   3
HETATM    3  C   UNL     1     -10.266   8.369  69.643  1.00  0.00    -0.209 C  
BRANCH   3   4
HETATM    4  N   UNL     1     -11.451   9.208  69.478  1.00  0.00    -0.419 NA 
HETATM    5  H   UNL     1     -12.314   8.674  69.585  1.00  0.00     0.000 HD 
BRANCH   4   6
HETATM    6  C   UNL     1     -11.397  10.352  70.399  1.00  0.00    -0.337 C  
BRANCH   6   7
HETATM    7  C   UNL     1     -12.019  11.607  69.760  1.00  0.00    -0.332 C  
HETATM    8  O   UNL     1     -12.004  12.704  70.686  1.00  0.00    -0.510 OA 
HETATM    9  H   UNL     1     -12.388  13.478  70.291  1.00  0.00     0.000 HD 
BRANCH   7  10
HETATM   10  C   UNL     1     -11.263  12.005  68.487  1.00  0.00    -0.256 C  
BRANCH  10  11
HETATM   11  O   UNL     1     -11.842  11.333  67.352  1.00  0.00    -0.590 OA 
BRANCH  11  12
HETATM   12  C   UNL     1     -10.987  11.122  66.301  1.00  0.00    -0.163 A  
HETATM   13  C   UNL     1     -11.241  11.752  65.065  1.00  0.00    -0.318 A  
HETATM   14  C   UNL     1      -9.902  10.239  66.406  1.00  0.00    -0.272 A  
HETATM   15  C   UNL     1     -10.364  11.533  63.989  1.00  0.00    -0.406 A  
HETATM   16  C   UNL     1      -9.051  10.017  65.324  1.00  0.00    -0.243 A  
HETATM   17  C   UNL     1      -9.278  10.666  64.117  1.00  0.00    -0.267 A  
BRANCH  13  18
HETATM   18  C   UNL     1     -12.406  12.676  64.869  1.00  0.00    -0.498 C  
HETATM   19  O   UNL     1     -13.410  12.292  64.274  1.00  0.00    -0.777 OA 
BRANCH  18  20
HETATM   20  C   UNL     1     -12.364  14.067  65.489  1.00  0.00    -0.503 C  
BRANCH  20  21
HETATM   21  C   UNL     1     -11.087  14.822  65.131  1.00  0.00    -0.389 C  
BRANCH  21  22
HETATM   22  C   UNL     1     -10.235  15.120  66.342  1.00  0.00    -0.291 A  
HETATM   23  C   UNL     1      -9.117  14.327  66.640  1.00  0.00    -0.249 A  
HETATM   24  C   UNL     1      -8.316  14.618  67.745  1.00  0.00    -0.168 A  
HETATM   25  C   UNL     1      -8.626  15.700  68.566  1.00  0.00    -0.180 A  
HETATM   26  C   UNL     1      -9.742  16.486  68.286  1.00  0.00    -0.231 A  
HETATM   27  C   UNL     1     -10.546  16.196  67.182  1.00  0.00    -0.294 A  
ENDBRANCH  21  22
ENDBRANCH  20  21
ENDBRANCH  18  20
ENDBRANCH  13  18
ENDBRANCH  11  12
ENDBRANCH  10  11
ENDBRANCH   7  10
ENDBRANCH   6   7
ENDBRANCH   4   6
ENDBRANCH   3   4
ENDBRANCH   2   3
TORSDOF 11
ENDMDL
MODEL       55
REMARK 921   NORMALIZED FREE ENERGY PREDICTED BY IDOCK:   -5.84 KCAL/MOL
REMARK 922        TOTAL FREE ENERGY PREDICTED BY IDOCK:  -10.61 KCAL/MOL
REMARK 923 INTER-LIGAND FREE ENERGY PREDICTED BY IDOCK:   -9.06 KCAL/MOL
REMARK 924 INTRA-LIGAND FREE ENERGY PREDICTED BY IDOCK:   -1.55 KCAL/MOL
REMARK 927      BINDING AFFINITY PREDICTED BY RF-SCORE:    0.00 PKD
ROOT
HETATM    1  C   UNL     1     -10.147   7.719  66.850  1.00  0.00    -0.356 C  
HETATM    2  C   UNL     1     -10.276   9.089  67.499  1.00  0.00    -0.302 C  
ENDROOT
BRANCH   2   3
HETATM    3  C   UNL     1      -9.913  10.201  66.517  1.00  0.00    -0.224 C  
BRANCH   3   4
HETATM    4  N   UNL     1     -10.996  11.181  66.462  1.00  0.00    -0.249 NA 
HETATM    5  H   UNL     1     -11.825  10.861  66.963  1.00  0.00     0.000 HD 
BRANCH   4   6
HETATM    6  C   UNL     1     -10.528  12.485  66.952  1.00  0.00    -0.228 C  
BRANCH   6   7
HETATM    7  C   UNL     1     -11.520  13.603  66.582  1.00  0.00    -0.343 C  
HETATM    8  O   UNL     1     -12.660  13.058  65.900  1.00  0.00    -0.480 OA 
HETATM    9  H   UNL     1     -13.272  13.749  65.673  1.00  0.00     0.000 HD 
BRANCH   7  10
HETATM   10  C   UNL     1     -11.987  14.355  67.834  1.00  0.00    -0.313 C  
BRANCH  10  11
HETATM   11  O   UNL     1     -11.394  13.759  69.004  1.00  0.00    -0.258 OA 
BRANCH  11  12
HETATM   12  C   UNL     1     -12.153  13.831  70.143  1.00  0.00    -0.359 A  
HETATM   13  C   UNL     1     -12.599  12.641  70.754  1.00  0.00    -0.302 A  
HETATM   14  C   UNL     1     -12.555  15.064  70.678  1.00  0.00    -0.429 A  
HETATM   15  C   UNL     1     -13.379  12.719  71.921  1.00  0.00    -0.510 A  
HETATM   16  C   UNL     1     -13.345  15.125  71.826  1.00  0.00    -0.506 A  
HETATM   17  C   UNL     1     -13.753  13.954  72.450  1.00  0.00    -0.678 A  
BRANCH  13  18
HETATM   18  C   UNL     1     -12.243  11.288  70.213  1.00  0.00    -0.345 C  
HETATM   19  O   UNL     1     -12.544  10.980  69.062  1.00  0.00    -0.378 OA 
BRANCH  18  20
HETATM   20  C   UNL     1     -11.431  10.333  71.078  1.00  0.00    -0.386 C  
BRANCH  20  21
HETATM   21  C   UNL     1     -12.301   9.273  71.745  1.00  0.00    -0.454 C  
BRANCH  21  22
HETATM   22  C   UNL     1     -11.638   7.916  71.774  1.00  0.00    -0.321 A  
HETATM   23  C   UNL     1     -11.147   7.388  72.977  1.00  0.00    -0.390 A  
HETATM   24  C   UNL     1     -10.556   6.124  73.007  1.00  0.00    -0.263 A  
HETATM   25  C   UNL     1     -10.445   5.377  71.836  1.00  0.00    -0.283 A  
HETATM   26  C   UNL     1     -10.917   5.899  70.633  1.00  0.00    -0.357 A  
HETATM   27  C   UNL     1     -11.507   7.164  70.600  1.00  0.00    -0.346 A  
ENDBRANCH  21  22
ENDBRANCH  20  21
ENDBRANCH  18  20
ENDBRANCH  13  18
ENDBRANCH  11  12
ENDBRANCH  10  11
ENDBRANCH   7  10
ENDBRANCH   6   7
ENDBRANCH   4   6
ENDBRANCH   3   4
ENDBRANCH   2   3
TORSDOF 11
ENDMDL
MODEL       56
REMARK 921   NORMALIZED FREE ENERGY PREDICTED BY IDOCK:   -5.84 KCAL/MOL
REMARK 922        TOTAL FREE ENERGY PREDICTED BY IDOCK:  -10.61 KCAL/MOL
REMARK 923 INTER-LIGAND FREE ENERGY PREDICTED BY IDOCK:   -8.95 KCAL/MOL
REMARK 924 INTRA-LIGAND FREE ENERGY PREDICTED BY IDOCK:   -1.66 KCAL/MOL
REMARK 927      BINDING AFFINITY PREDICTED BY RF-SCORE:    0.00 PKD
ROOT
HETATM    1  C   UNL     1     -12.729  15.277  70.665  1.00  0.00    -0.470 C  
HETATM    2  C   UNL     1     -12.083  14.378  69.623  1.00  0.00    -0.381 C  
ENDROOT
BRANCH   2   3
HETATM    3  C   UNL     1     -11.609  15.184  68.414  1.00  0.00    -0.337 C  
BRANCH   3   4
HETATM    4  N   UNL     1     -12.014  14.508  67.183  1.00  0.00    -0.483 NA 
HETATM    5  H   UNL     1     -13.022  14.356  67.145  1.00  0.00     0.000 HD 
BRANCH   4   6
HETATM    6  C   UNL     1     -11.527  15.250  66.012  1.00  0.00    -0.085 C  
BRANCH   6   7
HETATM    7  C   UNL     1     -12.281  14.828  64.738  1.00  0.00    -0.348 C  
HETATM    8  O   UNL     1     -12.287  15.898  63.780  1.00  0.00    -1.121 OA 
HETATM    9  H   UNL     1     -12.752  15.637  62.994  1.00  0.00     0.000 HD 
BRANCH   7  10
HETATM   10  C   UNL     1     -11.639  13.586  64.109  1.00  0.00    -0.376 C  
BRANCH  10  11
HETATM   11  O   UNL     1     -10.421  13.266  64.808  1.00  0.00    -0.348 OA 
BRANCH  11  12
HETATM   12  C   UNL     1      -9.970  11.983  64.637  1.00  0.00    -0.214 A  
HETATM   13  C   UNL     1      -9.606  11.220  65.766  1.00  0.00    -0.256 A  
HETATM   14  C   UNL     1      -9.799  11.432  63.358  1.00  0.00    -0.422 A  
HETATM   15  C   UNL     1      -9.143   9.906  65.586  1.00  0.00    -0.220 A  
HETATM   16  C   UNL     1      -9.320  10.133  63.195  1.00  0.00    -0.333 A  
HETATM   17  C   UNL     1      -8.996   9.367  64.308  1.00  0.00    -0.204 A  
BRANCH  13  18
HETATM   18  C   UNL     1      -9.724  11.760  67.160  1.00  0.00    -0.183 C  
HETATM   19  O   UNL     1      -9.027  12.705  67.522  1.00  0.00    -0.170 OA 
BRANCH  18  20
HETATM   20  C   UNL     1     -10.776  11.177  68.096  1.00  0.00    -0.244 C  
BRANCH  20  21
HETATM   21  C   UNL     1     -10.189  10.762  69.441  1.00  0.00    -0.187 C  
BRANCH  21  22
HETATM   22  C   UNL     1     -11.229  10.184  70.371  1.00  0.00    -0.402 A  
HETATM   23  C   UNL     1     -11.268   8.806  70.629  1.00  0.00    -0.294 A  
HETATM   24  C   UNL     1     -12.215   8.277  71.508  1.00  0.00    -0.334 A  
HETATM   25  C   UNL     1     -13.134   9.116  72.132  1.00  0.00    -0.516 A  
HETATM   26  C   UNL     1     -13.113  10.485  71.872  1.00  0.00    -0.567 A  
HETATM   27  C   UNL     1     -12.167  11.018  70.993  1.00  0.00    -0.456 A  
ENDBRANCH  21  22
ENDBRANCH  20  21
ENDBRANCH  18  20
ENDBRANCH  13  18
ENDBRANCH  11  12
ENDBRANCH  10  11
ENDBRANCH   7  10
ENDBRANCH   6   7
ENDBRANCH   4   6
ENDBRANCH   3   4
ENDBRANCH   2   3
TORSDOF 11
ENDMDL
MODEL       57
REMARK 921   NORMALIZED FREE ENERGY PREDICTED BY IDOCK:   -5.83 KCAL/MOL
REMARK 922        TOTAL FREE ENERGY PREDICTED BY IDOCK:  -10.60 KCAL/MOL
REMARK 923 INTER-LIGAND FREE ENERGY PREDICTED BY IDOCK:   -8.82 KCAL/MOL
REMARK 924 INTRA-LIGAND FREE ENERGY PREDICTED BY IDOCK:   -1.78 KCAL/MOL
REMARK 927      BINDING AFFINITY PREDICTED BY RF-SCORE:    0.00 PKD
ROOT
HETATM    1  C   UNL     1     -10.946  11.651  63.622  1.00  0.00    -0.507 C  
HETATM    2  C   UNL     1     -10.433  12.874  64.368  1.00  0.00    -0.419 C  
ENDROOT
BRANCH   2   3
HETATM    3  C   UNL     1     -10.011  12.517  65.792  1.00  0.00    -0.259 C  
BRANCH   3   4
HETATM    4  N   UNL     1      -9.014  13.476  66.264  1.00  0.00    -0.460 NA 
HETATM    5  H   UNL     1      -9.255  14.433  66.008  1.00  0.00     0.000 HD 
BRANCH   4   6
HETATM    6  C   UNL     1      -8.815  13.329  67.713  1.00  0.00    -0.197 C  
BRANCH   6   7
HETATM    7  C   UNL     1      -7.454  13.905  68.144  1.00  0.00    -0.126 C  
HETATM    8  O   UNL     1      -6.473  13.703  67.115  1.00  0.00    -0.445 OA 
HETATM    9  H   UNL     1      -5.633  14.058  67.382  1.00  0.00     0.000 HD 
BRANCH   7  10
HETATM   10  C   UNL     1      -7.566  15.403  68.453  1.00  0.00    -0.116 C  
BRANCH  10  11
HETATM   11  O   UNL     1      -8.033  16.102  67.283  1.00  0.00    -0.148 OA 
BRANCH  11  12
HETATM   12  C   UNL     1      -8.580  17.337  67.521  1.00  0.00    -0.209 A  
HETATM   13  C   UNL     1      -9.981  17.489  67.502  1.00  0.00    -0.315 A  
HETATM   14  C   UNL     1      -7.773  18.468  67.718  1.00  0.00    -0.245 A  
HETATM   15  C   UNL     1     -10.537  18.757  67.745  1.00  0.00    -0.452 A  
HETATM   16  C   UNL     1      -8.340  19.722  67.938  1.00  0.00    -0.342 A  
HETATM   17  C   UNL     1      -9.721  19.867  67.957  1.00  0.00    -0.510 A  
BRANCH  13  18
HETATM   18  C   UNL     1     -10.902  16.331  67.257  1.00  0.00    -0.216 C  
HETATM   19  O   UNL     1     -11.023  15.861  66.129  1.00  0.00    -0.254 OA 
BRANCH  18  20
HETATM   20  C   UNL     1     -11.623  15.693  68.438  1.00  0.00    -0.358 C  
BRANCH  20  21
HETATM   21  C   UNL     1     -10.924  15.973  69.764  1.00  0.00    -0.334 C  
BRANCH  21  22
HETATM   22  C   UNL     1     -11.781  15.616  70.956  1.00  0.00    -0.444 A  
HETATM   23  C   UNL     1     -12.716  14.574  70.874  1.00  0.00    -0.411 A  
HETATM   24  C   UNL     1     -13.490  14.229  71.984  1.00  0.00    -0.499 A  
HETATM   25  C   UNL     1     -13.343  14.925  73.182  1.00  0.00    -0.493 A  
HETATM   26  C   UNL     1     -12.426  15.971  73.269  1.00  0.00    -0.645 A  
HETATM   27  C   UNL     1     -11.651  16.319  72.160  1.00  0.00    -0.411 A  
ENDBRANCH  21  22
ENDBRANCH  20  21
ENDBRANCH  18  20
ENDBRANCH  13  18
ENDBRANCH  11  12
ENDBRANCH  10  11
ENDBRANCH   7  10
ENDBRANCH   6   7
ENDBRANCH   4   6
ENDBRANCH   3   4
ENDBRANCH   2   3
TORSDOF 11
ENDMDL
MODEL       58
REMARK 921   NORMALIZED FREE ENERGY PREDICTED BY IDOCK:   -5.82 KCAL/MOL
REMARK 922        TOTAL FREE ENERGY PREDICTED BY IDOCK:  -10.58 KCAL/MOL
REMARK 923 INTER-LIGAND FREE ENERGY PREDICTED BY IDOCK:   -9.11 KCAL/MOL
REMARK 924 INTRA-LIGAND FREE ENERGY PREDICTED BY IDOCK:   -1.47 KCAL/MOL
REMARK 927      BINDING AFFINITY PREDICTED BY RF-SCORE:    0.00 PKD
ROOT
HETATM    1  C   UNL     1      -8.179  19.188  68.590  1.00  0.00    -0.404 C  
HETATM    2  C   UNL     1      -9.369  19.128  67.644  1.00  0.00    -0.357 C  
ENDROOT
BRANCH   2   3
HETATM    3  C   UNL     1      -9.524  17.733  67.039  1.00  0.00    -0.271 C  
BRANCH   3   4
HETATM    4  N   UNL     1      -9.022  16.732  67.978  1.00  0.00    -0.213 NA 
HETATM    5  H   UNL     1      -8.357  17.130  68.641  1.00  0.00     0.000 HD 
BRANCH   4   6
HETATM    6  C   UNL     1     -10.142  16.066  68.658  1.00  0.00    -0.220 C  
BRANCH   6   7
HETATM    7  C   UNL     1     -10.324  14.627  68.143  1.00  0.00    -0.230 C  
HETATM    8  O   UNL     1     -10.079  13.681  69.196  1.00  0.00    -0.428 OA 
HETATM    9  H   UNL     1     -10.192  12.793  68.878  1.00  0.00     0.000 HD 
BRANCH   7  10
HETATM   10  C   UNL     1     -11.739  14.418  67.591  1.00  0.00    -0.391 C  
BRANCH  10  11
HETATM   11  O   UNL     1     -11.981  13.010  67.408  1.00  0.00    -0.364 OA 
BRANCH  11  12
HETATM   12  C   UNL     1     -11.761  12.541  66.138  1.00  0.00    -0.409 A  
HETATM   13  C   UNL     1     -10.728  11.607  65.913  1.00  0.00    -0.328 A  
HETATM   14  C   UNL     1     -12.496  13.022  65.043  1.00  0.00    -0.534 A  
HETATM   15  C   UNL     1     -10.504  11.131  64.610  1.00  0.00    -0.400 A  
HETATM   16  C   UNL     1     -12.248  12.554  63.753  1.00  0.00    -0.615 A  
HETATM   17  C   UNL     1     -11.257  11.606  63.536  1.00  0.00    -0.462 A  
BRANCH  13  18
HETATM   18  C   UNL     1      -9.877  11.082  67.030  1.00  0.00    -0.182 C  
HETATM   19  O   UNL     1      -8.802  11.614  67.295  1.00  0.00    -0.155 OA 
BRANCH  18  20
HETATM   20  C   UNL     1     -10.398   9.933  67.884  1.00  0.00    -0.256 C  
BRANCH  20  21
HETATM   21  C   UNL     1      -9.895  10.005  69.322  1.00  0.00    -0.227 C  
BRANCH  21  22
HETATM   22  C   UNL     1     -11.016   9.919  70.331  1.00  0.00    -0.379 A  
HETATM   23  C   UNL     1     -11.957  10.953  70.440  1.00  0.00    -0.453 A  
HETATM   24  C   UNL     1     -13.007  10.861  71.356  1.00  0.00    -0.527 A  
HETATM   25  C   UNL     1     -13.124   9.740  72.174  1.00  0.00    -0.513 A  
HETATM   26  C   UNL     1     -12.186   8.713  72.083  1.00  0.00    -0.453 A  
HETATM   27  C   UNL     1     -11.134   8.803  71.168  1.00  0.00    -0.340 A  
ENDBRANCH  21  22
ENDBRANCH  20  21
ENDBRANCH  18  20
ENDBRANCH  13  18
ENDBRANCH  11  12
ENDBRANCH  10  11
ENDBRANCH   7  10
ENDBRANCH   6   7
ENDBRANCH   4   6
ENDBRANCH   3   4
ENDBRANCH   2   3
TORSDOF 11
ENDMDL
MODEL       59
REMARK 921   NORMALIZED FREE ENERGY PREDICTED BY IDOCK:   -5.81 KCAL/MOL
REMARK 922        TOTAL FREE ENERGY PREDICTED BY IDOCK:  -10.55 KCAL/MOL
REMARK 923 INTER-LIGAND FREE ENERGY PREDICTED BY IDOCK:   -8.74 KCAL/MOL
REMARK 924 INTRA-LIGAND FREE ENERGY PREDICTED BY IDOCK:   -1.82 KCAL/MOL
REMARK 927      BINDING AFFINITY PREDICTED BY RF-SCORE:    0.00 PKD
ROOT
HETATM    1  C   UNL     1     -13.020  11.515  71.504  1.00  0.00    -0.485 C  
HETATM    2  C   UNL     1     -12.553  10.071  71.599  1.00  0.00    -0.524 C  
ENDROOT
BRANCH   2   3
HETATM    3  C   UNL     1     -13.679   9.155  72.077  1.00  0.00    -0.448 C  
BRANCH   3   4
HETATM    4  N   UNL     1     -13.157   7.809  72.302  1.00  0.00    -0.516 NA 
HETATM    5  H   UNL     1     -13.455   7.158  71.576  1.00  0.00     0.000 HD 
BRANCH   4   6
HETATM    6  C   UNL     1     -11.694   7.848  72.436  1.00  0.00    -0.367 C  
BRANCH   6   7
HETATM    7  C   UNL     1     -11.088   6.440  72.286  1.00  0.00    -0.265 C  
HETATM    8  O   UNL     1     -11.799   5.497  73.102  1.00  0.00    -0.536 OA 
HETATM    9  H   UNL     1     -11.425   4.629  73.009  1.00  0.00     0.000 HD 
BRANCH   7  10
HETATM   10  C   UNL     1     -11.129   5.980  70.824  1.00  0.00    -0.286 C  
BRANCH  10  11
HETATM   11  O   UNL     1     -11.331   7.119  69.966  1.00  0.00    -0.263 OA 
BRANCH  11  12
HETATM   12  C   UNL     1     -10.786   7.009  68.712  1.00  0.00    -0.194 A  
HETATM   13  C   UNL     1     -10.297   8.163  68.066  1.00  0.00    -0.267 A  
HETATM   14  C   UNL     1     -10.764   5.783  68.029  1.00  0.00    -0.290 A  
HETATM   15  C   UNL     1      -9.740   8.046  66.781  1.00  0.00    -0.305 A  
HETATM   16  C   UNL     1     -10.226   5.687  66.747  1.00  0.00    -0.276 A  
HETATM   17  C   UNL     1      -9.709   6.816  66.124  1.00  0.00     0.041 A  
BRANCH  13  18
HETATM   18  C   UNL     1     -10.326   9.512  68.720  1.00  0.00    -0.208 C  
HETATM   19  O   UNL     1      -9.577   9.762  69.661  1.00  0.00    -0.193 OA 
BRANCH  18  20
HETATM   20  C   UNL     1     -11.236  10.593  68.152  1.00  0.00    -0.366 C  
BRANCH  20  21
HETATM   21  C   UNL     1     -10.454  11.695  67.442  1.00  0.00    -0.239 C  
BRANCH  21  22
HETATM   22  C   UNL     1     -10.971  11.963  66.049  1.00  0.00    -0.355 A  
HETATM   23  C   UNL     1     -10.448  11.269  64.948  1.00  0.00    -0.375 A  
HETATM   24  C   UNL     1     -10.943  11.501  63.664  1.00  0.00    -0.482 A  
HETATM   25  C   UNL     1     -11.961  12.431  63.466  1.00  0.00    -0.627 A  
HETATM   26  C   UNL     1     -12.479  13.135  64.551  1.00  0.00    -0.406 A  
HETATM   27  C   UNL     1     -11.984  12.906  65.837  1.00  0.00    -0.504 A  
ENDBRANCH  21  22
ENDBRANCH  20  21
ENDBRANCH  18  20
ENDBRANCH  13  18
ENDBRANCH  11  12
ENDBRANCH  10  11
ENDBRANCH   7  10
ENDBRANCH   6   7
ENDBRANCH   4   6
ENDBRANCH   3   4
ENDBRANCH   2   3
TORSDOF 11
ENDMDL
MODEL       60
REMARK 921   NORMALIZED FREE ENERGY PREDICTED BY IDOCK:   -5.80 KCAL/MOL
REMARK 922        TOTAL FREE ENERGY PREDICTED BY IDOCK:  -10.55 KCAL/MOL
REMARK 923 INTER-LIGAND FREE ENERGY PREDICTED BY IDOCK:   -8.68 KCAL/MOL
REMARK 924 INTRA-LIGAND FREE ENERGY PREDICTED BY IDOCK:   -1.87 KCAL/MOL
REMARK 927      BINDING AFFINITY PREDICTED BY RF-SCORE:    0.00 PKD
ROOT
HETATM    1  C   UNL     1      -9.839  11.470  63.166  1.00  0.00    -0.413 C  
HETATM    2  C   UNL     1      -9.864  11.191  64.661  1.00  0.00    -0.330 C  
ENDROOT
BRANCH   2   3
HETATM    3  C   UNL     1      -9.047   9.947  65.005  1.00  0.00    -0.218 C  
BRANCH   3   4
HETATM    4  N   UNL     1      -9.425   9.461  66.330  1.00  0.00    -0.184 NA 
HETATM    5  H   UNL     1     -10.297   9.881  66.655  1.00  0.00     0.000 HD 
BRANCH   4   6
HETATM    6  C   UNL     1      -9.489   7.993  66.334  1.00  0.00    -0.201 C  
BRANCH   6   7
HETATM    7  C   UNL     1     -10.699   7.495  67.145  1.00  0.00    -0.309 C  
HETATM    8  O   UNL     1     -11.201   6.266  66.597  1.00  0.00    -0.724 OA 
HETATM    9  H   UNL     1     -11.948   5.959  67.097  1.00  0.00     0.000 HD 
BRANCH   7  10
HETATM   10  C   UNL     1     -10.321   7.278  68.615  1.00  0.00    -0.193 C  
BRANCH  10  11
HETATM   11  O   UNL     1      -9.996   8.544  69.220  1.00  0.00    -0.185 OA 
BRANCH  11  12
HETATM   12  C   UNL     1     -10.962   9.062  70.045  1.00  0.00    -0.214 A  
HETATM   13  C   UNL     1     -11.352  10.408  69.895  1.00  0.00    -0.370 A  
HETATM   14  C   UNL     1     -11.524   8.300  71.081  1.00  0.00    -0.307 A  
HETATM   15  C   UNL     1     -12.340  10.935  70.744  1.00  0.00    -0.487 A  
HETATM   16  C   UNL     1     -12.490   8.843  71.926  1.00  0.00    -0.445 A  
HETATM   17  C   UNL     1     -12.902  10.158  71.756  1.00  0.00    -0.554 A  
BRANCH  13  18
HETATM   18  C   UNL     1     -10.763  11.292  68.836  1.00  0.00    -0.207 C  
HETATM   19  O   UNL     1      -9.553  11.503  68.805  1.00  0.00    -0.181 OA 
BRANCH  18  20
HETATM   20  C   UNL     1     -11.671  11.858  67.752  1.00  0.00    -0.362 C  
BRANCH  20  21
HETATM   21  C   UNL     1     -11.965  13.341  67.957  1.00  0.00    -0.351 C  
BRANCH  21  22
HETATM   22  C   UNL     1     -11.752  14.151  66.700  1.00  0.00    -0.422 A  
HETATM   23  C   UNL     1     -10.818  15.196  66.676  1.00  0.00    -0.318 A  
HETATM   24  C   UNL     1     -10.605  15.929  65.506  1.00  0.00    -0.419 A  
HETATM   25  C   UNL     1     -11.326  15.627  64.353  1.00  0.00    -0.272 A  
HETATM   26  C   UNL     1     -12.266  14.599  64.371  1.00  0.00    -0.473 A  
HETATM   27  C   UNL     1     -12.483  13.866  65.540  1.00  0.00    -0.541 A  
ENDBRANCH  21  22
ENDBRANCH  20  21
ENDBRANCH  18  20
ENDBRANCH  13  18
ENDBRANCH  11  12
ENDBRANCH  10  11
ENDBRANCH   7  10
ENDBRANCH   6   7
ENDBRANCH   4   6
ENDBRANCH   3   4
ENDBRANCH   2   3
TORSDOF 11
ENDMDL
MODEL       61
REMARK 921   NORMALIZED FREE ENERGY PREDICTED BY IDOCK:   -5.80 KCAL/MOL
REMARK 922        TOTAL FREE ENERGY PREDICTED BY IDOCK:  -10.54 KCAL/MOL
REMARK 923 INTER-LIGAND FREE ENERGY PREDICTED BY IDOCK:   -9.51 KCAL/MOL
REMARK 924 INTRA-LIGAND FREE ENERGY PREDICTED BY IDOCK:   -1.04 KCAL/MOL
REMARK 927      BINDING AFFINITY PREDICTED BY RF-SCORE:    0.00 PKD
ROOT
HETATM    1  C   UNL     1     -12.612  11.994  63.449  1.00  0.00    -0.592 C  
HETATM    2  C   UNL     1     -11.122  11.805  63.687  1.00  0.00    -0.518 C  
ENDROOT
BRANCH   2   3
HETATM    3  C   UNL     1     -10.511  13.029  64.368  1.00  0.00    -0.404 C  
BRANCH   3   4
HETATM    4  N   UNL     1      -9.617  12.600  65.441  1.00  0.00    -0.463 NA 
HETATM    5  H   UNL     1      -9.629  13.247  66.230  1.00  0.00     0.000 HD 
BRANCH   4   6
HETATM    6  C   UNL     1      -9.940  11.227  65.854  1.00  0.00    -0.234 C  
BRANCH   6   7
HETATM    7  C   UNL     1     -10.568  11.206  67.259  1.00  0.00    -0.239 C  
HETATM    8  O   UNL     1     -11.917  11.695  67.215  1.00  0.00    -0.627 OA 
HETATM    9  H   UNL     1     -12.304  11.681  68.083  1.00  0.00     0.000 HD 
BRANCH   7  10
HETATM   10  C   UNL     1     -10.560   9.787  67.840  1.00  0.00    -0.259 C  
BRANCH  10  11
HETATM   11  O   UNL     1     -11.384   9.746  69.022  1.00  0.00    -0.109 OA 
BRANCH  11  12
HETATM   12  C   UNL     1     -10.779   9.223  70.136  1.00  0.00    -0.235 A  
HETATM   13  C   UNL     1     -11.485   9.188  71.356  1.00  0.00    -0.420 A  
HETATM   14  C   UNL     1      -9.447   8.783  70.106  1.00  0.00    -0.182 A  
HETATM   15  C   UNL     1     -10.861   8.653  72.495  1.00  0.00    -0.210 A  
HETATM   16  C   UNL     1      -8.835   8.272  71.250  1.00  0.00    -0.193 A  
HETATM   17  C   UNL     1      -9.542   8.202  72.443  1.00  0.00    -0.335 A  
BRANCH  13  18
HETATM   18  C   UNL     1     -12.897   9.679  71.470  1.00  0.00    -0.392 C  
HETATM   19  O   UNL     1     -13.839   8.912  71.284  1.00  0.00    -0.310 OA 
BRANCH  18  20
HETATM   20  C   UNL     1     -13.150  11.119  71.898  1.00  0.00    -0.513 C  
BRANCH  20  21
HETATM   21  C   UNL     1     -12.640  12.127  70.874  1.00  0.00    -0.340 C  
BRANCH  21  22
HETATM   22  C   UNL     1     -12.605  13.535  71.418  1.00  0.00    -0.398 A  
HETATM   23  C   UNL     1     -11.733  14.489  70.872  1.00  0.00    -0.308 A  
HETATM   24  C   UNL     1     -11.718  15.797  71.360  1.00  0.00    -0.508 A  
HETATM   25  C   UNL     1     -12.569  16.163  72.401  1.00  0.00    -0.461 A  
HETATM   26  C   UNL     1     -13.429  15.220  72.959  1.00  0.00    -0.580 A  
HETATM   27  C   UNL     1     -13.445  13.910  72.474  1.00  0.00    -0.676 A  
ENDBRANCH  21  22
ENDBRANCH  20  21
ENDBRANCH  18  20
ENDBRANCH  13  18
ENDBRANCH  11  12
ENDBRANCH  10  11
ENDBRANCH   7  10
ENDBRANCH   6   7
ENDBRANCH   4   6
ENDBRANCH   3   4
ENDBRANCH   2   3
TORSDOF 11
ENDMDL
MODEL       62
REMARK 921   NORMALIZED FREE ENERGY PREDICTED BY IDOCK:   -5.78 KCAL/MOL
REMARK 922        TOTAL FREE ENERGY PREDICTED BY IDOCK:  -10.51 KCAL/MOL
REMARK 923 INTER-LIGAND FREE ENERGY PREDICTED BY IDOCK:   -9.16 KCAL/MOL
REMARK 924 INTRA-LIGAND FREE ENERGY PREDICTED BY IDOCK:   -1.34 KCAL/MOL
REMARK 927      BINDING AFFINITY PREDICTED BY RF-SCORE:    0.00 PKD
ROOT
HETATM    1  C   UNL     1      -9.379   4.216  64.613  1.00  0.00    -0.163 C  
HETATM    2  C   UNL     1      -9.285   5.314  65.661  1.00  0.00    -0.145 C  
ENDROOT
BRANCH   2   3
HETATM    3  C   UNL     1     -10.551   5.375  66.514  1.00  0.00    -0.289 C  
BRANCH   3   4
HETATM    4  N   UNL     1     -10.911   6.769  66.761  1.00  0.00    -0.539 NA 
HETATM    5  H   UNL     1     -11.263   6.910  67.709  1.00  0.00     0.000 HD 
BRANCH   4   6
HETATM    6  C   UNL     1      -9.771   7.649  66.465  1.00  0.00    -0.181 C  
BRANCH   6   7
HETATM    7  C   UNL     1     -10.131   9.124  66.720  1.00  0.00    -0.271 C  
HETATM    8  O   UNL     1     -10.331   9.358  68.122  1.00  0.00    -0.191 OA 
HETATM    9  H   UNL     1     -10.553  10.268  68.279  1.00  0.00     0.000 HD 
BRANCH   7  10
HETATM   10  C   UNL     1      -9.026  10.053  66.202  1.00  0.00    -0.149 C  
BRANCH  10  11
HETATM   11  O   UNL     1      -9.350  11.417  66.535  1.00  0.00    -0.179 OA 
BRANCH  11  12
HETATM   12  C   UNL     1     -10.363  11.973  65.795  1.00  0.00    -0.254 A  
HETATM   13  C   UNL     1     -11.494  12.497  66.453  1.00  0.00    -0.418 A  
HETATM   14  C   UNL     1     -10.330  11.970  64.392  1.00  0.00    -0.342 A  
HETATM   15  C   UNL     1     -12.530  13.064  65.691  1.00  0.00    -0.452 A  
HETATM   16  C   UNL     1     -11.375  12.519  63.650  1.00  0.00    -0.555 A  
HETATM   17  C   UNL     1     -12.472  13.070  64.298  1.00  0.00    -0.385 A  
BRANCH  13  18
HETATM   18  C   UNL     1     -11.615  12.496  67.948  1.00  0.00    -0.347 C  
HETATM   19  O   UNL     1     -12.108  11.533  68.531  1.00  0.00    -0.522 OA 
BRANCH  18  20
HETATM   20  C   UNL     1     -11.044  13.665  68.741  1.00  0.00    -0.302 C  
BRANCH  20  21
HETATM   21  C   UNL     1     -12.109  14.695  69.103  1.00  0.00    -0.283 C  
BRANCH  21  22
HETATM   22  C   UNL     1     -12.306  14.820  70.595  1.00  0.00    -0.401 A  
HETATM   23  C   UNL     1     -11.696  15.862  71.309  1.00  0.00    -0.504 A  
HETATM   24  C   UNL     1     -11.899  15.991  72.685  1.00  0.00    -0.611 A  
HETATM   25  C   UNL     1     -12.706  15.079  73.360  1.00  0.00    -0.654 A  
HETATM   26  C   UNL     1     -13.306  14.033  72.662  1.00  0.00    -0.643 A  
HETATM   27  C   UNL     1     -13.104  13.900  71.287  1.00  0.00    -0.385 A  
ENDBRANCH  21  22
ENDBRANCH  20  21
ENDBRANCH  18  20
ENDBRANCH  13  18
ENDBRANCH  11  12
ENDBRANCH  10  11
ENDBRANCH   7  10
ENDBRANCH   6   7
ENDBRANCH   4   6
ENDBRANCH   3   4
ENDBRANCH   2   3
TORSDOF 11
ENDMDL
MODEL       63
REMARK 921   NORMALIZED FREE ENERGY PREDICTED BY IDOCK:   -5.78 KCAL/MOL
REMARK 922        TOTAL FREE ENERGY PREDICTED BY IDOCK:  -10.51 KCAL/MOL
REMARK 923 INTER-LIGAND FREE ENERGY PREDICTED BY IDOCK:   -8.41 KCAL/MOL
REMARK 924 INTRA-LIGAND FREE ENERGY PREDICTED BY IDOCK:   -2.10 KCAL/MOL
REMARK 927      BINDING AFFINITY PREDICTED BY RF-SCORE:    0.00 PKD
ROOT
HETATM    1  C   UNL     1     -10.782   9.941  70.438  1.00  0.00    -0.379 C  
HETATM    2  C   UNL     1     -12.211   9.754  70.926  1.00  0.00    -0.390 C  
ENDROOT
BRANCH   2   3
HETATM    3  C   UNL     1     -12.866  11.096  71.247  1.00  0.00    -0.412 C  
BRANCH   3   4
HETATM    4  N   UNL     1     -12.129  12.173  70.588  1.00  0.00    -0.473 NA 
HETATM    5  H   UNL     1     -12.263  12.162  69.576  1.00  0.00     0.000 HD 
BRANCH   4   6
HETATM    6  C   UNL     1     -12.491  13.470  71.175  1.00  0.00    -0.339 C  
BRANCH   6   7
HETATM    7  C   UNL     1     -12.621  14.552  70.088  1.00  0.00    -0.288 C  
HETATM    8  O   UNL     1     -13.598  15.533  70.468  1.00  0.00    -0.826 OA 
HETATM    9  H   UNL     1     -13.678  16.200  69.796  1.00  0.00     0.000 HD 
BRANCH   7  10
HETATM   10  C   UNL     1     -11.275  15.244  69.840  1.00  0.00    -0.288 C  
BRANCH  10  11
HETATM   11  O   UNL     1     -10.466  14.427  68.973  1.00  0.00    -0.239 OA 
BRANCH  11  12
HETATM   12  C   UNL     1     -10.613  14.677  67.632  1.00  0.00    -0.256 A  
HETATM   13  C   UNL     1     -10.818  13.600  66.745  1.00  0.00    -0.291 A  
HETATM   14  C   UNL     1     -10.496  15.975  67.114  1.00  0.00    -0.308 A  
HETATM   15  C   UNL     1     -10.966  13.860  65.372  1.00  0.00    -0.316 A  
HETATM   16  C   UNL     1     -10.626  16.214  65.746  1.00  0.00    -0.347 A  
HETATM   17  C   UNL     1     -10.866  15.159  64.876  1.00  0.00    -0.437 A  
BRANCH  13  18
HETATM   18  C   UNL     1     -10.912  12.182  67.226  1.00  0.00    -0.260 C  
HETATM   19  O   UNL     1     -11.980  11.735  67.637  1.00  0.00    -0.599 OA 
BRANCH  18  20
HETATM   20  C   UNL     1      -9.689  11.280  67.122  1.00  0.00    -0.201 C  
BRANCH  20  21
HETATM   21  C   UNL     1     -10.018   9.928  66.497  1.00  0.00    -0.291 C  
BRANCH  21  22
HETATM   22  C   UNL     1      -9.370   9.745  65.145  1.00  0.00    -0.322 A  
HETATM   23  C   UNL     1      -9.705  10.586  64.073  1.00  0.00    -0.383 A  
HETATM   24  C   UNL     1      -9.088  10.431  62.831  1.00  0.00    -0.287 A  
HETATM   25  C   UNL     1      -8.135   9.432  62.645  1.00  0.00    -0.140 A  
HETATM   26  C   UNL     1      -7.804   8.583  63.699  1.00  0.00    -0.151 A  
HETATM   27  C   UNL     1      -8.421   8.735  64.942  1.00  0.00    -0.189 A  
ENDBRANCH  21  22
ENDBRANCH  20  21
ENDBRANCH  18  20
ENDBRANCH  13  18
ENDBRANCH  11  12
ENDBRANCH  10  11
ENDBRANCH   7  10
ENDBRANCH   6   7
ENDBRANCH   4   6
ENDBRANCH   3   4
ENDBRANCH   2   3
TORSDOF 11
ENDMDL
MODEL       64
REMARK 921   NORMALIZED FREE ENERGY PREDICTED BY IDOCK:   -5.75 KCAL/MOL
REMARK 922        TOTAL FREE ENERGY PREDICTED BY IDOCK:  -10.47 KCAL/MOL
REMARK 923 INTER-LIGAND FREE ENERGY PREDICTED BY IDOCK:   -8.66 KCAL/MOL
REMARK 924 INTRA-LIGAND FREE ENERGY PREDICTED BY IDOCK:   -1.81 KCAL/MOL
REMARK 927      BINDING AFFINITY PREDICTED BY RF-SCORE:    0.00 PKD
ROOT
HETATM    1  C   UNL     1     -10.293  16.936  69.103  1.00  0.00    -0.319 C  
HETATM    2  C   UNL     1     -10.937  16.635  67.758  1.00  0.00    -0.234 C  
ENDROOT
BRANCH   2   3
HETATM    3  C   UNL     1     -10.532  15.254  67.247  1.00  0.00    -0.275 C  
BRANCH   3   4
HETATM    4  N   UNL     1     -11.084  15.043  65.910  1.00  0.00    -0.339 NA 
HETATM    5  H   UNL     1     -10.379  14.700  65.257  1.00  0.00     0.000 HD 
BRANCH   4   6
HETATM    6  C   UNL     1     -12.250  14.151  65.977  1.00  0.00    -0.443 C  
BRANCH   6   7
HETATM    7  C   UNL     1     -12.651  13.661  64.574  1.00  0.00    -0.197 C  
HETATM    8  O   UNL     1     -12.375  14.670  63.590  1.00  0.00    -1.060 OA 
HETATM    9  H   UNL     1     -12.623  14.367  62.724  1.00  0.00     0.000 HD 
BRANCH   7  10
HETATM   10  C   UNL     1     -11.901  12.375  64.207  1.00  0.00    -0.398 C  
BRANCH  10  11
HETATM   11  O   UNL     1     -10.572  12.419  64.761  1.00  0.00    -0.278 OA 
BRANCH  11  12
HETATM   12  C   UNL     1      -9.937  11.206  64.848  1.00  0.00    -0.278 A  
HETATM   13  C   UNL     1      -9.614  10.683  66.117  1.00  0.00    -0.232 A  
HETATM   14  C   UNL     1      -9.539  10.505  63.699  1.00  0.00    -0.370 A  
HETATM   15  C   UNL     1      -8.961   9.442  66.202  1.00  0.00    -0.197 A  
HETATM   16  C   UNL     1      -8.875   9.283  63.801  1.00  0.00    -0.150 A  
HETATM   17  C   UNL     1      -8.590   8.748  65.050  1.00  0.00    -0.196 A  
BRANCH  13  18
HETATM   18  C   UNL     1      -9.972  11.399  67.385  1.00  0.00    -0.186 C  
HETATM   19  O   UNL     1      -9.198  12.217  67.877  1.00  0.00    -0.175 OA 
BRANCH  18  20
HETATM   20  C   UNL     1     -11.341  11.162  68.011  1.00  0.00    -0.380 C  
BRANCH  20  21
HETATM   21  C   UNL     1     -11.267  11.010  69.527  1.00  0.00    -0.343 C  
BRANCH  21  22
HETATM   22  C   UNL     1     -12.002  12.111  70.254  1.00  0.00    -0.389 A  
HETATM   23  C   UNL     1     -12.011  13.418  69.746  1.00  0.00    -0.396 A  
HETATM   24  C   UNL     1     -12.712  14.429  70.406  1.00  0.00    -0.362 A  
HETATM   25  C   UNL     1     -13.405  14.146  71.581  1.00  0.00    -0.440 A  
HETATM   26  C   UNL     1     -13.391  12.853  72.101  1.00  0.00    -0.615 A  
HETATM   27  C   UNL     1     -12.690  11.840  71.443  1.00  0.00    -0.413 A  
ENDBRANCH  21  22
ENDBRANCH  20  21
ENDBRANCH  18  20
ENDBRANCH  13  18
ENDBRANCH  11  12
ENDBRANCH  10  11
ENDBRANCH   7  10
ENDBRANCH   6   7
ENDBRANCH   4   6
ENDBRANCH   3   4
ENDBRANCH   2   3
TORSDOF 11
ENDMDL
MODEL       65
REMARK 921   NORMALIZED FREE ENERGY PREDICTED BY IDOCK:   -5.75 KCAL/MOL
REMARK 922        TOTAL FREE ENERGY PREDICTED BY IDOCK:  -10.46 KCAL/MOL
REMARK 923 INTER-LIGAND FREE ENERGY PREDICTED BY IDOCK:   -9.46 KCAL/MOL
REMARK 924 INTRA-LIGAND FREE ENERGY PREDICTED BY IDOCK:   -1.01 KCAL/MOL
REMARK 927      BINDING AFFINITY PREDICTED BY RF-SCORE:    0.00 PKD
ROOT
HETATM    1  C   UNL     1      -8.749   7.610  74.267  1.00  0.00    -0.261 C  
HETATM    2  C   UNL     1      -9.879   7.905  73.291  1.00  0.00    -0.345 C  
ENDROOT
BRANCH   2   3
HETATM    3  C   UNL     1     -10.844   6.725  73.190  1.00  0.00    -0.284 C  
BRANCH   3   4
HETATM    4  N   UNL     1     -12.010   7.111  72.398  1.00  0.00    -0.470 NA 
HETATM    5  H   UNL     1     -12.884   6.828  72.843  1.00  0.00     0.000 HD 
BRANCH   4   6
HETATM    6  C   UNL     1     -11.980   8.553  72.118  1.00  0.00    -0.383 C  
BRANCH   6   7
HETATM    7  C   UNL     1     -13.402   9.141  72.096  1.00  0.00    -0.463 C  
HETATM    8  O   UNL     1     -14.140   8.720  73.254  1.00  0.00    -1.180 OA 
HETATM    9  H   UNL     1     -15.017   9.083  73.239  1.00  0.00     0.000 HD 
BRANCH   7  10
HETATM   10  C   UNL     1     -13.360  10.673  72.050  1.00  0.00    -0.304 C  
BRANCH  10  11
HETATM   11  O   UNL     1     -12.494  11.100  70.980  1.00  0.00    -0.367 OA 
BRANCH  11  12
HETATM   12  C   UNL     1     -12.470  12.452  70.754  1.00  0.00    -0.267 A  
HETATM   13  C   UNL     1     -11.777  12.954  69.633  1.00  0.00    -0.367 A  
HETATM   14  C   UNL     1     -13.063  13.354  71.650  1.00  0.00    -0.463 A  
HETATM   15  C   UNL     1     -11.753  14.341  69.406  1.00  0.00    -0.363 A  
HETATM   16  C   UNL     1     -13.014  14.729  71.421  1.00  0.00    -0.413 A  
HETATM   17  C   UNL     1     -12.364  15.223  70.298  1.00  0.00    -0.407 A  
BRANCH  13  18
HETATM   18  C   UNL     1     -11.086  12.050  68.656  1.00  0.00    -0.250 C  
HETATM   19  O   UNL     1     -10.043  11.480  68.968  1.00  0.00    -0.163 OA 
BRANCH  18  20
HETATM   20  C   UNL     1     -11.736  11.783  67.305  1.00  0.00    -0.293 C  
BRANCH  20  21
HETATM   21  C   UNL     1     -11.076  12.572  66.178  1.00  0.00    -0.336 C  
BRANCH  21  22
HETATM   22  C   UNL     1     -10.420  11.677  65.154  1.00  0.00    -0.329 A  
HETATM   23  C   UNL     1      -9.861  10.448  65.535  1.00  0.00    -0.332 A  
HETATM   24  C   UNL     1      -9.276   9.610  64.583  1.00  0.00    -0.293 A  
HETATM   25  C   UNL     1      -9.240   9.994  63.244  1.00  0.00    -0.317 A  
HETATM   26  C   UNL     1      -9.781  11.218  62.858  1.00  0.00    -0.351 A  
HETATM   27  C   UNL     1     -10.365  12.059  63.808  1.00  0.00    -0.457 A  
ENDBRANCH  21  22
ENDBRANCH  20  21
ENDBRANCH  18  20
ENDBRANCH  13  18
ENDBRANCH  11  12
ENDBRANCH  10  11
ENDBRANCH   7  10
ENDBRANCH   6   7
ENDBRANCH   4   6
ENDBRANCH   3   4
ENDBRANCH   2   3
TORSDOF 11
ENDMDL
MODEL       66
REMARK 921   NORMALIZED FREE ENERGY PREDICTED BY IDOCK:   -5.72 KCAL/MOL
REMARK 922        TOTAL FREE ENERGY PREDICTED BY IDOCK:  -10.42 KCAL/MOL
REMARK 923 INTER-LIGAND FREE ENERGY PREDICTED BY IDOCK:   -8.77 KCAL/MOL
REMARK 924 INTRA-LIGAND FREE ENERGY PREDICTED BY IDOCK:   -1.65 KCAL/MOL
REMARK 927      BINDING AFFINITY PREDICTED BY RF-SCORE:    0.00 PKD
ROOT
HETATM    1  C   UNL     1     -10.875   5.744  69.586  1.00  0.00    -0.418 C  
HETATM    2  C   UNL     1     -11.154   6.908  70.525  1.00  0.00    -0.332 C  
ENDROOT
BRANCH   2   3
HETATM    3  C   UNL     1     -11.677   6.417  71.874  1.00  0.00    -0.328 C  
BRANCH   3   4
HETATM    4  N   UNL     1     -11.847   7.553  72.778  1.00  0.00    -0.581 NA 
HETATM    5  H   UNL     1     -11.125   7.578  73.498  1.00  0.00     0.000 HD 
BRANCH   4   6
HETATM    6  C   UNL     1     -11.903   8.807  72.014  1.00  0.00    -0.372 C  
BRANCH   6   7
HETATM    7  C   UNL     1     -13.309   9.430  72.077  1.00  0.00    -0.450 C  
HETATM    8  O   UNL     1     -13.984   9.028  73.280  1.00  0.00    -1.205 OA 
HETATM    9  H   UNL     1     -14.852   9.413  73.318  1.00  0.00     0.000 HD 
BRANCH   7  10
HETATM   10  C   UNL     1     -13.233  10.960  72.025  1.00  0.00    -0.351 C  
BRANCH  10  11
HETATM   11  O   UNL     1     -12.389  11.363  70.928  1.00  0.00    -0.379 OA 
BRANCH  11  12
HETATM   12  C   UNL     1     -12.372  12.709  70.669  1.00  0.00    -0.290 A  
HETATM   13  C   UNL     1     -11.777  13.179  69.480  1.00  0.00    -0.382 A  
HETATM   14  C   UNL     1     -12.874  13.638  71.594  1.00  0.00    -0.427 A  
HETATM   15  C   UNL     1     -11.760  14.560  69.220  1.00  0.00    -0.350 A  
HETATM   16  C   UNL     1     -12.832  15.006  71.330  1.00  0.00    -0.438 A  
HETATM   17  C   UNL     1     -12.281  15.468  70.142  1.00  0.00    -0.404 A  
BRANCH  13  18
HETATM   18  C   UNL     1     -11.185  12.245  68.467  1.00  0.00    -0.271 C  
HETATM   19  O   UNL     1     -11.911  11.522  67.789  1.00  0.00    -0.623 OA 
BRANCH  18  20
HETATM   20  C   UNL     1      -9.680  12.264  68.230  1.00  0.00    -0.219 C  
BRANCH  20  21
HETATM   21  C   UNL     1      -9.207  11.068  67.410  1.00  0.00    -0.157 C  
BRANCH  21  22
HETATM   22  C   UNL     1      -8.694   9.942  68.276  1.00  0.00    -0.119 A  
HETATM   23  C   UNL     1      -8.462   8.672  67.729  1.00  0.00    -0.125 A  
HETATM   24  C   UNL     1      -7.964   7.638  68.525  1.00  0.00    -0.123 A  
HETATM   25  C   UNL     1      -7.698   7.862  69.874  1.00  0.00    -0.098 A  
HETATM   26  C   UNL     1      -7.938   9.117  70.430  1.00  0.00    -0.155 A  
HETATM   27  C   UNL     1      -8.437  10.152  69.636  1.00  0.00    -0.172 A  
ENDBRANCH  21  22
ENDBRANCH  20  21
ENDBRANCH  18  20
ENDBRANCH  13  18
ENDBRANCH  11  12
ENDBRANCH  10  11
ENDBRANCH   7  10
ENDBRANCH   6   7
ENDBRANCH   4   6
ENDBRANCH   3   4
ENDBRANCH   2   3
TORSDOF 11
ENDMDL
MODEL       67
REMARK 921   NORMALIZED FREE ENERGY PREDICTED BY IDOCK:   -5.72 KCAL/MOL
REMARK 922        TOTAL FREE ENERGY PREDICTED BY IDOCK:  -10.41 KCAL/MOL
REMARK 923 INTER-LIGAND FREE ENERGY PREDICTED BY IDOCK:   -8.81 KCAL/MOL
REMARK 924 INTRA-LIGAND FREE ENERGY PREDICTED BY IDOCK:   -1.61 KCAL/MOL
REMARK 927      BINDING AFFINITY PREDICTED BY RF-SCORE:    0.00 PKD
ROOT
HETATM    1  C   UNL     1      -9.010   9.591  62.451  1.00  0.00    -0.279 C  
HETATM    2  C   UNL     1      -8.863   9.769  63.954  1.00  0.00    -0.259 C  
ENDROOT
BRANCH   2   3
HETATM    3  C   UNL     1     -10.114  10.403  64.560  1.00  0.00    -0.295 C  
BRANCH   3   4
HETATM    4  N   UNL     1     -10.824  11.167  63.536  1.00  0.00    -0.640 NA 
HETATM    5  H   UNL     1     -11.822  10.955  63.525  1.00  0.00     0.000 HD 
BRANCH   4   6
HETATM    6  C   UNL     1     -10.571  12.604  63.707  1.00  0.00    -0.397 C  
BRANCH   6   7
HETATM    7  C   UNL     1     -11.885  13.373  63.934  1.00  0.00    -0.439 C  
HETATM    8  O   UNL     1     -12.942  12.470  64.294  1.00  0.00    -0.748 OA 
HETATM    9  H   UNL     1     -13.752  12.945  64.433  1.00  0.00     0.000 HD 
BRANCH   7  10
HETATM   10  C   UNL     1     -11.720  14.426  65.036  1.00  0.00    -0.389 C  
BRANCH  10  11
HETATM   11  O   UNL     1     -11.321  13.782  66.262  1.00  0.00    -0.310 OA 
BRANCH  11  12
HETATM   12  C   UNL     1     -10.560  14.552  67.104  1.00  0.00    -0.274 A  
HETATM   13  C   UNL     1      -9.522  13.950  67.844  1.00  0.00    -0.212 A  
HETATM   14  C   UNL     1     -10.835  15.915  67.297  1.00  0.00    -0.279 A  
HETATM   15  C   UNL     1      -8.746  14.742  68.708  1.00  0.00    -0.178 A  
HETATM   16  C   UNL     1     -10.067  16.683  68.172  1.00  0.00    -0.267 A  
HETATM   17  C   UNL     1      -9.021  16.099  68.873  1.00  0.00    -0.247 A  
BRANCH  13  18
HETATM   18  C   UNL     1      -9.200  12.491  67.718  1.00  0.00    -0.198 C  
HETATM   19  O   UNL     1      -8.473  12.091  66.811  1.00  0.00    -0.183 OA 
BRANCH  18  20
HETATM   20  C   UNL     1      -9.717  11.522  68.774  1.00  0.00    -0.137 C  
BRANCH  20  21
HETATM   21  C   UNL     1     -11.218  11.279  68.652  1.00  0.00    -0.310 C  
BRANCH  21  22
HETATM   22  C   UNL     1     -11.980  11.757  69.866  1.00  0.00    -0.405 A  
HETATM   23  C   UNL     1     -12.579  10.838  70.739  1.00  0.00    -0.476 A  
HETATM   24  C   UNL     1     -13.262  11.280  71.874  1.00  0.00    -0.491 A  
HETATM   25  C   UNL     1     -13.359  12.643  72.143  1.00  0.00    -0.570 A  
HETATM   26  C   UNL     1     -12.779  13.565  71.274  1.00  0.00    -0.432 A  
HETATM   27  C   UNL     1     -12.096  13.126  70.138  1.00  0.00    -0.392 A  
ENDBRANCH  21  22
ENDBRANCH  20  21
ENDBRANCH  18  20
ENDBRANCH  13  18
ENDBRANCH  11  12
ENDBRANCH  10  11
ENDBRANCH   7  10
ENDBRANCH   6   7
ENDBRANCH   4   6
ENDBRANCH   3   4
ENDBRANCH   2   3
TORSDOF 11
ENDMDL
MODEL       68
REMARK 921   NORMALIZED FREE ENERGY PREDICTED BY IDOCK:   -5.71 KCAL/MOL
REMARK 922        TOTAL FREE ENERGY PREDICTED BY IDOCK:  -10.39 KCAL/MOL
REMARK 923 INTER-LIGAND FREE ENERGY PREDICTED BY IDOCK:   -8.11 KCAL/MOL
REMARK 924 INTRA-LIGAND FREE ENERGY PREDICTED BY IDOCK:   -2.28 KCAL/MOL
REMARK 927      BINDING AFFINITY PREDICTED BY RF-SCORE:    0.00 PKD
ROOT
HETATM    1  C   UNL     1      -7.764  14.490  67.419  1.00  0.00    -0.215 C  
HETATM    2  C   UNL     1      -7.316  13.050  67.221  1.00  0.00    -0.067 C  
ENDROOT
BRANCH   2   3
HETATM    3  C   UNL     1      -7.416  12.256  68.523  1.00  0.00    -0.113 C  
BRANCH   3   4
HETATM    4  N   UNL     1      -8.820  12.091  68.891  1.00  0.00    -0.375 NA 
HETATM    5  H   UNL     1      -9.448  12.474  68.184  1.00  0.00     0.000 HD 
BRANCH   4   6
HETATM    6  C   UNL     1      -9.109  10.678  69.173  1.00  0.00    -0.139 C  
BRANCH   6   7
HETATM    7  C   UNL     1     -10.625  10.432  69.271  1.00  0.00    -0.232 C  
HETATM    8  O   UNL     1     -11.207  11.270  70.282  1.00  0.00    -0.485 OA 
HETATM    9  H   UNL     1     -12.143  11.118  70.342  1.00  0.00     0.000 HD 
BRANCH   7  10
HETATM   10  C   UNL     1     -11.312  10.706  67.927  1.00  0.00    -0.268 C  
BRANCH  10  11
HETATM   11  O   UNL     1     -11.976  11.984  67.978  1.00  0.00    -0.495 OA 
BRANCH  11  12
HETATM   12  C   UNL     1     -11.649  12.850  66.966  1.00  0.00    -0.362 A  
HETATM   13  C   UNL     1     -11.324  14.187  67.277  1.00  0.00    -0.349 A  
HETATM   14  C   UNL     1     -11.698  12.455  65.621  1.00  0.00    -0.468 A  
HETATM   15  C   UNL     1     -10.992  15.072  66.237  1.00  0.00    -0.338 A  
HETATM   16  C   UNL     1     -11.384  13.351  64.599  1.00  0.00    -0.372 A  
HETATM   17  C   UNL     1     -11.026  14.657  64.906  1.00  0.00    -0.419 A  
BRANCH  13  18
HETATM   18  C   UNL     1     -11.293  14.688  68.690  1.00  0.00    -0.283 C  
HETATM   19  O   UNL     1     -11.019  13.926  69.614  1.00  0.00    -0.145 OA 
BRANCH  18  20
HETATM   20  C   UNL     1     -11.523  16.170  68.957  1.00  0.00    -0.323 C  
BRANCH  20  21
HETATM   21  C   UNL     1     -10.235  16.899  69.327  1.00  0.00    -0.262 C  
BRANCH  21  22
HETATM   22  C   UNL     1      -9.884  17.987  68.339  1.00  0.00    -0.369 A  
HETATM   23  C   UNL     1     -10.889  18.634  67.605  1.00  0.00    -0.347 A  
HETATM   24  C   UNL     1     -10.566  19.656  66.710  1.00  0.00    -0.602 A  
HETATM   25  C   UNL     1      -9.237  20.038  66.537  1.00  0.00    -0.471 A  
HETATM   26  C   UNL     1      -8.230  19.392  67.252  1.00  0.00    -0.311 A  
HETATM   27  C   UNL     1      -8.551  18.369  68.146  1.00  0.00    -0.301 A  
ENDBRANCH  21  22
ENDBRANCH  20  21
ENDBRANCH  18  20
ENDBRANCH  13  18
ENDBRANCH  11  12
ENDBRANCH  10  11
ENDBRANCH   7  10
ENDBRANCH   6   7
ENDBRANCH   4   6
ENDBRANCH   3   4
ENDBRANCH   2   3
TORSDOF 11
ENDMDL
MODEL       69
REMARK 921   NORMALIZED FREE ENERGY PREDICTED BY IDOCK:   -5.70 KCAL/MOL
REMARK 922        TOTAL FREE ENERGY PREDICTED BY IDOCK:  -10.38 KCAL/MOL
REMARK 923 INTER-LIGAND FREE ENERGY PREDICTED BY IDOCK:   -9.01 KCAL/MOL
REMARK 924 INTRA-LIGAND FREE ENERGY PREDICTED BY IDOCK:   -1.37 KCAL/MOL
REMARK 927      BINDING AFFINITY PREDICTED BY RF-SCORE:    0.00 PKD
ROOT
HETATM    1  C   UNL     1      -9.997  20.025  66.691  1.00  0.00    -0.598 C  
HETATM    2  C   UNL     1     -10.622  18.745  67.225  1.00  0.00    -0.504 C  
ENDROOT
BRANCH   2   3
HETATM    3  C   UNL     1     -10.038  17.514  66.534  1.00  0.00    -0.331 C  
BRANCH   3   4
HETATM    4  N   UNL     1     -10.639  16.305  67.095  1.00  0.00    -0.310 NA 
HETATM    5  H   UNL     1     -11.608  16.456  67.377  1.00  0.00     0.000 HD 
BRANCH   4   6
HETATM    6  C   UNL     1     -10.512  15.188  66.148  1.00  0.00    -0.312 C  
BRANCH   6   7
HETATM    7  C   UNL     1     -11.479  14.046  66.508  1.00  0.00    -0.357 C  
HETATM    8  O   UNL     1     -10.765  12.808  66.649  1.00  0.00    -0.257 OA 
HETATM    9  H   UNL     1     -11.362  12.103  66.871  1.00  0.00     0.000 HD 
BRANCH   7  10
HETATM   10  C   UNL     1     -12.227  14.352  67.811  1.00  0.00    -0.155 C  
BRANCH  10  11
HETATM   11  O   UNL     1     -11.428  13.934  68.935  1.00  0.00    -0.260 OA 
BRANCH  11  12
HETATM   12  C   UNL     1     -12.127  13.696  70.090  1.00  0.00    -0.361 A  
HETATM   13  C   UNL     1     -12.402  12.367  70.472  1.00  0.00    -0.346 A  
HETATM   14  C   UNL     1     -12.634  14.749  70.868  1.00  0.00    -0.401 A  
HETATM   15  C   UNL     1     -13.121  12.128  71.656  1.00  0.00    -0.413 A  
HETATM   16  C   UNL     1     -13.361  14.495  72.030  1.00  0.00    -0.461 A  
HETATM   17  C   UNL     1     -13.601  13.186  72.428  1.00  0.00    -0.667 A  
BRANCH  13  18
HETATM   18  C   UNL     1     -11.927  11.195  69.667  1.00  0.00    -0.359 C  
HETATM   19  O   UNL     1     -12.366  10.999  68.536  1.00  0.00    -0.536 OA 
BRANCH  18  20
HETATM   20  C   UNL     1     -10.833  10.299  70.234  1.00  0.00    -0.349 C  
BRANCH  20  21
HETATM   21  C   UNL     1      -9.884   9.789  69.154  1.00  0.00    -0.192 C  
BRANCH  21  22
HETATM   22  C   UNL     1     -10.226   8.389  68.700  1.00  0.00    -0.220 A  
HETATM   23  C   UNL     1     -10.529   7.390  69.637  1.00  0.00    -0.237 A  
HETATM   24  C   UNL     1     -10.868   6.103  69.215  1.00  0.00    -0.418 A  
HETATM   25  C   UNL     1     -10.904   5.801  67.856  1.00  0.00    -0.257 A  
HETATM   26  C   UNL     1     -10.591   6.783  66.918  1.00  0.00    -0.374 A  
HETATM   27  C   UNL     1     -10.250   8.070  67.337  1.00  0.00    -0.330 A  
ENDBRANCH  21  22
ENDBRANCH  20  21
ENDBRANCH  18  20
ENDBRANCH  13  18
ENDBRANCH  11  12
ENDBRANCH  10  11
ENDBRANCH   7  10
ENDBRANCH   6   7
ENDBRANCH   4   6
ENDBRANCH   3   4
ENDBRANCH   2   3
TORSDOF 11
ENDMDL
MODEL       70
REMARK 921   NORMALIZED FREE ENERGY PREDICTED BY IDOCK:   -5.70 KCAL/MOL
REMARK 922        TOTAL FREE ENERGY PREDICTED BY IDOCK:  -10.38 KCAL/MOL
REMARK 923 INTER-LIGAND FREE ENERGY PREDICTED BY IDOCK:   -9.28 KCAL/MOL
REMARK 924 INTRA-LIGAND FREE ENERGY PREDICTED BY IDOCK:   -1.10 KCAL/MOL
REMARK 927      BINDING AFFINITY PREDICTED BY RF-SCORE:    0.00 PKD
ROOT
HETATM    1  C   UNL     1     -12.640  12.064  63.446  1.00  0.00    -0.592 C  
HETATM    2  C   UNL     1     -11.231  12.510  63.806  1.00  0.00    -0.524 C  
ENDROOT
BRANCH   2   3
HETATM    3  C   UNL     1     -10.434  11.369  64.435  1.00  0.00    -0.330 C  
BRANCH   3   4
HETATM    4  N   UNL     1      -9.550  11.900  65.472  1.00  0.00    -0.327 NA 
HETATM    5  H   UNL     1      -9.695  12.899  65.621  1.00  0.00     0.000 HD 
BRANCH   4   6
HETATM    6  C   UNL     1      -9.707  11.132  66.715  1.00  0.00    -0.193 C  
BRANCH   6   7
HETATM    7  C   UNL     1     -11.193  10.973  67.083  1.00  0.00    -0.217 C  
HETATM    8  O   UNL     1     -11.411   9.731  67.771  1.00  0.00    -0.511 OA 
HETATM    9  H   UNL     1     -12.329   9.633  67.997  1.00  0.00     0.000 HD 
BRANCH   7  10
HETATM   10  C   UNL     1     -11.667  12.133  67.966  1.00  0.00    -0.344 C  
BRANCH  10  11
HETATM   11  O   UNL     1     -11.289  11.882  69.334  1.00  0.00    -0.259 OA 
BRANCH  11  12
HETATM   12  C   UNL     1     -12.038  12.541  70.275  1.00  0.00    -0.294 A  
HETATM   13  C   UNL     1     -12.793  11.796  71.204  1.00  0.00    -0.365 A  
HETATM   14  C   UNL     1     -12.123  13.941  70.292  1.00  0.00    -0.423 A  
HETATM   15  C   UNL     1     -13.561  12.475  72.166  1.00  0.00    -0.458 A  
HETATM   16  C   UNL     1     -12.905  14.599  71.241  1.00  0.00    -0.405 A  
HETATM   17  C   UNL     1     -13.619  13.868  72.181  1.00  0.00    -0.599 A  
BRANCH  13  18
HETATM   18  C   UNL     1     -12.782  10.296  71.216  1.00  0.00    -0.421 C  
HETATM   19  O   UNL     1     -13.780   9.664  70.879  1.00  0.00    -0.222 OA 
BRANCH  18  20
HETATM   20  C   UNL     1     -11.493   9.567  71.574  1.00  0.00    -0.466 C  
BRANCH  20  21
HETATM   21  C   UNL     1     -11.754   8.246  72.290  1.00  0.00    -0.453 C  
BRANCH  21  22
HETATM   22  C   UNL     1     -11.222   7.058  71.522  1.00  0.00    -0.279 A  
HETATM   23  C   UNL     1     -11.421   6.958  70.137  1.00  0.00    -0.354 A  
HETATM   24  C   UNL     1     -10.908   5.872  69.425  1.00  0.00    -0.422 A  
HETATM   25  C   UNL     1     -10.197   4.875  70.089  1.00  0.00    -0.310 A  
HETATM   26  C   UNL     1     -10.006   4.959  71.466  1.00  0.00    -0.260 A  
HETATM   27  C   UNL     1     -10.519   6.043  72.182  1.00  0.00    -0.246 A  
ENDBRANCH  21  22
ENDBRANCH  20  21
ENDBRANCH  18  20
ENDBRANCH  13  18
ENDBRANCH  11  12
ENDBRANCH  10  11
ENDBRANCH   7  10
ENDBRANCH   6   7
ENDBRANCH   4   6
ENDBRANCH   3   4
ENDBRANCH   2   3
TORSDOF 11
ENDMDL
MODEL       71
REMARK 921   NORMALIZED FREE ENERGY PREDICTED BY IDOCK:   -5.70 KCAL/MOL
REMARK 922        TOTAL FREE ENERGY PREDICTED BY IDOCK:  -10.37 KCAL/MOL
REMARK 923 INTER-LIGAND FREE ENERGY PREDICTED BY IDOCK:   -9.03 KCAL/MOL
REMARK 924 INTRA-LIGAND FREE ENERGY PREDICTED BY IDOCK:   -1.34 KCAL/MOL
REMARK 927      BINDING AFFINITY PREDICTED BY RF-SCORE:    0.00 PKD
ROOT
HETATM    1  C   UNL     1     -11.118   6.213  69.112  1.00  0.00    -0.448 C  
HETATM    2  C   UNL     1     -11.005   7.161  70.296  1.00  0.00    -0.288 C  
ENDROOT
BRANCH   2   3
HETATM    3  C   UNL     1     -11.545   6.518  71.573  1.00  0.00    -0.315 C  
BRANCH   3   4
HETATM    4  N   UNL     1     -12.067   7.554  72.462  1.00  0.00    -0.535 NA 
HETATM    5  H   UNL     1     -11.592   7.556  73.365  1.00  0.00     0.000 HD 
BRANCH   4   6
HETATM    6  C   UNL     1     -12.004   8.867  71.805  1.00  0.00    -0.359 C  
BRANCH   6   7
HETATM    7  C   UNL     1     -13.357   9.595  71.895  1.00  0.00    -0.438 C  
HETATM    8  O   UNL     1     -14.062   9.204  73.083  1.00  0.00    -1.104 OA 
HETATM    9  H   UNL     1     -14.896   9.654  73.138  1.00  0.00     0.000 HD 
BRANCH   7  10
HETATM   10  C   UNL     1     -13.160  11.116  71.898  1.00  0.00    -0.408 C  
BRANCH  10  11
HETATM   11  O   UNL     1     -12.563  11.527  70.654  1.00  0.00    -0.304 OA 
BRANCH  11  12
HETATM   12  C   UNL     1     -12.354  12.876  70.525  1.00  0.00    -0.283 A  
HETATM   13  C   UNL     1     -11.848  13.387  69.312  1.00  0.00    -0.385 A  
HETATM   14  C   UNL     1     -12.568  13.755  71.598  1.00  0.00    -0.370 A  
HETATM   15  C   UNL     1     -11.633  14.770  69.185  1.00  0.00    -0.330 A  
HETATM   16  C   UNL     1     -12.332  15.123  71.462  1.00  0.00    -0.409 A  
HETATM   17  C   UNL     1     -11.870  15.631  70.256  1.00  0.00    -0.386 A  
BRANCH  13  18
HETATM   18  C   UNL     1     -11.557  12.500  68.138  1.00  0.00    -0.340 C  
HETATM   19  O   UNL     1     -12.158  12.656  67.077  1.00  0.00    -0.480 OA 
BRANCH  18  20
HETATM   20  C   UNL     1     -10.451  11.459  68.249  1.00  0.00    -0.221 C  
BRANCH  20  21
HETATM   21  C   UNL     1     -10.920  10.068  67.836  1.00  0.00    -0.311 C  
BRANCH  21  22
HETATM   22  C   UNL     1     -10.124   9.510  66.680  1.00  0.00    -0.321 A  
HETATM   23  C   UNL     1     -10.121  10.160  65.438  1.00  0.00    -0.342 A  
HETATM   24  C   UNL     1      -9.366   9.657  64.377  1.00  0.00    -0.212 A  
HETATM   25  C   UNL     1      -8.612   8.498  64.545  1.00  0.00    -0.055 A  
HETATM   26  C   UNL     1      -8.619   7.837  65.772  1.00  0.00    -0.162 A  
HETATM   27  C   UNL     1      -9.375   8.337  66.834  1.00  0.00    -0.222 A  
ENDBRANCH  21  22
ENDBRANCH  20  21
ENDBRANCH  18  20
ENDBRANCH  13  18
ENDBRANCH  11  12
ENDBRANCH  10  11
ENDBRANCH   7  10
ENDBRANCH   6   7
ENDBRANCH   4   6
ENDBRANCH   3   4
ENDBRANCH   2   3
TORSDOF 11
ENDMDL
MODEL       72
REMARK 921   NORMALIZED FREE ENERGY PREDICTED BY IDOCK:   -5.69 KCAL/MOL
REMARK 922        TOTAL FREE ENERGY PREDICTED BY IDOCK:  -10.36 KCAL/MOL
REMARK 923 INTER-LIGAND FREE ENERGY PREDICTED BY IDOCK:   -8.89 KCAL/MOL
REMARK 924 INTRA-LIGAND FREE ENERGY PREDICTED BY IDOCK:   -1.47 KCAL/MOL
REMARK 927      BINDING AFFINITY PREDICTED BY RF-SCORE:    0.00 PKD
ROOT
HETATM    1  C   UNL     1     -10.960  11.974  63.462  1.00  0.00    -0.514 C  
HETATM    2  C   UNL     1     -10.830  11.012  64.634  1.00  0.00    -0.248 C  
ENDROOT
BRANCH   2   3
HETATM    3  C   UNL     1      -9.374  10.878  65.080  1.00  0.00    -0.226 C  
BRANCH   3   4
HETATM    4  N   UNL     1      -9.323  10.300  66.421  1.00  0.00    -0.161 NA 
HETATM    5  H   UNL     1     -10.078  10.645  67.014  1.00  0.00     0.000 HD 
BRANCH   4   6
HETATM    6  C   UNL     1      -9.314   8.833  66.342  1.00  0.00    -0.204 C  
BRANCH   6   7
HETATM    7  C   UNL     1     -10.425   8.225  67.218  1.00  0.00    -0.303 C  
HETATM    8  O   UNL     1     -10.794   6.925  66.733  1.00  0.00    -0.492 OA 
HETATM    9  H   UNL     1     -11.479   6.551  67.274  1.00  0.00     0.000 HD 
BRANCH   7  10
HETATM   10  C   UNL     1      -9.971   8.113  68.678  1.00  0.00    -0.190 C  
BRANCH  10  11
HETATM   11  O   UNL     1     -10.119   9.391  69.328  1.00  0.00    -0.182 OA 
BRANCH  11  12
HETATM   12  C   UNL     1     -11.154   9.472  70.224  1.00  0.00    -0.271 A  
HETATM   13  C   UNL     1     -12.050  10.558  70.150  1.00  0.00    -0.380 A  
HETATM   14  C   UNL     1     -11.303   8.533  71.256  1.00  0.00    -0.325 A  
HETATM   15  C   UNL     1     -13.108  10.639  71.071  1.00  0.00    -0.376 A  
HETATM   16  C   UNL     1     -12.348   8.638  72.174  1.00  0.00    -0.452 A  
HETATM   17  C   UNL     1     -13.253   9.687  72.080  1.00  0.00    -0.546 A  
BRANCH  13  18
HETATM   18  C   UNL     1     -11.926  11.620  69.098  1.00  0.00    -0.313 C  
HETATM   19  O   UNL     1     -12.077  11.340  67.911  1.00  0.00    -0.634 OA 
BRANCH  18  20
HETATM   20  C   UNL     1     -11.692  13.064  69.524  1.00  0.00    -0.381 C  
BRANCH  20  21
HETATM   21  C   UNL     1     -12.971  13.741  70.004  1.00  0.00     0.277 C  
BRANCH  21  22
HETATM   22  C   UNL     1     -12.754  14.571  71.247  1.00  0.00    -0.413 A  
HETATM   23  C   UNL     1     -13.243  14.138  72.488  1.00  0.00    -0.596 A  
HETATM   24  C   UNL     1     -13.020  14.894  73.640  1.00  0.00    -0.391 A  
HETATM   25  C   UNL     1     -12.313  16.091  73.563  1.00  0.00    -0.671 A  
HETATM   26  C   UNL     1     -11.834  16.537  72.333  1.00  0.00    -0.425 A  
HETATM   27  C   UNL     1     -12.057  15.784  71.178  1.00  0.00    -0.475 A  
ENDBRANCH  21  22
ENDBRANCH  20  21
ENDBRANCH  18  20
ENDBRANCH  13  18
ENDBRANCH  11  12
ENDBRANCH  10  11
ENDBRANCH   7  10
ENDBRANCH   6   7
ENDBRANCH   4   6
ENDBRANCH   3   4
ENDBRANCH   2   3
TORSDOF 11
ENDMDL
MODEL       73
REMARK 921   NORMALIZED FREE ENERGY PREDICTED BY IDOCK:   -5.67 KCAL/MOL
REMARK 922        TOTAL FREE ENERGY PREDICTED BY IDOCK:  -10.33 KCAL/MOL
REMARK 923 INTER-LIGAND FREE ENERGY PREDICTED BY IDOCK:   -8.86 KCAL/MOL
REMARK 924 INTRA-LIGAND FREE ENERGY PREDICTED BY IDOCK:   -1.46 KCAL/MOL
REMARK 927      BINDING AFFINITY PREDICTED BY RF-SCORE:    0.00 PKD
ROOT
HETATM    1  C   UNL     1     -10.427  15.196  65.297  1.00  0.00    -0.434 C  
HETATM    2  C   UNL     1     -11.838  14.673  65.082  1.00  0.00    -0.351 C  
ENDROOT
BRANCH   2   3
HETATM    3  C   UNL     1     -12.320  13.868  66.288  1.00  0.00    -0.449 C  
BRANCH   3   4
HETATM    4  N   UNL     1     -12.157  14.662  67.505  1.00  0.00    -0.567 NA 
HETATM    5  H   UNL     1     -13.048  15.027  67.844  1.00  0.00     0.000 HD 
BRANCH   4   6
HETATM    6  C   UNL     1     -11.458  13.880  68.533  1.00  0.00    -0.311 C  
BRANCH   6   7
HETATM    7  C   UNL     1     -11.921  14.284  69.945  1.00  0.00    -0.339 C  
HETATM    8  O   UNL     1     -12.936  15.296  69.871  1.00  0.00    -0.625 OA 
HETATM    9  H   UNL     1     -13.221  15.546  70.742  1.00  0.00     0.000 HD 
BRANCH   7  10
HETATM   10  C   UNL     1     -12.465  13.073  70.711  1.00  0.00    -0.302 C  
BRANCH  10  11
HETATM   11  O   UNL     1     -12.414  11.906  69.866  1.00  0.00    -0.119 OA 
BRANCH  11  12
HETATM   12  C   UNL     1     -12.182  10.723  70.520  1.00  0.00    -0.366 A  
HETATM   13  C   UNL     1     -11.157   9.869  70.063  1.00  0.00    -0.335 A  
HETATM   14  C   UNL     1     -12.987  10.311  71.593  1.00  0.00    -0.570 A  
HETATM   15  C   UNL     1     -10.924   8.657  70.734  1.00  0.00    -0.286 A  
HETATM   16  C   UNL     1     -12.755   9.096  72.236  1.00  0.00    -0.447 A  
HETATM   17  C   UNL     1     -11.722   8.271  71.812  1.00  0.00    -0.357 A  
BRANCH  13  18
HETATM   18  C   UNL     1     -10.286  10.228  68.897  1.00  0.00    -0.205 C  
HETATM   19  O   UNL     1      -9.132  10.611  69.077  1.00  0.00    -0.174 OA 
BRANCH  18  20
HETATM   20  C   UNL     1     -10.819  10.034  67.483  1.00  0.00    -0.326 C  
BRANCH  20  21
HETATM   21  C   UNL     1      -9.858   9.239  66.605  1.00  0.00    -0.311 C  
BRANCH  21  22
HETATM   22  C   UNL     1      -9.708   9.837  65.226  1.00  0.00    -0.371 A  
HETATM   23  C   UNL     1     -10.532  10.894  64.814  1.00  0.00    -0.373 A  
HETATM   24  C   UNL     1     -10.376  11.462  63.548  1.00  0.00    -0.476 A  
HETATM   25  C   UNL     1      -9.400  10.977  62.681  1.00  0.00    -0.348 A  
HETATM   26  C   UNL     1      -8.585   9.918  63.076  1.00  0.00    -0.197 A  
HETATM   27  C   UNL     1      -8.740   9.347  64.341  1.00  0.00    -0.227 A  
ENDBRANCH  21  22
ENDBRANCH  20  21
ENDBRANCH  18  20
ENDBRANCH  13  18
ENDBRANCH  11  12
ENDBRANCH  10  11
ENDBRANCH   7  10
ENDBRANCH   6   7
ENDBRANCH   4   6
ENDBRANCH   3   4
ENDBRANCH   2   3
TORSDOF 11
ENDMDL
MODEL       74
REMARK 921   NORMALIZED FREE ENERGY PREDICTED BY IDOCK:   -5.66 KCAL/MOL
REMARK 922        TOTAL FREE ENERGY PREDICTED BY IDOCK:  -10.31 KCAL/MOL
REMARK 923 INTER-LIGAND FREE ENERGY PREDICTED BY IDOCK:   -8.60 KCAL/MOL
REMARK 924 INTRA-LIGAND FREE ENERGY PREDICTED BY IDOCK:   -1.71 KCAL/MOL
REMARK 927      BINDING AFFINITY PREDICTED BY RF-SCORE:    0.00 PKD
ROOT
HETATM    1  C   UNL     1      -9.130   8.306  72.114  1.00  0.00    -0.279 C  
HETATM    2  C   UNL     1      -9.396   6.895  72.614  1.00  0.00    -0.155 C  
ENDROOT
BRANCH   2   3
HETATM    3  C   UNL     1     -10.893   6.647  72.800  1.00  0.00    -0.251 C  
BRANCH   3   4
HETATM    4  N   UNL     1     -11.610   7.920  72.759  1.00  0.00    -0.549 NA 
HETATM    5  H   UNL     1     -10.988   8.702  72.551  1.00  0.00     0.000 HD 
BRANCH   4   6
HETATM    6  C   UNL     1     -12.729   7.843  71.810  1.00  0.00    -0.329 C  
BRANCH   6   7
HETATM    7  C   UNL     1     -13.746   8.970  72.062  1.00  0.00    -0.461 C  
HETATM    8  O   UNL     1     -14.345   8.827  73.359  1.00  0.00    -1.155 OA 
HETATM    9  H   UNL     1     -14.973   9.523  73.514  1.00  0.00     0.000 HD 
BRANCH   7  10
HETATM   10  C   UNL     1     -13.076  10.346  71.961  1.00  0.00    -0.416 C  
BRANCH  10  11
HETATM   11  O   UNL     1     -12.826  10.659  70.577  1.00  0.00    -0.349 OA 
BRANCH  11  12
HETATM   12  C   UNL     1     -12.464  11.958  70.330  1.00  0.00    -0.170 A  
HETATM   13  C   UNL     1     -11.724  12.263  69.169  1.00  0.00    -0.377 A  
HETATM   14  C   UNL     1     -12.754  12.984  71.242  1.00  0.00    -0.385 A  
HETATM   15  C   UNL     1     -11.353  13.595  68.921  1.00  0.00    -0.332 A  
HETATM   16  C   UNL     1     -12.362  14.299  70.991  1.00  0.00    -0.431 A  
HETATM   17  C   UNL     1     -11.667  14.606  69.829  1.00  0.00    -0.361 A  
BRANCH  13  18
HETATM   18  C   UNL     1     -11.344  11.209  68.171  1.00  0.00    -0.309 C  
HETATM   19  O   UNL     1     -11.672  11.322  66.993  1.00  0.00    -0.503 OA 
BRANCH  18  20
HETATM   20  C   UNL     1     -10.475  10.041  68.620  1.00  0.00    -0.228 C  
BRANCH  20  21
HETATM   21  C   UNL     1     -10.578   8.847  67.676  1.00  0.00    -0.292 C  
BRANCH  21  22
HETATM   22  C   UNL     1     -10.054   7.574  68.298  1.00  0.00    -0.209 A  
HETATM   23  C   UNL     1     -10.939   6.574  68.728  1.00  0.00    -0.371 A  
HETATM   24  C   UNL     1     -10.453   5.387  69.280  1.00  0.00    -0.309 A  
HETATM   25  C   UNL     1      -9.080   5.190  69.412  1.00  0.00    -0.144 A  
HETATM   26  C   UNL     1      -8.193   6.183  69.000  1.00  0.00    -0.112 A  
HETATM   27  C   UNL     1      -8.677   7.371  68.449  1.00  0.00    -0.123 A  
ENDBRANCH  21  22
ENDBRANCH  20  21
ENDBRANCH  18  20
ENDBRANCH  13  18
ENDBRANCH  11  12
ENDBRANCH  10  11
ENDBRANCH   7  10
ENDBRANCH   6   7
ENDBRANCH   4   6
ENDBRANCH   3   4
ENDBRANCH   2   3
TORSDOF 11
ENDMDL
MODEL       75
REMARK 921   NORMALIZED FREE ENERGY PREDICTED BY IDOCK:   -5.65 KCAL/MOL
REMARK 922        TOTAL FREE ENERGY PREDICTED BY IDOCK:  -10.30 KCAL/MOL
REMARK 923 INTER-LIGAND FREE ENERGY PREDICTED BY IDOCK:   -9.14 KCAL/MOL
REMARK 924 INTRA-LIGAND FREE ENERGY PREDICTED BY IDOCK:   -1.17 KCAL/MOL
REMARK 927      BINDING AFFINITY PREDICTED BY RF-SCORE:    0.00 PKD
ROOT
HETATM    1  C   UNL     1      -8.243  17.412  66.346  1.00  0.00    -0.306 C  
HETATM    2  C   UNL     1      -9.040  16.172  65.969  1.00  0.00    -0.354 C  
ENDROOT
BRANCH   2   3
HETATM    3  C   UNL     1      -8.673  14.987  66.861  1.00  0.00    -0.256 C  
BRANCH   3   4
HETATM    4  N   UNL     1      -9.227  13.758  66.296  1.00  0.00    -0.484 NA 
HETATM    5  H   UNL     1      -9.290  13.014  66.992  1.00  0.00     0.000 HD 
BRANCH   4   6
HETATM    6  C   UNL     1     -10.525  14.028  65.664  1.00  0.00    -0.318 C  
BRANCH   6   7
HETATM    7  C   UNL     1     -11.678  13.431  66.492  1.00  0.00    -0.373 C  
HETATM    8  O   UNL     1     -11.340  12.111  66.946  1.00  0.00    -0.302 OA 
HETATM    9  H   UNL     1     -12.051  11.743  67.456  1.00  0.00     0.000 HD 
BRANCH   7  10
HETATM   10  C   UNL     1     -12.001  14.317  67.700  1.00  0.00    -0.365 C  
BRANCH  10  11
HETATM   11  O   UNL     1     -11.410  13.749  68.885  1.00  0.00    -0.254 OA 
BRANCH  11  12
HETATM   12  C   UNL     1     -12.120  13.946  70.042  1.00  0.00    -0.345 A  
HETATM   13  C   UNL     1     -12.638  12.833  70.735  1.00  0.00    -0.308 A  
HETATM   14  C   UNL     1     -12.402  15.236  70.516  1.00  0.00    -0.434 A  
HETATM   15  C   UNL     1     -13.367  13.039  71.919  1.00  0.00    -0.539 A  
HETATM   16  C   UNL     1     -13.144  15.425  71.682  1.00  0.00    -0.540 A  
HETATM   17  C   UNL     1     -13.622  14.328  72.386  1.00  0.00    -0.599 A  
BRANCH  13  18
HETATM   18  C   UNL     1     -12.410  11.427  70.263  1.00  0.00    -0.297 C  
HETATM   19  O   UNL     1     -12.659  11.114  69.101  1.00  0.00    -0.358 OA 
BRANCH  18  20
HETATM   20  C   UNL     1     -11.788  10.415  71.216  1.00  0.00    -0.381 C  
BRANCH  20  21
HETATM   21  C   UNL     1     -12.621   9.142  71.333  1.00  0.00    -0.390 C  
BRANCH  21  22
HETATM   22  C   UNL     1     -11.854   8.008  71.973  1.00  0.00    -0.376 A  
HETATM   23  C   UNL     1     -12.298   6.684  71.841  1.00  0.00    -0.364 A  
HETATM   24  C   UNL     1     -11.575   5.635  72.412  1.00  0.00    -0.281 A  
HETATM   25  C   UNL     1     -10.408   5.898  73.124  1.00  0.00    -0.230 A  
HETATM   26  C   UNL     1      -9.966   7.211  73.273  1.00  0.00    -0.296 A  
HETATM   27  C   UNL     1     -10.687   8.263  72.704  1.00  0.00    -0.384 A  
ENDBRANCH  21  22
ENDBRANCH  20  21
ENDBRANCH  18  20
ENDBRANCH  13  18
ENDBRANCH  11  12
ENDBRANCH  10  11
ENDBRANCH   7  10
ENDBRANCH   6   7
ENDBRANCH   4   6
ENDBRANCH   3   4
ENDBRANCH   2   3
TORSDOF 11
ENDMDL
MODEL       76
REMARK 921   NORMALIZED FREE ENERGY PREDICTED BY IDOCK:   -5.65 KCAL/MOL
REMARK 922        TOTAL FREE ENERGY PREDICTED BY IDOCK:  -10.29 KCAL/MOL
REMARK 923 INTER-LIGAND FREE ENERGY PREDICTED BY IDOCK:   -9.38 KCAL/MOL
REMARK 924 INTRA-LIGAND FREE ENERGY PREDICTED BY IDOCK:   -0.91 KCAL/MOL
REMARK 927      BINDING AFFINITY PREDICTED BY RF-SCORE:    0.00 PKD
ROOT
HETATM    1  C   UNL     1      -7.000  20.637  66.994  1.00  0.00    -0.365 C  
HETATM    2  C   UNL     1      -8.260  19.947  66.494  1.00  0.00    -0.364 C  
ENDROOT
BRANCH   2   3
HETATM    3  C   UNL     1      -8.108  18.427  66.525  1.00  0.00    -0.269 C  
BRANCH   3   4
HETATM    4  N   UNL     1      -9.405  17.798  66.286  1.00  0.00    -0.442 NA 
HETATM    5  H   UNL     1      -9.311  16.813  66.037  1.00  0.00     0.000 HD 
BRANCH   4   6
HETATM    6  C   UNL     1     -10.285  17.989  67.447  1.00  0.00    -0.363 C  
BRANCH   6   7
HETATM    7  C   UNL     1     -10.910  16.655  67.893  1.00  0.00    -0.321 C  
HETATM    8  O   UNL     1     -10.390  15.569  67.110  1.00  0.00    -0.261 OA 
HETATM    9  H   UNL     1     -10.775  14.746  67.385  1.00  0.00     0.000 HD 
BRANCH   7  10
HETATM   10  C   UNL     1     -10.632  16.389  69.377  1.00  0.00    -0.317 C  
BRANCH  10  11
HETATM   11  O   UNL     1     -10.837  14.992  69.663  1.00  0.00    -0.255 OA 
BRANCH  11  12
HETATM   12  C   UNL     1     -11.742  14.727  70.658  1.00  0.00    -0.297 A  
HETATM   13  C   UNL     1     -12.262  13.423  70.793  1.00  0.00    -0.409 A  
HETATM   14  C   UNL     1     -12.216  15.741  71.504  1.00  0.00    -0.513 A  
HETATM   15  C   UNL     1     -13.191  13.157  71.813  1.00  0.00    -0.494 A  
HETATM   16  C   UNL     1     -13.153  15.465  72.499  1.00  0.00    -0.518 A  
HETATM   17  C   UNL     1     -13.637  14.173  72.658  1.00  0.00    -0.618 A  
BRANCH  13  18
HETATM   18  C   UNL     1     -11.831  12.300  69.897  1.00  0.00    -0.311 C  
HETATM   19  O   UNL     1     -11.406  11.251  70.376  1.00  0.00    -0.219 OA 
BRANCH  18  20
HETATM   20  C   UNL     1     -12.002  12.445  68.390  1.00  0.00    -0.269 C  
BRANCH  20  21
HETATM   21  C   UNL     1     -10.723  12.116  67.627  1.00  0.00    -0.252 C  
BRANCH  21  22
HETATM   22  C   UNL     1     -10.910  12.187  66.130  1.00  0.00    -0.317 A  
HETATM   23  C   UNL     1      -9.937  11.666  65.265  1.00  0.00    -0.292 A  
HETATM   24  C   UNL     1     -10.123  11.711  63.882  1.00  0.00    -0.395 A  
HETATM   25  C   UNL     1     -11.277  12.280  63.350  1.00  0.00    -0.497 A  
HETATM   26  C   UNL     1     -12.243  12.813  64.201  1.00  0.00    -0.506 A  
HETATM   27  C   UNL     1     -12.060  12.771  65.585  1.00  0.00    -0.514 A  
ENDBRANCH  21  22
ENDBRANCH  20  21
ENDBRANCH  18  20
ENDBRANCH  13  18
ENDBRANCH  11  12
ENDBRANCH  10  11
ENDBRANCH   7  10
ENDBRANCH   6   7
ENDBRANCH   4   6
ENDBRANCH   3   4
ENDBRANCH   2   3
TORSDOF 11
ENDMDL
MODEL       77
REMARK 921   NORMALIZED FREE ENERGY PREDICTED BY IDOCK:   -5.63 KCAL/MOL
REMARK 922        TOTAL FREE ENERGY PREDICTED BY IDOCK:  -10.27 KCAL/MOL
REMARK 923 INTER-LIGAND FREE ENERGY PREDICTED BY IDOCK:   -7.95 KCAL/MOL
REMARK 924 INTRA-LIGAND FREE ENERGY PREDICTED BY IDOCK:   -2.32 KCAL/MOL
REMARK 927      BINDING AFFINITY PREDICTED BY RF-SCORE:    0.00 PKD
ROOT
HETATM    1  C   UNL     1     -10.510  11.773  63.394  1.00  0.00    -0.485 C  
HETATM    2  C   UNL     1     -12.002  11.904  63.661  1.00  0.00    -0.578 C  
ENDROOT
BRANCH   2   3
HETATM    3  C   UNL     1     -12.317  13.198  64.410  1.00  0.00    -0.360 C  
BRANCH   3   4
HETATM    4  N   UNL     1     -11.884  13.079  65.801  1.00  0.00    -0.382 NA 
HETATM    5  H   UNL     1     -11.011  12.557  65.885  1.00  0.00     0.000 HD 
BRANCH   4   6
HETATM    6  C   UNL     1     -11.789  14.409  66.419  1.00  0.00    -0.388 C  
BRANCH   6   7
HETATM    7  C   UNL     1     -10.547  14.511  67.323  1.00  0.00    -0.280 C  
HETATM    8  O   UNL     1     -10.872  14.130  68.669  1.00  0.00    -0.240 OA 
HETATM    9  H   UNL     1     -10.105  14.193  69.226  1.00  0.00     0.000 HD 
BRANCH   7  10
HETATM   10  C   UNL     1      -9.416  13.617  66.801  1.00  0.00    -0.270 C  
BRANCH  10  11
HETATM   11  O   UNL     1      -9.196  12.531  67.722  1.00  0.00    -0.183 OA 
BRANCH  11  12
HETATM   12  C   UNL     1      -9.306  11.277  67.180  1.00  0.00    -0.163 A  
HETATM   13  C   UNL     1     -10.357  10.433  67.595  1.00  0.00    -0.260 A  
HETATM   14  C   UNL     1      -8.357  10.787  66.270  1.00  0.00    -0.160 A  
HETATM   15  C   UNL     1     -10.465   9.146  67.039  1.00  0.00    -0.311 A  
HETATM   16  C   UNL     1      -8.468   9.501  65.741  1.00  0.00    -0.143 A  
HETATM   17  C   UNL     1      -9.523   8.683  66.121  1.00  0.00    -0.308 A  
BRANCH  13  18
HETATM   18  C   UNL     1     -11.383  10.876  68.595  1.00  0.00    -0.295 C  
HETATM   19  O   UNL     1     -12.397  11.464  68.226  1.00  0.00    -0.506 OA 
BRANCH  18  20
HETATM   20  C   UNL     1     -11.193  10.516  70.063  1.00  0.00    -0.386 C  
BRANCH  20  21
HETATM   21  C   UNL     1      -9.998   9.595  70.285  1.00  0.00    -0.326 C  
BRANCH  21  22
HETATM   22  C   UNL     1     -10.375   8.323  71.008  1.00  0.00    -0.230 A  
HETATM   23  C   UNL     1     -10.422   8.287  72.409  1.00  0.00    -0.404 A  
HETATM   24  C   UNL     1     -10.794   7.118  73.075  1.00  0.00    -0.367 A  
HETATM   25  C   UNL     1     -11.118   5.974  72.350  1.00  0.00    -0.321 A  
HETATM   26  C   UNL     1     -11.062   5.996  70.957  1.00  0.00    -0.348 A  
HETATM   27  C   UNL     1     -10.689   7.163  70.288  1.00  0.00    -0.258 A  
ENDBRANCH  21  22
ENDBRANCH  20  21
ENDBRANCH  18  20
ENDBRANCH  13  18
ENDBRANCH  11  12
ENDBRANCH  10  11
ENDBRANCH   7  10
ENDBRANCH   6   7
ENDBRANCH   4   6
ENDBRANCH   3   4
ENDBRANCH   2   3
TORSDOF 11
ENDMDL
MODEL       78
REMARK 921   NORMALIZED FREE ENERGY PREDICTED BY IDOCK:   -5.63 KCAL/MOL
REMARK 922        TOTAL FREE ENERGY PREDICTED BY IDOCK:  -10.26 KCAL/MOL
REMARK 923 INTER-LIGAND FREE ENERGY PREDICTED BY IDOCK:   -8.24 KCAL/MOL
REMARK 924 INTRA-LIGAND FREE ENERGY PREDICTED BY IDOCK:   -2.02 KCAL/MOL
REMARK 927      BINDING AFFINITY PREDICTED BY RF-SCORE:    0.00 PKD
ROOT
HETATM    1  C   UNL     1     -12.999  13.806  65.369  1.00  0.00    -0.361 C  
HETATM    2  C   UNL     1     -11.590  13.735  65.937  1.00  0.00    -0.346 C  
ENDROOT
BRANCH   2   3
HETATM    3  C   UNL     1     -10.541  13.910  64.840  1.00  0.00    -0.419 C  
BRANCH   3   4
HETATM    4  N   UNL     1      -9.837  12.647  64.627  1.00  0.00    -0.525 NA 
HETATM    5  H   UNL     1      -9.698  12.136  65.499  1.00  0.00     0.000 HD 
BRANCH   4   6
HETATM    6  C   UNL     1     -10.540  11.835  63.624  1.00  0.00    -0.439 C  
BRANCH   6   7
HETATM    7  C   UNL     1      -9.554  10.957  62.833  1.00  0.00    -0.344 C  
HETATM    8  O   UNL     1      -8.382  11.709  62.479  1.00  0.00    -0.644 OA 
HETATM    9  H   UNL     1      -7.774  11.167  61.991  1.00  0.00     0.000 HD 
BRANCH   7  10
HETATM   10  C   UNL     1      -9.140   9.727  63.649  1.00  0.00    -0.232 C  
BRANCH  10  11
HETATM   11  O   UNL     1      -9.776   9.771  64.941  1.00  0.00    -0.296 OA 
BRANCH  11  12
HETATM   12  C   UNL     1      -9.184   8.997  65.907  1.00  0.00    -0.230 A  
HETATM   13  C   UNL     1      -9.179   9.445  67.245  1.00  0.00    -0.151 A  
HETATM   14  C   UNL     1      -8.525   7.802  65.585  1.00  0.00    -0.153 A  
HETATM   15  C   UNL     1      -8.570   8.651  68.232  1.00  0.00    -0.138 A  
HETATM   16  C   UNL     1      -7.909   7.034  66.573  1.00  0.00    -0.106 A  
HETATM   17  C   UNL     1      -7.935   7.455  67.896  1.00  0.00    -0.119 A  
BRANCH  13  18
HETATM   18  C   UNL     1      -9.829  10.733  67.654  1.00  0.00    -0.171 C  
HETATM   19  O   UNL     1      -9.200  11.788  67.609  1.00  0.00    -0.172 OA 
BRANCH  18  20
HETATM   20  C   UNL     1     -11.301  10.730  68.046  1.00  0.00    -0.378 C  
BRANCH  20  21
HETATM   21  C   UNL     1     -11.545  11.417  69.386  1.00  0.00    -0.391 C  
BRANCH  21  22
HETATM   22  C   UNL     1     -11.867  10.436  70.487  1.00  0.00    -0.430 A  
HETATM   23  C   UNL     1     -10.892   9.541  70.952  1.00  0.00    -0.407 A  
HETATM   24  C   UNL     1     -11.184   8.650  71.987  1.00  0.00    -0.434 A  
HETATM   25  C   UNL     1     -12.452   8.641  72.564  1.00  0.00    -0.372 A  
HETATM   26  C   UNL     1     -13.432   9.518  72.100  1.00  0.00    -0.535 A  
HETATM   27  C   UNL     1     -13.143  10.408  71.064  1.00  0.00    -0.450 A  
ENDBRANCH  21  22
ENDBRANCH  20  21
ENDBRANCH  18  20
ENDBRANCH  13  18
ENDBRANCH  11  12
ENDBRANCH  10  11
ENDBRANCH   7  10
ENDBRANCH   6   7
ENDBRANCH   4   6
ENDBRANCH   3   4
ENDBRANCH   2   3
TORSDOF 11
ENDMDL
MODEL       79
REMARK 921   NORMALIZED FREE ENERGY PREDICTED BY IDOCK:   -5.62 KCAL/MOL
REMARK 922        TOTAL FREE ENERGY PREDICTED BY IDOCK:  -10.25 KCAL/MOL
REMARK 923 INTER-LIGAND FREE ENERGY PREDICTED BY IDOCK:   -8.62 KCAL/MOL
REMARK 924 INTRA-LIGAND FREE ENERGY PREDICTED BY IDOCK:   -1.63 KCAL/MOL
REMARK 927      BINDING AFFINITY PREDICTED BY RF-SCORE:    0.00 PKD
ROOT
HETATM    1  C   UNL     1     -12.713  13.793  65.308  1.00  0.00    -0.481 C  
HETATM    2  C   UNL     1     -12.017  13.438  64.002  1.00  0.00    -0.520 C  
ENDROOT
BRANCH   2   3
HETATM    3  C   UNL     1     -12.502  12.092  63.465  1.00  0.00    -0.555 C  
BRANCH   3   4
HETATM    4  N   UNL     1     -11.355  11.292  63.040  1.00  0.00    -0.827 NA 
HETATM    5  H   UNL     1     -11.294  11.223  62.024  1.00  0.00     0.000 HD 
BRANCH   4   6
HETATM    6  C   UNL     1     -10.118  11.823  63.629  1.00  0.00    -0.418 C  
BRANCH   6   7
HETATM    7  C   UNL     1      -9.469  10.794  64.573  1.00  0.00    -0.252 C  
HETATM    8  O   UNL     1      -8.051  10.739  64.360  1.00  0.00    -0.357 OA 
HETATM    9  H   UNL     1      -7.651  10.104  64.942  1.00  0.00     0.000 HD 
BRANCH   7  10
HETATM   10  C   UNL     1      -9.750  11.143  66.039  1.00  0.00    -0.226 C  
BRANCH  10  11
HETATM   11  O   UNL     1      -9.677  12.571  66.216  1.00  0.00    -0.247 OA 
BRANCH  11  12
HETATM   12  C   UNL     1      -8.765  12.998  67.147  1.00  0.00    -0.204 A  
HETATM   13  C   UNL     1      -8.703  14.367  67.480  1.00  0.00    -0.203 A  
HETATM   14  C   UNL     1      -7.843  12.112  67.726  1.00  0.00    -0.148 A  
HETATM   15  C   UNL     1      -7.765  14.800  68.433  1.00  0.00    -0.122 A  
HETATM   16  C   UNL     1      -6.906  12.561  68.656  1.00  0.00    -0.088 A  
HETATM   17  C   UNL     1      -6.869  13.902  69.013  1.00  0.00    -0.111 A  
BRANCH  13  18
HETATM   18  C   UNL     1      -9.630  15.375  66.869  1.00  0.00    -0.226 C  
HETATM   19  O   UNL     1      -9.402  15.831  65.751  1.00  0.00    -0.329 OA 
BRANCH  18  20
HETATM   20  C   UNL     1     -10.900  15.764  67.615  1.00  0.00    -0.310 C  
BRANCH  20  21
HETATM   21  C   UNL     1     -10.635  16.784  68.718  1.00  0.00    -0.348 C  
BRANCH  21  22
HETATM   22  C   UNL     1     -10.055  18.072  68.186  1.00  0.00    -0.378 A  
HETATM   23  C   UNL     1      -8.775  18.493  68.577  1.00  0.00    -0.352 A  
HETATM   24  C   UNL     1      -8.230  19.672  68.066  1.00  0.00    -0.347 A  
HETATM   25  C   UNL     1      -8.959  20.444  67.164  1.00  0.00    -0.453 A  
HETATM   26  C   UNL     1     -10.236  20.042  66.779  1.00  0.00    -0.592 A  
HETATM   27  C   UNL     1     -10.784  18.864  67.290  1.00  0.00    -0.523 A  
ENDBRANCH  21  22
ENDBRANCH  20  21
ENDBRANCH  18  20
ENDBRANCH  13  18
ENDBRANCH  11  12
ENDBRANCH  10  11
ENDBRANCH   7  10
ENDBRANCH   6   7
ENDBRANCH   4   6
ENDBRANCH   3   4
ENDBRANCH   2   3
TORSDOF 11
ENDMDL
MODEL       80
REMARK 921   NORMALIZED FREE ENERGY PREDICTED BY IDOCK:   -5.62 KCAL/MOL
REMARK 922        TOTAL FREE ENERGY PREDICTED BY IDOCK:  -10.25 KCAL/MOL
REMARK 923 INTER-LIGAND FREE ENERGY PREDICTED BY IDOCK:   -8.98 KCAL/MOL
REMARK 924 INTRA-LIGAND FREE ENERGY PREDICTED BY IDOCK:   -1.27 KCAL/MOL
REMARK 927      BINDING AFFINITY PREDICTED BY RF-SCORE:    0.00 PKD
ROOT
HETATM    1  C   UNL     1      -8.798   4.117  63.927  1.00  0.00    -0.127 C  
HETATM    2  C   UNL     1     -10.027   3.895  64.796  1.00  0.00    -0.203 C  
ENDROOT
BRANCH   2   3
HETATM    3  C   UNL     1      -9.943   4.705  66.089  1.00  0.00    -0.247 C  
BRANCH   3   4
HETATM    4  N   UNL     1     -11.160   5.498  66.252  1.00  0.00    -0.770 NA 
HETATM    5  H   UNL     1     -11.936   4.937  66.606  1.00  0.00     0.000 HD 
BRANCH   4   6
HETATM    6  C   UNL     1     -10.896   6.666  67.102  1.00  0.00    -0.401 C  
BRANCH   6   7
HETATM    7  C   UNL     1     -10.268   6.244  68.443  1.00  0.00    -0.172 C  
HETATM    8  O   UNL     1      -9.043   6.956  68.671  1.00  0.00    -0.133 OA 
HETATM    9  H   UNL     1      -8.656   6.695  69.499  1.00  0.00     0.000 HD 
BRANCH   7  10
HETATM   10  C   UNL     1     -11.233   6.505  69.606  1.00  0.00    -0.384 C  
BRANCH  10  11
HETATM   11  O   UNL     1     -10.643   7.453  70.516  1.00  0.00    -0.216 OA 
BRANCH  11  12
HETATM   12  C   UNL     1     -11.481   8.452  70.940  1.00  0.00    -0.267 A  
HETATM   13  C   UNL     1     -11.399   9.727  70.342  1.00  0.00    -0.362 A  
HETATM   14  C   UNL     1     -12.374   8.255  72.005  1.00  0.00    -0.395 A  
HETATM   15  C   UNL     1     -12.258  10.748  70.781  1.00  0.00    -0.480 A  
HETATM   16  C   UNL     1     -13.207   9.285  72.441  1.00  0.00    -0.501 A  
HETATM   17  C   UNL     1     -13.154  10.529  71.828  1.00  0.00    -0.570 A  
BRANCH  13  18
HETATM   18  C   UNL     1     -10.439  10.020  69.228  1.00  0.00    -0.225 C  
HETATM   19  O   UNL     1      -9.227   9.960  69.420  1.00  0.00    -0.186 OA 
BRANCH  18  20
HETATM   20  C   UNL     1     -10.984  10.311  67.835  1.00  0.00    -0.350 C  
BRANCH  20  21
HETATM   21  C   UNL     1     -10.159  11.361  67.098  1.00  0.00    -0.226 C  
BRANCH  21  22
HETATM   22  C   UNL     1     -10.850  11.869  65.855  1.00  0.00    -0.342 A  
HETATM   23  C   UNL     1     -11.742  12.949  65.927  1.00  0.00    -0.449 A  
HETATM   24  C   UNL     1     -12.361  13.434  64.773  1.00  0.00    -0.444 A  
HETATM   25  C   UNL     1     -12.101  12.842  63.539  1.00  0.00    -0.642 A  
HETATM   26  C   UNL     1     -11.226  11.760  63.460  1.00  0.00    -0.494 A  
HETATM   27  C   UNL     1     -10.606  11.272  64.612  1.00  0.00    -0.392 A  
ENDBRANCH  21  22
ENDBRANCH  20  21
ENDBRANCH  18  20
ENDBRANCH  13  18
ENDBRANCH  11  12
ENDBRANCH  10  11
ENDBRANCH   7  10
ENDBRANCH   6   7
ENDBRANCH   4   6
ENDBRANCH   3   4
ENDBRANCH   2   3
TORSDOF 11
ENDMDL
MODEL       81
REMARK 921   NORMALIZED FREE ENERGY PREDICTED BY IDOCK:   -5.62 KCAL/MOL
REMARK 922        TOTAL FREE ENERGY PREDICTED BY IDOCK:  -10.24 KCAL/MOL
REMARK 923 INTER-LIGAND FREE ENERGY PREDICTED BY IDOCK:   -8.35 KCAL/MOL
REMARK 924 INTRA-LIGAND FREE ENERGY PREDICTED BY IDOCK:   -1.90 KCAL/MOL
REMARK 927      BINDING AFFINITY PREDICTED BY RF-SCORE:    0.00 PKD
ROOT
HETATM    1  C   UNL     1     -12.462  13.961  70.603  1.00  0.00    -0.436 C  
HETATM    2  C   UNL     1     -11.747  13.432  69.370  1.00  0.00    -0.382 C  
ENDROOT
BRANCH   2   3
HETATM    3  C   UNL     1     -12.010  14.321  68.155  1.00  0.00    -0.308 C  
BRANCH   3   4
HETATM    4  N   UNL     1     -11.675  13.593  66.932  1.00  0.00    -0.366 NA 
HETATM    5  H   UNL     1     -11.730  12.583  67.063  1.00  0.00     0.000 HD 
BRANCH   4   6
HETATM    6  C   UNL     1     -12.523  14.048  65.822  1.00  0.00    -0.494 C  
BRANCH   6   7
HETATM    7  C   UNL     1     -11.672  14.441  64.601  1.00  0.00    -0.430 C  
HETATM    8  O   UNL     1     -12.444  14.340  63.395  1.00  0.00    -1.125 OA 
HETATM    9  H   UNL     1     -11.918  14.582  62.642  1.00  0.00     0.000 HD 
BRANCH   7  10
HETATM   10  C   UNL     1     -11.137  15.871  64.744  1.00  0.00    -0.384 C  
BRANCH  10  11
HETATM   11  O   UNL     1      -9.883  15.847  65.453  1.00  0.00    -0.401 OA 
BRANCH  11  12
HETATM   12  C   UNL     1      -9.707  16.860  66.360  1.00  0.00    -0.284 A  
HETATM   13  C   UNL     1      -8.744  16.717  67.380  1.00  0.00    -0.202 A  
HETATM   14  C   UNL     1     -10.511  18.010  66.338  1.00  0.00    -0.345 A  
HETATM   15  C   UNL     1      -8.569  17.756  68.310  1.00  0.00    -0.277 A  
HETATM   16  C   UNL     1     -10.338  19.024  67.279  1.00  0.00    -0.505 A  
HETATM   17  C   UNL     1      -9.365  18.901  68.261  1.00  0.00    -0.384 A  
BRANCH  13  18
HETATM   18  C   UNL     1      -7.878  15.497  67.489  1.00  0.00    -0.168 C  
HETATM   19  O   UNL     1      -6.738  15.502  67.030  1.00  0.00    -0.266 OA 
BRANCH  18  20
HETATM   20  C   UNL     1      -8.398  14.282  68.247  1.00  0.00    -0.165 C  
BRANCH  20  21
HETATM   21  C   UNL     1      -7.665  13.002  67.862  1.00  0.00    -0.145 C  
BRANCH  21  22
HETATM   22  C   UNL     1      -8.611  11.864  67.558  1.00  0.00    -0.160 A  
HETATM   23  C   UNL     1      -9.030  11.619  66.242  1.00  0.00    -0.194 A  
HETATM   24  C   UNL     1      -9.886  10.552  65.959  1.00  0.00    -0.277 A  
HETATM   25  C   UNL     1     -10.335   9.726  66.986  1.00  0.00    -0.305 A  
HETATM   26  C   UNL     1      -9.935   9.970  68.298  1.00  0.00    -0.173 A  
HETATM   27  C   UNL     1      -9.081  11.036  68.585  1.00  0.00    -0.174 A  
ENDBRANCH  21  22
ENDBRANCH  20  21
ENDBRANCH  18  20
ENDBRANCH  13  18
ENDBRANCH  11  12
ENDBRANCH  10  11
ENDBRANCH   7  10
ENDBRANCH   6   7
ENDBRANCH   4   6
ENDBRANCH   3   4
ENDBRANCH   2   3
TORSDOF 11
ENDMDL
MODEL       82
REMARK 921   NORMALIZED FREE ENERGY PREDICTED BY IDOCK:   -5.56 KCAL/MOL
REMARK 922        TOTAL FREE ENERGY PREDICTED BY IDOCK:  -10.16 KCAL/MOL
REMARK 923 INTER-LIGAND FREE ENERGY PREDICTED BY IDOCK:   -8.69 KCAL/MOL
REMARK 924 INTRA-LIGAND FREE ENERGY PREDICTED BY IDOCK:   -1.47 KCAL/MOL
REMARK 927      BINDING AFFINITY PREDICTED BY RF-SCORE:    0.00 PKD
ROOT
HETATM    1  C   UNL     1      -6.694  10.131  63.958  1.00  0.00    -0.107 C  
HETATM    2  C   UNL     1      -8.198  10.160  64.182  1.00  0.00    -0.165 C  
ENDROOT
BRANCH   2   3
HETATM    3  C   UNL     1      -8.940  10.548  62.904  1.00  0.00    -0.260 C  
BRANCH   3   4
HETATM    4  N   UNL     1     -10.354  10.767  63.204  1.00  0.00    -0.683 NA 
HETATM    5  H   UNL     1     -10.637  10.300  64.066  1.00  0.00     0.000 HD 
BRANCH   4   6
HETATM    6  C   UNL     1     -10.650  12.206  63.237  1.00  0.00    -0.319 C  
BRANCH   6   7
HETATM    7  C   UNL     1     -12.158  12.456  63.418  1.00  0.00    -0.524 C  
HETATM    8  O   UNL     1     -12.921  11.499  62.666  1.00  0.00    -0.661 OA 
HETATM    9  H   UNL     1     -13.851  11.654  62.778  1.00  0.00     0.000 HD 
BRANCH   7  10
HETATM   10  C   UNL     1     -12.553  12.371  64.897  1.00  0.00    -0.289 C  
BRANCH  10  11
HETATM   11  O   UNL     1     -11.698  13.232  65.674  1.00  0.00    -0.329 OA 
BRANCH  11  12
HETATM   12  C   UNL     1     -10.963  12.600  66.645  1.00  0.00    -0.258 A  
HETATM   13  C   UNL     1     -10.189  13.370  67.537  1.00  0.00    -0.226 A  
HETATM   14  C   UNL     1     -10.909  11.201  66.727  1.00  0.00    -0.322 A  
HETATM   15  C   UNL     1      -9.435  12.719  68.529  1.00  0.00    -0.094 A  
HETATM   16  C   UNL     1     -10.141  10.570  67.705  1.00  0.00    -0.205 A  
HETATM   17  C   UNL     1      -9.408  11.327  68.609  1.00  0.00    -0.167 A  
BRANCH  13  18
HETATM   18  C   UNL     1     -10.166  14.868  67.480  1.00  0.00    -0.233 C  
HETATM   19  O   UNL     1      -9.303  15.453  66.830  1.00  0.00    -0.216 OA 
BRANCH  18  20
HETATM   20  C   UNL     1     -11.274  15.655  68.170  1.00  0.00    -0.345 C  
BRANCH  20  21
HETATM   21  C   UNL     1     -10.873  16.121  69.565  1.00  0.00    -0.329 C  
BRANCH  21  22
HETATM   22  C   UNL     1     -11.700  15.473  70.650  1.00  0.00    -0.389 A  
HETATM   23  C   UNL     1     -12.345  14.249  70.420  1.00  0.00    -0.419 A  
HETATM   24  C   UNL     1     -13.089  13.640  71.432  1.00  0.00    -0.396 A  
HETATM   25  C   UNL     1     -13.202  14.249  72.680  1.00  0.00    -0.601 A  
HETATM   26  C   UNL     1     -12.576  15.472  72.914  1.00  0.00    -0.533 A  
HETATM   27  C   UNL     1     -11.832  16.084  71.903  1.00  0.00    -0.619 A  
ENDBRANCH  21  22
ENDBRANCH  20  21
ENDBRANCH  18  20
ENDBRANCH  13  18
ENDBRANCH  11  12
ENDBRANCH  10  11
ENDBRANCH   7  10
ENDBRANCH   6   7
ENDBRANCH   4   6
ENDBRANCH   3   4
ENDBRANCH   2   3
TORSDOF 11
ENDMDL
MODEL       83
REMARK 921   NORMALIZED FREE ENERGY PREDICTED BY IDOCK:   -5.56 KCAL/MOL
REMARK 922        TOTAL FREE ENERGY PREDICTED BY IDOCK:  -10.15 KCAL/MOL
REMARK 923 INTER-LIGAND FREE ENERGY PREDICTED BY IDOCK:   -8.94 KCAL/MOL
REMARK 924 INTRA-LIGAND FREE ENERGY PREDICTED BY IDOCK:   -1.21 KCAL/MOL
REMARK 927      BINDING AFFINITY PREDICTED BY RF-SCORE:    0.00 PKD
ROOT
HETATM    1  C   UNL     1     -12.489  15.367  73.776  1.00  0.00    -0.751 C  
HETATM    2  C   UNL     1     -13.456  15.196  72.615  1.00  0.00    -0.578 C  
ENDROOT
BRANCH   2   3
HETATM    3  C   UNL     1     -13.494  13.745  72.136  1.00  0.00    -0.502 C  
BRANCH   3   4
HETATM    4  N   UNL     1     -12.528  13.559  71.055  1.00  0.00    -0.373 NA 
HETATM    5  H   UNL     1     -12.720  12.716  70.513  1.00  0.00     0.000 HD 
BRANCH   4   6
HETATM    6  C   UNL     1     -12.478  14.757  70.206  1.00  0.00    -0.340 C  
BRANCH   6   7
HETATM    7  C   UNL     1     -11.330  14.664  69.185  1.00  0.00    -0.281 C  
HETATM    8  O   UNL     1     -10.495  13.530  69.469  1.00  0.00    -0.418 OA 
HETATM    9  H   UNL     1      -9.787  13.473  68.839  1.00  0.00     0.000 HD 
BRANCH   7  10
HETATM   10  C   UNL     1     -11.876  14.547  67.757  1.00  0.00    -0.357 C  
BRANCH  10  11
HETATM   11  O   UNL     1     -12.104  13.161  67.440  1.00  0.00    -0.348 OA 
BRANCH  11  12
HETATM   12  C   UNL     1     -11.821  12.804  66.147  1.00  0.00    -0.425 A  
HETATM   13  C   UNL     1     -10.834  11.828  65.898  1.00  0.00    -0.339 A  
HETATM   14  C   UNL     1     -12.443  13.437  65.060  1.00  0.00    -0.479 A  
HETATM   15  C   UNL     1     -10.545  11.467  64.571  1.00  0.00    -0.390 A  
HETATM   16  C   UNL     1     -12.131  13.081  63.749  1.00  0.00    -0.574 A  
HETATM   17  C   UNL     1     -11.187  12.093  63.503  1.00  0.00    -0.536 A  
BRANCH  13  18
HETATM   18  C   UNL     1     -10.100  11.140  67.010  1.00  0.00    -0.200 C  
HETATM   19  O   UNL     1      -9.095  11.650  67.500  1.00  0.00    -0.165 OA 
BRANCH  18  20
HETATM   20  C   UNL     1     -10.661   9.843  67.579  1.00  0.00    -0.333 C  
BRANCH  20  21
HETATM   21  C   UNL     1     -10.434   8.655  66.650  1.00  0.00    -0.239 C  
BRANCH  21  22
HETATM   22  C   UNL     1     -10.189   7.370  67.404  1.00  0.00    -0.315 A  
HETATM   23  C   UNL     1     -10.773   6.169  66.976  1.00  0.00    -0.423 A  
HETATM   24  C   UNL     1     -10.526   4.978  67.660  1.00  0.00    -0.074 A  
HETATM   25  C   UNL     1      -9.698   4.975  68.781  1.00  0.00    -0.226 A  
HETATM   26  C   UNL     1      -9.124   6.165  69.222  1.00  0.00    -0.129 A  
HETATM   27  C   UNL     1      -9.370   7.359  68.541  1.00  0.00    -0.141 A  
ENDBRANCH  21  22
ENDBRANCH  20  21
ENDBRANCH  18  20
ENDBRANCH  13  18
ENDBRANCH  11  12
ENDBRANCH  10  11
ENDBRANCH   7  10
ENDBRANCH   6   7
ENDBRANCH   4   6
ENDBRANCH   3   4
ENDBRANCH   2   3
TORSDOF 11
ENDMDL
MODEL       84
REMARK 921   NORMALIZED FREE ENERGY PREDICTED BY IDOCK:   -5.55 KCAL/MOL
REMARK 922        TOTAL FREE ENERGY PREDICTED BY IDOCK:  -10.13 KCAL/MOL
REMARK 923 INTER-LIGAND FREE ENERGY PREDICTED BY IDOCK:   -9.57 KCAL/MOL
REMARK 924 INTRA-LIGAND FREE ENERGY PREDICTED BY IDOCK:   -0.56 KCAL/MOL
REMARK 927      BINDING AFFINITY PREDICTED BY RF-SCORE:    0.00 PKD
ROOT
HETATM    1  C   UNL     1     -13.236  10.316  72.039  1.00  0.00    -0.516 C  
HETATM    2  C   UNL     1     -13.339   8.822  71.768  1.00  0.00    -0.421 C  
ENDROOT
BRANCH   2   3
HETATM    3  C   UNL     1     -11.957   8.172  71.726  1.00  0.00    -0.305 C  
BRANCH   3   4
HETATM    4  N   UNL     1     -11.562   7.949  70.336  1.00  0.00    -0.458 NA 
HETATM    5  H   UNL     1     -12.299   8.216  69.683  1.00  0.00     0.000 HD 
BRANCH   4   6
HETATM    6  C   UNL     1     -10.298   8.642  70.050  1.00  0.00    -0.207 C  
BRANCH   6   7
HETATM    7  C   UNL     1     -10.551   9.977  69.326  1.00  0.00    -0.227 C  
HETATM    8  O   UNL     1      -9.399  10.827  69.421  1.00  0.00    -0.388 OA 
HETATM    9  H   UNL     1      -9.555  11.651  68.974  1.00  0.00     0.000 HD 
BRANCH   7  10
HETATM   10  C   UNL     1     -10.890   9.743  67.849  1.00  0.00    -0.242 C  
BRANCH  10  11
HETATM   11  O   UNL     1     -11.347  10.975  67.259  1.00  0.00    -0.408 OA 
BRANCH  11  12
HETATM   12  C   UNL     1     -10.916  11.203  65.977  1.00  0.00    -0.123 A  
HETATM   13  C   UNL     1     -11.336  12.367  65.301  1.00  0.00    -0.374 A  
HETATM   14  C   UNL     1     -10.119  10.269  65.298  1.00  0.00    -0.359 A  
HETATM   15  C   UNL     1     -10.894  12.595  63.987  1.00  0.00    -0.452 A  
HETATM   16  C   UNL     1      -9.704  10.501  63.987  1.00  0.00    -0.383 A  
HETATM   17  C   UNL     1     -10.086  11.665  63.333  1.00  0.00    -0.468 A  
BRANCH  13  18
HETATM   18  C   UNL     1     -12.221  13.387  65.953  1.00  0.00    -0.450 C  
HETATM   19  O   UNL     1     -12.948  14.105  65.271  1.00  0.00    -0.725 OA 
BRANCH  18  20
HETATM   20  C   UNL     1     -12.269  13.466  67.474  1.00  0.00    -0.231 C  
BRANCH  20  21
HETATM   21  C   UNL     1     -11.694  14.775  68.005  1.00  0.00    -0.360 C  
BRANCH  21  22
HETATM   22  C   UNL     1     -11.881  14.924  69.496  1.00  0.00    -0.360 A  
HETATM   23  C   UNL     1     -12.519  13.920  70.238  1.00  0.00    -0.380 A  
HETATM   24  C   UNL     1     -12.670  14.049  71.621  1.00  0.00    -0.422 A  
HETATM   25  C   UNL     1     -12.189  15.182  72.273  1.00  0.00    -0.458 A  
HETATM   26  C   UNL     1     -11.565  16.191  71.542  1.00  0.00    -0.502 A  
HETATM   27  C   UNL     1     -11.414  16.066  70.160  1.00  0.00    -0.350 A  
ENDBRANCH  21  22
ENDBRANCH  20  21
ENDBRANCH  18  20
ENDBRANCH  13  18
ENDBRANCH  11  12
ENDBRANCH  10  11
ENDBRANCH   7  10
ENDBRANCH   6   7
ENDBRANCH   4   6
ENDBRANCH   3   4
ENDBRANCH   2   3
TORSDOF 11
ENDMDL
MODEL       85
REMARK 921   NORMALIZED FREE ENERGY PREDICTED BY IDOCK:   -5.55 KCAL/MOL
REMARK 922        TOTAL FREE ENERGY PREDICTED BY IDOCK:  -10.13 KCAL/MOL
REMARK 923 INTER-LIGAND FREE ENERGY PREDICTED BY IDOCK:   -9.07 KCAL/MOL
REMARK 924 INTRA-LIGAND FREE ENERGY PREDICTED BY IDOCK:   -1.06 KCAL/MOL
REMARK 927      BINDING AFFINITY PREDICTED BY RF-SCORE:    0.00 PKD
ROOT
HETATM    1  C   UNL     1      -7.058  20.173  67.884  1.00  0.00    -0.325 C  
HETATM    2  C   UNL     1      -8.375  19.778  67.234  1.00  0.00    -0.351 C  
ENDROOT
BRANCH   2   3
HETATM    3  C   UNL     1      -8.148  18.825  66.061  1.00  0.00    -0.112 C  
BRANCH   3   4
HETATM    4  N   UNL     1      -9.286  17.916  65.940  1.00  0.00    -0.514 NA 
HETATM    5  H   UNL     1      -8.990  16.945  65.841  1.00  0.00     0.000 HD 
BRANCH   4   6
HETATM    6  C   UNL     1     -10.204  18.096  67.073  1.00  0.00    -0.365 C  
BRANCH   6   7
HETATM    7  C   UNL     1     -10.447  16.764  67.805  1.00  0.00    -0.335 C  
HETATM    8  O   UNL     1      -9.364  15.852  67.563  1.00  0.00    -0.214 OA 
HETATM    9  H   UNL     1      -9.514  15.030  68.015  1.00  0.00     0.000 HD 
BRANCH   7  10
HETATM   10  C   UNL     1     -10.594  16.988  69.315  1.00  0.00    -0.276 C  
BRANCH  10  11
HETATM   11  O   UNL     1     -10.407  15.738  70.007  1.00  0.00    -0.299 OA 
BRANCH  11  12
HETATM   12  C   UNL     1     -11.393  15.416  70.905  1.00  0.00    -0.359 A  
HETATM   13  C   UNL     1     -12.162  14.252  70.701  1.00  0.00    -0.427 A  
HETATM   14  C   UNL     1     -11.699  16.256  71.986  1.00  0.00    -0.528 A  
HETATM   15  C   UNL     1     -13.172  13.927  71.622  1.00  0.00    -0.446 A  
HETATM   16  C   UNL     1     -12.718  15.928  72.881  1.00  0.00    -0.584 A  
HETATM   17  C   UNL     1     -13.451  14.763  72.703  1.00  0.00    -0.570 A  
BRANCH  13  18
HETATM   18  C   UNL     1     -11.916  13.331  69.543  1.00  0.00    -0.307 C  
HETATM   19  O   UNL     1     -12.253  13.657  68.407  1.00  0.00    -0.332 OA 
BRANCH  18  20
HETATM   20  C   UNL     1     -11.170  12.023  69.780  1.00  0.00    -0.105 C  
BRANCH  20  21
HETATM   21  C   UNL     1     -12.077  10.931  70.337  1.00  0.00    -0.453 C  
BRANCH  21  22
HETATM   22  C   UNL     1     -11.309   9.873  71.092  1.00  0.00    -0.443 A  
HETATM   23  C   UNL     1      -9.929   9.717  70.895  1.00  0.00    -0.211 A  
HETATM   24  C   UNL     1      -9.215   8.754  71.611  1.00  0.00    -0.333 A  
HETATM   25  C   UNL     1      -9.873   7.936  72.527  1.00  0.00    -0.299 A  
HETATM   26  C   UNL     1     -11.246   8.074  72.721  1.00  0.00    -0.448 A  
HETATM   27  C   UNL     1     -11.962   9.035  72.004  1.00  0.00    -0.433 A  
ENDBRANCH  21  22
ENDBRANCH  20  21
ENDBRANCH  18  20
ENDBRANCH  13  18
ENDBRANCH  11  12
ENDBRANCH  10  11
ENDBRANCH   7  10
ENDBRANCH   6   7
ENDBRANCH   4   6
ENDBRANCH   3   4
ENDBRANCH   2   3
TORSDOF 11
ENDMDL
MODEL       86
REMARK 921   NORMALIZED FREE ENERGY PREDICTED BY IDOCK:   -5.55 KCAL/MOL
REMARK 922        TOTAL FREE ENERGY PREDICTED BY IDOCK:  -10.13 KCAL/MOL
REMARK 923 INTER-LIGAND FREE ENERGY PREDICTED BY IDOCK:   -8.34 KCAL/MOL
REMARK 924 INTRA-LIGAND FREE ENERGY PREDICTED BY IDOCK:   -1.79 KCAL/MOL
REMARK 927      BINDING AFFINITY PREDICTED BY RF-SCORE:    0.00 PKD
ROOT
HETATM    1  C   UNL     1     -10.399  19.928  66.201  1.00  0.00    -0.604 C  
HETATM    2  C   UNL     1     -10.257  18.497  66.698  1.00  0.00    -0.429 C  
ENDROOT
BRANCH   2   3
HETATM    3  C   UNL     1      -9.110  18.371  67.700  1.00  0.00    -0.273 C  
BRANCH   3   4
HETATM    4  N   UNL     1      -9.068  17.009  68.229  1.00  0.00    -0.234 NA 
HETATM    5  H   UNL     1      -9.132  16.310  67.488  1.00  0.00     0.000 HD 
BRANCH   4   6
HETATM    6  C   UNL     1      -7.867  16.822  69.055  1.00  0.00    -0.201 C  
BRANCH   6   7
HETATM    7  C   UNL     1      -7.167  15.492  68.721  1.00  0.00    -0.134 C  
HETATM    8  O   UNL     1      -7.155  14.628  69.868  1.00  0.00    -0.301 OA 
HETATM    9  H   UNL     1      -6.723  13.808  69.661  1.00  0.00     0.000 HD 
BRANCH   7  10
HETATM   10  C   UNL     1      -7.869  14.783  67.557  1.00  0.00    -0.188 C  
BRANCH  10  11
HETATM   11  O   UNL     1      -8.841  13.855  68.075  1.00  0.00    -0.167 OA 
BRANCH  11  12
HETATM   12  C   UNL     1      -9.901  13.597  67.243  1.00  0.00    -0.241 A  
HETATM   13  C   UNL     1     -11.182  14.076  67.584  1.00  0.00    -0.317 A  
HETATM   14  C   UNL     1      -9.752  12.807  66.093  1.00  0.00    -0.246 A  
HETATM   15  C   UNL     1     -12.266  13.808  66.731  1.00  0.00    -0.440 A  
HETATM   16  C   UNL     1     -10.841  12.534  65.266  1.00  0.00    -0.321 A  
HETATM   17  C   UNL     1     -12.096  13.037  65.580  1.00  0.00    -0.507 A  
BRANCH  13  18
HETATM   18  C   UNL     1     -11.421  14.892  68.820  1.00  0.00    -0.307 C  
HETATM   19  O   UNL     1     -11.781  16.063  68.732  1.00  0.00    -0.385 OA 
BRANCH  18  20
HETATM   20  C   UNL     1     -11.293  14.227  70.185  1.00  0.00    -0.187 C  
BRANCH  20  21
HETATM   21  C   UNL     1     -12.605  13.605  70.653  1.00  0.00    -0.366 C  
BRANCH  21  22
HETATM   22  C   UNL     1     -12.492  12.115  70.873  1.00  0.00    -0.374 A  
HETATM   23  C   UNL     1     -11.654  11.336  70.061  1.00  0.00    -0.404 A  
HETATM   24  C   UNL     1     -11.532   9.963  70.281  1.00  0.00    -0.349 A  
HETATM   25  C   UNL     1     -12.247   9.354  71.309  1.00  0.00    -0.425 A  
HETATM   26  C   UNL     1     -13.092  10.117  72.113  1.00  0.00    -0.463 A  
HETATM   27  C   UNL     1     -13.218  11.491  71.894  1.00  0.00    -0.479 A  
ENDBRANCH  21  22
ENDBRANCH  20  21
ENDBRANCH  18  20
ENDBRANCH  13  18
ENDBRANCH  11  12
ENDBRANCH  10  11
ENDBRANCH   7  10
ENDBRANCH   6   7
ENDBRANCH   4   6
ENDBRANCH   3   4
ENDBRANCH   2   3
TORSDOF 11
ENDMDL
MODEL       87
REMARK 921   NORMALIZED FREE ENERGY PREDICTED BY IDOCK:   -5.54 KCAL/MOL
REMARK 922        TOTAL FREE ENERGY PREDICTED BY IDOCK:  -10.12 KCAL/MOL
REMARK 923 INTER-LIGAND FREE ENERGY PREDICTED BY IDOCK:   -9.57 KCAL/MOL
REMARK 924 INTRA-LIGAND FREE ENERGY PREDICTED BY IDOCK:   -0.55 KCAL/MOL
REMARK 927      BINDING AFFINITY PREDICTED BY RF-SCORE:    0.00 PKD
ROOT
HETATM    1  C   UNL     1      -8.218   9.997  62.773  1.00  0.00    -0.154 C  
HETATM    2  C   UNL     1      -9.245  11.113  62.657  1.00  0.00    -0.357 C  
ENDROOT
BRANCH   2   3
HETATM    3  C   UNL     1     -10.290  11.019  63.768  1.00  0.00    -0.364 C  
BRANCH   3   4
HETATM    4  N   UNL     1     -10.561  12.352  64.301  1.00  0.00    -0.336 NA 
HETATM    5  H   UNL     1     -11.528  12.636  64.146  1.00  0.00     0.000 HD 
BRANCH   4   6
HETATM    6  C   UNL     1     -10.193  12.415  65.723  1.00  0.00    -0.260 C  
BRANCH   6   7
HETATM    7  C   UNL     1     -11.331  13.024  66.562  1.00  0.00    -0.320 C  
HETATM    8  O   UNL     1     -12.551  13.057  65.806  1.00  0.00    -0.500 OA 
HETATM    9  H   UNL     1     -13.253  13.433  66.324  1.00  0.00     0.000 HD 
BRANCH   7  10
HETATM   10  C   UNL     1     -11.552  12.221  67.849  1.00  0.00    -0.354 C  
BRANCH  10  11
HETATM   11  O   UNL     1     -11.092  12.987  68.979  1.00  0.00    -0.249 OA 
BRANCH  11  12
HETATM   12  C   UNL     1     -11.917  12.961  70.075  1.00  0.00    -0.309 A  
HETATM   13  C   UNL     1     -12.256  14.171  70.715  1.00  0.00    -0.435 A  
HETATM   14  C   UNL     1     -12.379  11.751  70.615  1.00  0.00    -0.421 A  
HETATM   15  C   UNL     1     -13.099  14.141  71.839  1.00  0.00    -0.456 A  
HETATM   16  C   UNL     1     -13.200  11.737  71.741  1.00  0.00    -0.434 A  
HETATM   17  C   UNL     1     -13.565  12.930  72.351  1.00  0.00    -0.577 A  
BRANCH  13  18
HETATM   18  C   UNL     1     -11.764  15.498  70.217  1.00  0.00    -0.346 C  
HETATM   19  O   UNL     1     -11.233  16.293  70.988  1.00  0.00    -0.337 OA 
BRANCH  18  20
HETATM   20  C   UNL     1     -11.858  15.813  68.729  1.00  0.00    -0.321 C  
BRANCH  20  21
HETATM   21  C   UNL     1     -10.497  16.127  68.116  1.00  0.00    -0.279 C  
BRANCH  21  22
HETATM   22  C   UNL     1     -10.363  17.578  67.721  1.00  0.00    -0.367 A  
HETATM   23  C   UNL     1     -10.477  17.964  66.377  1.00  0.00    -0.318 A  
HETATM   24  C   UNL     1     -10.376  19.309  66.015  1.00  0.00    -0.556 A  
HETATM   25  C   UNL     1     -10.157  20.279  66.990  1.00  0.00    -0.567 A  
HETATM   26  C   UNL     1     -10.029  19.905  68.326  1.00  0.00    -0.552 A  
HETATM   27  C   UNL     1     -10.127  18.560  68.690  1.00  0.00    -0.406 A  
ENDBRANCH  21  22
ENDBRANCH  20  21
ENDBRANCH  18  20
ENDBRANCH  13  18
ENDBRANCH  11  12
ENDBRANCH  10  11
ENDBRANCH   7  10
ENDBRANCH   6   7
ENDBRANCH   4   6
ENDBRANCH   3   4
ENDBRANCH   2   3
TORSDOF 11
ENDMDL
MODEL       88
REMARK 921   NORMALIZED FREE ENERGY PREDICTED BY IDOCK:   -5.53 KCAL/MOL
REMARK 922        TOTAL FREE ENERGY PREDICTED BY IDOCK:  -10.11 KCAL/MOL
REMARK 923 INTER-LIGAND FREE ENERGY PREDICTED BY IDOCK:   -8.69 KCAL/MOL
REMARK 924 INTRA-LIGAND FREE ENERGY PREDICTED BY IDOCK:   -1.41 KCAL/MOL
REMARK 927      BINDING AFFINITY PREDICTED BY RF-SCORE:    0.00 PKD
ROOT
HETATM    1  C   UNL     1     -11.839  14.200  65.510  1.00  0.00    -0.364 C  
HETATM    2  C   UNL     1     -10.669  15.010  64.973  1.00  0.00    -0.448 C  
ENDROOT
BRANCH   2   3
HETATM    3  C   UNL     1     -11.044  16.483  64.813  1.00  0.00    -0.186 C  
BRANCH   3   4
HETATM    4  N   UNL     1     -10.168  17.306  65.645  1.00  0.00    -0.613 NA 
HETATM    5  H   UNL     1      -9.211  17.324  65.289  1.00  0.00     0.000 HD 
BRANCH   4   6
HETATM    6  C   UNL     1     -10.725  18.658  65.788  1.00  0.00    -0.179 C  
BRANCH   6   7
HETATM    7  C   UNL     1      -9.606  19.701  65.959  1.00  0.00    -0.318 C  
HETATM    8  O   UNL     1     -10.077  20.824  66.720  1.00  0.00    -0.480 OA 
HETATM    9  H   UNL     1      -9.386  21.468  66.825  1.00  0.00     0.000 HD 
BRANCH   7  10
HETATM   10  C   UNL     1      -8.387  19.088  66.659  1.00  0.00    -0.301 C  
BRANCH  10  11
HETATM   11  O   UNL     1      -8.815  18.380  67.838  1.00  0.00    -0.270 OA 
BRANCH  11  12
HETATM   12  C   UNL     1      -7.824  17.709  68.507  1.00  0.00    -0.282 A  
HETATM   13  C   UNL     1      -8.033  16.369  68.892  1.00  0.00    -0.236 A  
HETATM   14  C   UNL     1      -6.631  18.348  68.878  1.00  0.00    -0.261 A  
HETATM   15  C   UNL     1      -7.015  15.685  69.579  1.00  0.00    -0.193 A  
HETATM   16  C   UNL     1      -5.638  17.661  69.576  1.00  0.00    -0.213 A  
HETATM   17  C   UNL     1      -5.827  16.330  69.923  1.00  0.00    -0.187 A  
BRANCH  13  18
HETATM   18  C   UNL     1      -9.300  15.637  68.565  1.00  0.00    -0.197 C  
HETATM   19  O   UNL     1      -9.260  14.526  68.042  1.00  0.00    -0.180 OA 
BRANCH  18  20
HETATM   20  C   UNL     1     -10.636  16.252  68.964  1.00  0.00    -0.286 C  
BRANCH  20  21
HETATM   21  C   UNL     1     -11.707  15.196  69.220  1.00  0.00    -0.352 C  
BRANCH  21  22
HETATM   22  C   UNL     1     -12.290  15.290  70.610  1.00  0.00    -0.427 A  
HETATM   23  C   UNL     1     -13.651  15.032  70.831  1.00  0.00    -0.363 A  
HETATM   24  C   UNL     1     -14.184  15.096  72.120  1.00  0.00    -0.656 A  
HETATM   25  C   UNL     1     -13.365  15.423  73.198  1.00  0.00    -0.608 A  
HETATM   26  C   UNL     1     -12.015  15.695  72.987  1.00  0.00    -0.590 A  
HETATM   27  C   UNL     1     -11.479  15.633  71.699  1.00  0.00    -0.506 A  
ENDBRANCH  21  22
ENDBRANCH  20  21
ENDBRANCH  18  20
ENDBRANCH  13  18
ENDBRANCH  11  12
ENDBRANCH  10  11
ENDBRANCH   7  10
ENDBRANCH   6   7
ENDBRANCH   4   6
ENDBRANCH   3   4
ENDBRANCH   2   3
TORSDOF 11
ENDMDL
MODEL       89
REMARK 921   NORMALIZED FREE ENERGY PREDICTED BY IDOCK:   -5.53 KCAL/MOL
REMARK 922        TOTAL FREE ENERGY PREDICTED BY IDOCK:  -10.10 KCAL/MOL
REMARK 923 INTER-LIGAND FREE ENERGY PREDICTED BY IDOCK:   -8.51 KCAL/MOL
REMARK 924 INTRA-LIGAND FREE ENERGY PREDICTED BY IDOCK:   -1.59 KCAL/MOL
REMARK 927      BINDING AFFINITY PREDICTED BY RF-SCORE:    0.00 PKD
ROOT
HETATM    1  C   UNL     1      -9.758   5.053  71.231  1.00  0.00    -0.235 C  
HETATM    2  C   UNL     1      -9.628   6.014  70.059  1.00  0.00    -0.194 C  
ENDROOT
BRANCH   2   3
HETATM    3  C   UNL     1     -10.717   5.765  69.017  1.00  0.00    -0.284 C  
BRANCH   3   4
HETATM    4  N   UNL     1     -11.236   7.043  68.533  1.00  0.00    -0.494 NA 
HETATM    5  H   UNL     1     -11.126   7.785  69.225  1.00  0.00     0.000 HD 
BRANCH   4   6
HETATM    6  C   UNL     1     -10.613   7.392  67.250  1.00  0.00    -0.323 C  
BRANCH   6   7
HETATM    7  C   UNL     1      -9.928   8.769  67.324  1.00  0.00    -0.220 C  
HETATM    8  O   UNL     1      -8.638   8.657  67.946  1.00  0.00    -0.135 OA 
HETATM    9  H   UNL     1      -8.217   9.507  67.992  1.00  0.00     0.000 HD 
BRANCH   7  10
HETATM   10  C   UNL     1      -9.767   9.377  65.926  1.00  0.00    -0.285 C  
BRANCH  10  11
HETATM   11  O   UNL     1      -9.692  10.812  66.031  1.00  0.00    -0.200 OA 
BRANCH  11  12
HETATM   12  C   UNL     1     -10.647  11.499  65.325  1.00  0.00    -0.283 A  
HETATM   13  C   UNL     1     -11.510  12.382  66.006  1.00  0.00    -0.431 A  
HETATM   14  C   UNL     1     -10.830  11.291  63.949  1.00  0.00    -0.427 A  
HETATM   15  C   UNL     1     -12.489  13.081  65.279  1.00  0.00    -0.555 A  
HETATM   16  C   UNL     1     -11.818  11.979  63.246  1.00  0.00    -0.450 A  
HETATM   17  C   UNL     1     -12.644  12.877  63.908  1.00  0.00    -0.334 A  
BRANCH  13  18
HETATM   18  C   UNL     1     -11.399  12.621  67.482  1.00  0.00    -0.308 C  
HETATM   19  O   UNL     1     -10.907  13.663  67.908  1.00  0.00    -0.243 OA 
BRANCH  18  20
HETATM   20  C   UNL     1     -11.976  11.592  68.447  1.00  0.00    -0.266 C  
BRANCH  20  21
HETATM   21  C   UNL     1     -10.992  11.216  69.550  1.00  0.00    -0.276 C  
BRANCH  21  22
HETATM   22  C   UNL     1     -11.592  10.267  70.560  1.00  0.00    -0.424 A  
HETATM   23  C   UNL     1     -12.973  10.271  70.808  1.00  0.00    -0.408 A  
HETATM   24  C   UNL     1     -13.530   9.377  71.724  1.00  0.00    -0.485 A  
HETATM   25  C   UNL     1     -12.715   8.476  72.405  1.00  0.00    -0.394 A  
HETATM   26  C   UNL     1     -11.340   8.474  72.176  1.00  0.00    -0.442 A  
HETATM   27  C   UNL     1     -10.780   9.368  71.261  1.00  0.00    -0.421 A  
ENDBRANCH  21  22
ENDBRANCH  20  21
ENDBRANCH  18  20
ENDBRANCH  13  18
ENDBRANCH  11  12
ENDBRANCH  10  11
ENDBRANCH   7  10
ENDBRANCH   6   7
ENDBRANCH   4   6
ENDBRANCH   3   4
ENDBRANCH   2   3
TORSDOF 11
ENDMDL
MODEL       90
REMARK 921   NORMALIZED FREE ENERGY PREDICTED BY IDOCK:   -5.52 KCAL/MOL
REMARK 922        TOTAL FREE ENERGY PREDICTED BY IDOCK:  -10.08 KCAL/MOL
REMARK 923 INTER-LIGAND FREE ENERGY PREDICTED BY IDOCK:   -8.69 KCAL/MOL
REMARK 924 INTRA-LIGAND FREE ENERGY PREDICTED BY IDOCK:   -1.39 KCAL/MOL
REMARK 927      BINDING AFFINITY PREDICTED BY RF-SCORE:    0.00 PKD
ROOT
HETATM    1  C   UNL     1      -9.058   4.134  63.801  1.00  0.00    -0.140 C  
HETATM    2  C   UNL     1      -9.435   4.073  65.274  1.00  0.00    -0.172 C  
ENDROOT
BRANCH   2   3
HETATM    3  C   UNL     1      -9.342   5.452  65.926  1.00  0.00    -0.143 C  
BRANCH   3   4
HETATM    4  N   UNL     1     -10.262   5.523  67.059  1.00  0.00    -0.198 NA 
HETATM    5  H   UNL     1      -9.803   5.284  67.938  1.00  0.00     0.000 HD 
BRANCH   4   6
HETATM    6  C   UNL     1     -10.898   6.847  67.115  1.00  0.00    -0.377 C  
BRANCH   6   7
HETATM    7  C   UNL     1      -9.851   7.954  67.336  1.00  0.00    -0.181 C  
HETATM    8  O   UNL     1     -10.250   9.163  66.672  1.00  0.00    -0.263 OA 
HETATM    9  H   UNL     1      -9.604   9.846  66.808  1.00  0.00     0.000 HD 
BRANCH   7  10
HETATM   10  C   UNL     1      -9.658   8.235  68.830  1.00  0.00    -0.153 C  
BRANCH  10  11
HETATM   11  O   UNL     1      -9.963   9.616  69.104  1.00  0.00    -0.170 OA 
BRANCH  11  12
HETATM   12  C   UNL     1     -10.957   9.821  70.027  1.00  0.00    -0.277 A  
HETATM   13  C   UNL     1     -11.725  11.002  69.966  1.00  0.00    -0.437 A  
HETATM   14  C   UNL     1     -11.183   8.914  71.073  1.00  0.00    -0.342 A  
HETATM   15  C   UNL     1     -12.741  11.210  70.914  1.00  0.00    -0.438 A  
HETATM   16  C   UNL     1     -12.182   9.143  72.017  1.00  0.00    -0.443 A  
HETATM   17  C   UNL     1     -12.965  10.287  71.937  1.00  0.00    -0.554 A  
BRANCH  13  18
HETATM   18  C   UNL     1     -11.511  12.035  68.900  1.00  0.00    -0.301 C  
HETATM   19  O   UNL     1     -11.733  11.767  67.721  1.00  0.00    -0.464 OA 
BRANCH  18  20
HETATM   20  C   UNL     1     -11.094  13.444  69.303  1.00  0.00    -0.216 C  
BRANCH  20  21
HETATM   21  C   UNL     1     -12.283  14.391  69.415  1.00  0.00    -0.305 C  
BRANCH  21  22
HETATM   22  C   UNL     1     -12.524  14.851  70.833  1.00  0.00    -0.395 A  
HETATM   23  C   UNL     1     -13.815  14.828  71.381  1.00  0.00    -0.509 A  
HETATM   24  C   UNL     1     -14.032  15.231  72.700  1.00  0.00    -0.555 A  
HETATM   25  C   UNL     1     -12.965  15.664  73.482  1.00  0.00    -0.679 A  
HETATM   26  C   UNL     1     -11.680  15.704  72.943  1.00  0.00    -0.512 A  
HETATM   27  C   UNL     1     -11.460  15.303  71.624  1.00  0.00    -0.471 A  
ENDBRANCH  21  22
ENDBRANCH  20  21
ENDBRANCH  18  20
ENDBRANCH  13  18
ENDBRANCH  11  12
ENDBRANCH  10  11
ENDBRANCH   7  10
ENDBRANCH   6   7
ENDBRANCH   4   6
ENDBRANCH   3   4
ENDBRANCH   2   3
TORSDOF 11
ENDMDL
MODEL       91
REMARK 921   NORMALIZED FREE ENERGY PREDICTED BY IDOCK:   -5.51 KCAL/MOL
REMARK 922        TOTAL FREE ENERGY PREDICTED BY IDOCK:  -10.06 KCAL/MOL
REMARK 923 INTER-LIGAND FREE ENERGY PREDICTED BY IDOCK:   -8.41 KCAL/MOL
REMARK 924 INTRA-LIGAND FREE ENERGY PREDICTED BY IDOCK:   -1.65 KCAL/MOL
REMARK 927      BINDING AFFINITY PREDICTED BY RF-SCORE:    0.00 PKD
ROOT
HETATM    1  C   UNL     1     -11.963  14.798  64.124  1.00  0.00    -0.282 C  
HETATM    2  C   UNL     1     -12.342  13.338  64.323  1.00  0.00    -0.406 C  
ENDROOT
BRANCH   2   3
HETATM    3  C   UNL     1     -11.105  12.441  64.329  1.00  0.00    -0.349 C  
BRANCH   3   4
HETATM    4  N   UNL     1     -10.531  12.406  65.672  1.00  0.00    -0.255 NA 
HETATM    5  H   UNL     1     -11.138  12.854  66.359  1.00  0.00     0.000 HD 
BRANCH   4   6
HETATM    6  C   UNL     1     -10.204  11.024  66.049  1.00  0.00    -0.252 C  
BRANCH   6   7
HETATM    7  C   UNL     1      -9.135  10.991  67.157  1.00  0.00    -0.146 C  
HETATM    8  O   UNL     1      -8.046  11.868  66.832  1.00  0.00    -0.165 OA 
HETATM    9  H   UNL     1      -7.387  11.847  67.516  1.00  0.00     0.000 HD 
BRANCH   7  10
HETATM   10  C   UNL     1      -9.734  11.405  68.507  1.00  0.00    -0.197 C  
BRANCH  10  11
HETATM   11  O   UNL     1     -11.162  11.549  68.376  1.00  0.00    -0.213 OA 
BRANCH  11  12
HETATM   12  C   UNL     1     -11.805  12.013  69.495  1.00  0.00    -0.326 A  
HETATM   13  C   UNL     1     -12.033  13.397  69.639  1.00  0.00    -0.386 A  
HETATM   14  C   UNL     1     -12.183  11.148  70.533  1.00  0.00    -0.475 A  
HETATM   15  C   UNL     1     -12.690  13.869  70.788  1.00  0.00    -0.383 A  
HETATM   16  C   UNL     1     -12.818  11.634  71.676  1.00  0.00    -0.454 A  
HETATM   17  C   UNL     1     -13.076  12.992  71.802  1.00  0.00    -0.469 A  
BRANCH  13  18
HETATM   18  C   UNL     1     -11.619  14.383  68.588  1.00  0.00    -0.314 C  
HETATM   19  O   UNL     1     -12.325  14.572  67.600  1.00  0.00    -0.218 OA 
BRANCH  18  20
HETATM   20  C   UNL     1     -10.355  15.208  68.800  1.00  0.00    -0.236 C  
BRANCH  20  21
HETATM   21  C   UNL     1     -10.656  16.599  69.346  1.00  0.00    -0.333 C  
BRANCH  21  22
HETATM   22  C   UNL     1     -10.412  17.686  68.326  1.00  0.00    -0.376 A  
HETATM   23  C   UNL     1     -10.451  17.396  66.954  1.00  0.00    -0.279 A  
HETATM   24  C   UNL     1     -10.249  18.406  66.011  1.00  0.00    -0.354 A  
HETATM   25  C   UNL     1     -10.001  19.711  66.428  1.00  0.00    -0.556 A  
HETATM   26  C   UNL     1      -9.946  20.006  67.789  1.00  0.00    -0.560 A  
HETATM   27  C   UNL     1     -10.146  18.998  68.735  1.00  0.00    -0.429 A  
ENDBRANCH  21  22
ENDBRANCH  20  21
ENDBRANCH  18  20
ENDBRANCH  13  18
ENDBRANCH  11  12
ENDBRANCH  10  11
ENDBRANCH   7  10
ENDBRANCH   6   7
ENDBRANCH   4   6
ENDBRANCH   3   4
ENDBRANCH   2   3
TORSDOF 11
ENDMDL
MODEL       92
REMARK 921   NORMALIZED FREE ENERGY PREDICTED BY IDOCK:   -5.49 KCAL/MOL
REMARK 922        TOTAL FREE ENERGY PREDICTED BY IDOCK:  -10.04 KCAL/MOL
REMARK 923 INTER-LIGAND FREE ENERGY PREDICTED BY IDOCK:   -8.99 KCAL/MOL
REMARK 924 INTRA-LIGAND FREE ENERGY PREDICTED BY IDOCK:   -1.04 KCAL/MOL
REMARK 927      BINDING AFFINITY PREDICTED BY RF-SCORE:    0.00 PKD
ROOT
HETATM    1  C   UNL     1      -9.949   4.536  66.357  1.00  0.00    -0.267 C  
HETATM    2  C   UNL     1     -10.252   5.523  67.474  1.00  0.00    -0.245 C  
ENDROOT
BRANCH   2   3
HETATM    3  C   UNL     1     -10.690   6.875  66.913  1.00  0.00    -0.316 C  
BRANCH   3   4
HETATM    4  N   UNL     1     -10.980   7.793  68.012  1.00  0.00    -0.462 NA 
HETATM    5  H   UNL     1     -11.001   7.314  68.913  1.00  0.00     0.000 HD 
BRANCH   4   6
HETATM    6  C   UNL     1     -10.026   8.910  68.007  1.00  0.00    -0.178 C  
BRANCH   6   7
HETATM    7  C   UNL     1     -10.531  10.073  68.881  1.00  0.00    -0.210 C  
HETATM    8  O   UNL     1      -9.430  10.742  69.514  1.00  0.00    -0.413 OA 
HETATM    9  H   UNL     1      -9.743  11.459  70.053  1.00  0.00     0.000 HD 
BRANCH   7  10
HETATM   10  C   UNL     1     -11.325  11.082  68.043  1.00  0.00    -0.306 C  
BRANCH  10  11
HETATM   11  O   UNL     1     -10.422  12.045  67.466  1.00  0.00    -0.207 OA 
BRANCH  11  12
HETATM   12  C   UNL     1     -10.949  12.806  66.454  1.00  0.00    -0.276 A  
HETATM   13  C   UNL     1     -10.704  14.194  66.431  1.00  0.00    -0.288 A  
HETATM   14  C   UNL     1     -11.785  12.244  65.477  1.00  0.00    -0.433 A  
HETATM   15  C   UNL     1     -11.248  14.970  65.393  1.00  0.00    -0.356 A  
HETATM   16  C   UNL     1     -12.333  13.031  64.465  1.00  0.00    -0.461 A  
HETATM   17  C   UNL     1     -12.062  14.392  64.419  1.00  0.00    -0.491 A  
BRANCH  13  18
HETATM   18  C   UNL     1      -9.853  14.867  67.467  1.00  0.00    -0.217 C  
HETATM   19  O   UNL     1      -8.861  15.511  67.133  1.00  0.00    -0.189 OA 
BRANCH  18  20
HETATM   20  C   UNL     1     -10.280  14.812  68.928  1.00  0.00    -0.237 C  
BRANCH  20  21
HETATM   21  C   UNL     1     -11.659  15.424  69.152  1.00  0.00    -0.354 C  
BRANCH  21  22
HETATM   22  C   UNL     1     -12.398  14.776  70.299  1.00  0.00    -0.400 A  
HETATM   23  C   UNL     1     -13.265  15.529  71.105  1.00  0.00    -0.576 A  
HETATM   24  C   UNL     1     -13.966  14.924  72.150  1.00  0.00    -0.598 A  
HETATM   25  C   UNL     1     -13.805  13.564  72.403  1.00  0.00    -0.687 A  
HETATM   26  C   UNL     1     -12.936  12.810  71.616  1.00  0.00    -0.402 A  
HETATM   27  C   UNL     1     -12.232  13.413  70.572  1.00  0.00    -0.425 A  
ENDBRANCH  21  22
ENDBRANCH  20  21
ENDBRANCH  18  20
ENDBRANCH  13  18
ENDBRANCH  11  12
ENDBRANCH  10  11
ENDBRANCH   7  10
ENDBRANCH   6   7
ENDBRANCH   4   6
ENDBRANCH   3   4
ENDBRANCH   2   3
TORSDOF 11
ENDMDL
MODEL       93
REMARK 921   NORMALIZED FREE ENERGY PREDICTED BY IDOCK:   -5.49 KCAL/MOL
REMARK 922        TOTAL FREE ENERGY PREDICTED BY IDOCK:  -10.03 KCAL/MOL
REMARK 923 INTER-LIGAND FREE ENERGY PREDICTED BY IDOCK:   -8.55 KCAL/MOL
REMARK 924 INTRA-LIGAND FREE ENERGY PREDICTED BY IDOCK:   -1.48 KCAL/MOL
REMARK 927      BINDING AFFINITY PREDICTED BY RF-SCORE:    0.00 PKD
ROOT
HETATM    1  C   UNL     1     -12.489  15.897  72.595  1.00  0.00    -0.571 C  
HETATM    2  C   UNL     1     -13.805  15.205  72.275  1.00  0.00    -0.618 C  
ENDROOT
BRANCH   2   3
HETATM    3  C   UNL     1     -13.617  13.695  72.142  1.00  0.00    -0.538 C  
BRANCH   3   4
HETATM    4  N   UNL     1     -12.767  13.405  70.989  1.00  0.00    -0.333 NA 
HETATM    5  H   UNL     1     -11.914  13.964  70.994  1.00  0.00     0.000 HD 
BRANCH   4   6
HETATM    6  C   UNL     1     -12.479  11.965  70.918  1.00  0.00    -0.300 C  
BRANCH   6   7
HETATM    7  C   UNL     1     -11.901  11.584  69.544  1.00  0.00    -0.351 C  
HETATM    8  O   UNL     1     -12.657  10.512  68.960  1.00  0.00    -0.722 OA 
HETATM    9  H   UNL     1     -12.300  10.276  68.112  1.00  0.00     0.000 HD 
BRANCH   7  10
HETATM   10  C   UNL     1     -11.910  12.787  68.593  1.00  0.00    -0.304 C  
BRANCH  10  11
HETATM   11  O   UNL     1     -10.667  12.834  67.865  1.00  0.00    -0.211 OA 
BRANCH  11  12
HETATM   12  C   UNL     1     -10.778  12.640  66.512  1.00  0.00    -0.250 A  
HETATM   13  C   UNL     1     -10.149  11.526  65.918  1.00  0.00    -0.271 A  
HETATM   14  C   UNL     1     -11.446  13.562  65.693  1.00  0.00    -0.330 A  
HETATM   15  C   UNL     1     -10.263  11.331  64.531  1.00  0.00    -0.370 A  
HETATM   16  C   UNL     1     -11.534  13.365  64.315  1.00  0.00    -0.429 A  
HETATM   17  C   UNL     1     -10.948  12.249  63.734  1.00  0.00    -0.495 A  
BRANCH  13  18
HETATM   18  C   UNL     1      -9.383  10.522  66.728  1.00  0.00    -0.157 C  
HETATM   19  O   UNL     1      -8.280  10.806  67.188  1.00  0.00    -0.120 OA 
BRANCH  18  20
HETATM   20  C   UNL     1     -10.024   9.176  67.041  1.00  0.00    -0.294 C  
BRANCH  20  21
HETATM   21  C   UNL     1      -9.215   8.370  68.052  1.00  0.00    -0.143 C  
BRANCH  21  22
HETATM   22  C   UNL     1      -9.922   8.232  69.379  1.00  0.00    -0.188 A  
HETATM   23  C   UNL     1      -9.568   9.048  70.464  1.00  0.00    -0.264 A  
HETATM   24  C   UNL     1     -10.239   8.936  71.683  1.00  0.00    -0.415 A  
HETATM   25  C   UNL     1     -11.264   8.006  71.833  1.00  0.00    -0.335 A  
HETATM   26  C   UNL     1     -11.614   7.180  70.766  1.00  0.00    -0.358 A  
HETATM   27  C   UNL     1     -10.944   7.289  69.545  1.00  0.00    -0.182 A  
ENDBRANCH  21  22
ENDBRANCH  20  21
ENDBRANCH  18  20
ENDBRANCH  13  18
ENDBRANCH  11  12
ENDBRANCH  10  11
ENDBRANCH   7  10
ENDBRANCH   6   7
ENDBRANCH   4   6
ENDBRANCH   3   4
ENDBRANCH   2   3
TORSDOF 11
ENDMDL
MODEL       94
REMARK 921   NORMALIZED FREE ENERGY PREDICTED BY IDOCK:   -5.48 KCAL/MOL
REMARK 922        TOTAL FREE ENERGY PREDICTED BY IDOCK:  -10.03 KCAL/MOL
REMARK 923 INTER-LIGAND FREE ENERGY PREDICTED BY IDOCK:   -7.66 KCAL/MOL
REMARK 924 INTRA-LIGAND FREE ENERGY PREDICTED BY IDOCK:   -2.37 KCAL/MOL
REMARK 927      BINDING AFFINITY PREDICTED BY RF-SCORE:    0.00 PKD
ROOT
HETATM    1  C   UNL     1     -10.923   9.861  70.824  1.00  0.00    -0.407 C  
HETATM    2  C   UNL     1     -12.317   9.904  71.432  1.00  0.00    -0.498 C  
ENDROOT
BRANCH   2   3
HETATM    3  C   UNL     1     -12.812  11.342  71.579  1.00  0.00    -0.414 C  
BRANCH   3   4
HETATM    4  N   UNL     1     -12.068  12.213  70.671  1.00  0.00    -0.473 NA 
HETATM    5  H   UNL     1     -12.300  12.031  69.694  1.00  0.00     0.000 HD 
BRANCH   4   6
HETATM    6  C   UNL     1     -12.280  13.622  71.032  1.00  0.00    -0.291 C  
BRANCH   6   7
HETATM    7  C   UNL     1     -12.519  14.483  69.778  1.00  0.00    -0.215 C  
HETATM    8  O   UNL     1     -13.312  15.635  70.103  1.00  0.00    -0.710 OA 
HETATM    9  H   UNL     1     -13.459  16.166  69.330  1.00  0.00     0.000 HD 
BRANCH   7  10
HETATM   10  C   UNL     1     -11.190  14.937  69.164  1.00  0.00    -0.279 C  
BRANCH  10  11
HETATM   11  O   UNL     1     -10.660  13.887  68.332  1.00  0.00    -0.241 OA 
BRANCH  11  12
HETATM   12  C   UNL     1     -11.091  13.902  67.030  1.00  0.00    -0.301 A  
HETATM   13  C   UNL     1     -11.497  12.697  66.421  1.00  0.00    -0.409 A  
HETATM   14  C   UNL     1     -11.074  15.080  66.268  1.00  0.00    -0.334 A  
HETATM   15  C   UNL     1     -11.936  12.716  65.086  1.00  0.00    -0.474 A  
HETATM   16  C   UNL     1     -11.495  15.079  64.938  1.00  0.00    -0.399 A  
HETATM   17  C   UNL     1     -11.930  13.900  64.349  1.00  0.00    -0.480 A  
BRANCH  13  18
HETATM   18  C   UNL     1     -11.501  11.394  67.164  1.00  0.00    -0.190 C  
HETATM   19  O   UNL     1     -12.321  11.191  68.056  1.00  0.00    -0.393 OA 
BRANCH  18  20
HETATM   20  C   UNL     1     -10.532  10.297  66.745  1.00  0.00    -0.279 C  
BRANCH  20  21
HETATM   21  C   UNL     1      -9.172  10.851  66.333  1.00  0.00    -0.193 C  
BRANCH  21  22
HETATM   22  C   UNL     1      -8.239  11.023  67.508  1.00  0.00    -0.117 A  
HETATM   23  C   UNL     1      -7.539  12.224  67.691  1.00  0.00    -0.144 A  
HETATM   24  C   UNL     1      -6.695  12.391  68.791  1.00  0.00    -0.092 A  
HETATM   25  C   UNL     1      -6.538  11.360  69.714  1.00  0.00    -0.111 A  
HETATM   26  C   UNL     1      -7.219  10.157  69.533  1.00  0.00    -0.115 A  
HETATM   27  C   UNL     1      -8.063   9.987  68.433  1.00  0.00    -0.101 A  
ENDBRANCH  21  22
ENDBRANCH  20  21
ENDBRANCH  18  20
ENDBRANCH  13  18
ENDBRANCH  11  12
ENDBRANCH  10  11
ENDBRANCH   7  10
ENDBRANCH   6   7
ENDBRANCH   4   6
ENDBRANCH   3   4
ENDBRANCH   2   3
TORSDOF 11
ENDMDL
MODEL       95
REMARK 921   NORMALIZED FREE ENERGY PREDICTED BY IDOCK:   -5.47 KCAL/MOL
REMARK 922        TOTAL FREE ENERGY PREDICTED BY IDOCK:  -10.01 KCAL/MOL
REMARK 923 INTER-LIGAND FREE ENERGY PREDICTED BY IDOCK:   -8.98 KCAL/MOL
REMARK 924 INTRA-LIGAND FREE ENERGY PREDICTED BY IDOCK:   -1.02 KCAL/MOL
REMARK 927      BINDING AFFINITY PREDICTED BY RF-SCORE:    0.00 PKD
ROOT
HETATM    1  C   UNL     1     -14.137   8.782  72.280  1.00  0.00    -0.511 C  
HETATM    2  C   UNL     1     -13.368   7.699  71.539  1.00  0.00    -0.383 C  
ENDROOT
BRANCH   2   3
HETATM    3  C   UNL     1     -11.864   7.970  71.569  1.00  0.00    -0.292 C  
BRANCH   3   4
HETATM    4  N   UNL     1     -11.428   8.464  70.265  1.00  0.00    -0.454 NA 
HETATM    5  H   UNL     1     -12.205   8.544  69.608  1.00  0.00     0.000 HD 
BRANCH   4   6
HETATM    6  C   UNL     1     -10.708   9.736  70.418  1.00  0.00    -0.308 C  
BRANCH   6   7
HETATM    7  C   UNL     1     -11.093  10.727  69.304  1.00  0.00    -0.256 C  
HETATM    8  O   UNL     1     -10.168  11.824  69.264  1.00  0.00    -0.421 OA 
HETATM    9  H   UNL     1     -10.406  12.435  68.577  1.00  0.00     0.000 HD 
BRANCH   7  10
HETATM   10  C   UNL     1     -11.117  10.032  67.938  1.00  0.00    -0.195 C  
BRANCH  10  11
HETATM   11  O   UNL     1     -11.516  10.975  66.925  1.00  0.00    -0.384 OA 
BRANCH  11  12
HETATM   12  C   UNL     1     -10.859  10.857  65.727  1.00  0.00    -0.049 A  
HETATM   13  C   UNL     1     -11.195  11.722  64.664  1.00  0.00    -0.349 A  
HETATM   14  C   UNL     1      -9.907   9.849  65.511  1.00  0.00    -0.381 A  
HETATM   15  C   UNL     1     -10.521  11.596  63.438  1.00  0.00    -0.482 A  
HETATM   16  C   UNL     1      -9.260   9.725  64.282  1.00  0.00    -0.286 A  
HETATM   17  C   UNL     1      -9.562  10.600  63.247  1.00  0.00    -0.382 A  
BRANCH  13  18
HETATM   18  C   UNL     1     -12.232  12.795  64.812  1.00  0.00    -0.459 C  
HETATM   19  O   UNL     1     -13.402  12.573  64.508  1.00  0.00    -0.780 OA 
BRANCH  18  20
HETATM   20  C   UNL     1     -11.834  14.134  65.418  1.00  0.00    -0.362 C  
BRANCH  20  21
HETATM   21  C   UNL     1     -11.996  14.155  66.935  1.00  0.00    -0.479 C  
BRANCH  21  22
HETATM   22  C   UNL     1     -11.180  15.245  67.587  1.00  0.00    -0.320 A  
HETATM   23  C   UNL     1     -10.121  15.853  66.897  1.00  0.00    -0.267 A  
HETATM   24  C   UNL     1      -9.383  16.877  67.493  1.00  0.00    -0.232 A  
HETATM   25  C   UNL     1      -9.692  17.301  68.783  1.00  0.00    -0.280 A  
HETATM   26  C   UNL     1     -10.734  16.695  69.482  1.00  0.00    -0.306 A  
HETATM   27  C   UNL     1     -11.473  15.669  68.890  1.00  0.00    -0.367 A  
ENDBRANCH  21  22
ENDBRANCH  20  21
ENDBRANCH  18  20
ENDBRANCH  13  18
ENDBRANCH  11  12
ENDBRANCH  10  11
ENDBRANCH   7  10
ENDBRANCH   6   7
ENDBRANCH   4   6
ENDBRANCH   3   4
ENDBRANCH   2   3
TORSDOF 11
ENDMDL
MODEL       96
REMARK 921   NORMALIZED FREE ENERGY PREDICTED BY IDOCK:   -5.47 KCAL/MOL
REMARK 922        TOTAL FREE ENERGY PREDICTED BY IDOCK:  -10.00 KCAL/MOL
REMARK 923 INTER-LIGAND FREE ENERGY PREDICTED BY IDOCK:   -8.28 KCAL/MOL
REMARK 924 INTRA-LIGAND FREE ENERGY PREDICTED BY IDOCK:   -1.73 KCAL/MOL
REMARK 927      BINDING AFFINITY PREDICTED BY RF-SCORE:    0.00 PKD
ROOT
HETATM    1  C   UNL     1     -12.097  13.456  63.630  1.00  0.00    -0.513 C  
HETATM    2  C   UNL     1     -11.744  11.979  63.560  1.00  0.00    -0.566 C  
ENDROOT
BRANCH   2   3
HETATM    3  C   UNL     1     -10.235  11.776  63.427  1.00  0.00    -0.449 C  
BRANCH   3   4
HETATM    4  N   UNL     1      -9.623  11.752  64.754  1.00  0.00    -0.408 NA 
HETATM    5  H   UNL     1     -10.120  12.352  65.414  1.00  0.00     0.000 HD 
BRANCH   4   6
HETATM    6  C   UNL     1      -9.519  10.369  65.241  1.00  0.00    -0.237 C  
BRANCH   6   7
HETATM    7  C   UNL     1      -8.298  10.198  66.162  1.00  0.00    -0.131 C  
HETATM    8  O   UNL     1      -7.731  11.476  66.490  1.00  0.00    -0.265 OA 
HETATM    9  H   UNL     1      -6.978  11.369  67.058  1.00  0.00     0.000 HD 
BRANCH   7  10
HETATM   10  C   UNL     1      -8.684   9.467  67.453  1.00  0.00    -0.125 C  
BRANCH  10  11
HETATM   11  O   UNL     1     -10.118   9.358  67.534  1.00  0.00    -0.187 OA 
BRANCH  11  12
HETATM   12  C   UNL     1     -10.653   9.613  68.770  1.00  0.00    -0.216 A  
HETATM   13  C   UNL     1     -11.204  10.884  69.037  1.00  0.00    -0.327 A  
HETATM   14  C   UNL     1     -10.604   8.661  69.800  1.00  0.00    -0.224 A  
HETATM   15  C   UNL     1     -11.749  11.142  70.307  1.00  0.00    -0.431 A  
HETATM   16  C   UNL     1     -11.132   8.940  71.060  1.00  0.00    -0.340 A  
HETATM   17  C   UNL     1     -11.709  10.177  71.313  1.00  0.00    -0.426 A  
BRANCH  13  18
HETATM   18  C   UNL     1     -11.253  11.963  67.997  1.00  0.00    -0.257 C  
HETATM   19  O   UNL     1     -12.005  11.861  67.031  1.00  0.00    -0.615 OA 
BRANCH  18  20
HETATM   20  C   UNL     1     -10.420  13.223  68.194  1.00  0.00    -0.251 C  
BRANCH  20  21
HETATM   21  C   UNL     1     -11.267  14.416  68.626  1.00  0.00    -0.280 C  
BRANCH  21  22
HETATM   22  C   UNL     1     -10.944  15.666  67.844  1.00  0.00    -0.319 A  
HETATM   23  C   UNL     1     -10.955  16.922  68.470  1.00  0.00    -0.290 A  
HETATM   24  C   UNL     1     -10.632  18.074  67.751  1.00  0.00    -0.409 A  
HETATM   25  C   UNL     1     -10.301  17.986  66.401  1.00  0.00    -0.382 A  
HETATM   26  C   UNL     1     -10.300  16.745  65.767  1.00  0.00    -0.322 A  
HETATM   27  C   UNL     1     -10.624  15.590  66.483  1.00  0.00    -0.307 A  
ENDBRANCH  21  22
ENDBRANCH  20  21
ENDBRANCH  18  20
ENDBRANCH  13  18
ENDBRANCH  11  12
ENDBRANCH  10  11
ENDBRANCH   7  10
ENDBRANCH   6   7
ENDBRANCH   4   6
ENDBRANCH   3   4
ENDBRANCH   2   3
TORSDOF 11
ENDMDL
MODEL       97
REMARK 921   NORMALIZED FREE ENERGY PREDICTED BY IDOCK:   -5.47 KCAL/MOL
REMARK 922        TOTAL FREE ENERGY PREDICTED BY IDOCK:  -10.00 KCAL/MOL
REMARK 923 INTER-LIGAND FREE ENERGY PREDICTED BY IDOCK:   -9.02 KCAL/MOL
REMARK 924 INTRA-LIGAND FREE ENERGY PREDICTED BY IDOCK:   -0.97 KCAL/MOL
REMARK 927      BINDING AFFINITY PREDICTED BY RF-SCORE:    0.00 PKD
ROOT
HETATM    1  C   UNL     1     -13.895   8.832  71.941  1.00  0.00    -0.491 C  
HETATM    2  C   UNL     1     -13.296   7.484  71.573  1.00  0.00    -0.409 C  
ENDROOT
BRANCH   2   3
HETATM    3  C   UNL     1     -11.773   7.563  71.477  1.00  0.00    -0.280 C  
BRANCH   3   4
HETATM    4  N   UNL     1     -11.387   8.011  70.141  1.00  0.00    -0.445 NA 
HETATM    5  H   UNL     1     -12.197   8.282  69.581  1.00  0.00     0.000 HD 
BRANCH   4   6
HETATM    6  C   UNL     1     -10.398   9.094  70.233  1.00  0.00    -0.214 C  
BRANCH   6   7
HETATM    7  C   UNL     1     -10.831  10.312  69.397  1.00  0.00    -0.245 C  
HETATM    8  O   UNL     1      -9.888  11.384  69.543  1.00  0.00    -0.386 OA 
HETATM    9  H   UNL     1     -10.156  12.135  69.027  1.00  0.00     0.000 HD 
BRANCH   7  10
HETATM   10  C   UNL     1     -10.954   9.941  67.914  1.00  0.00    -0.223 C  
BRANCH  10  11
HETATM   11  O   UNL     1     -11.555  11.034  67.193  1.00  0.00    -0.469 OA 
BRANCH  11  12
HETATM   12  C   UNL     1     -11.003  11.296  65.966  1.00  0.00    -0.174 A  
HETATM   13  C   UNL     1     -11.288  12.520  65.325  1.00  0.00    -0.363 A  
HETATM   14  C   UNL     1     -10.213  10.346  65.301  1.00  0.00    -0.332 A  
HETATM   15  C   UNL     1     -10.722  12.784  64.066  1.00  0.00    -0.457 A  
HETATM   16  C   UNL     1      -9.673  10.616  64.044  1.00  0.00    -0.373 A  
HETATM   17  C   UNL     1      -9.923  11.835  63.428  1.00  0.00    -0.446 A  
BRANCH  13  18
HETATM   18  C   UNL     1     -12.158  13.564  65.959  1.00  0.00    -0.445 C  
HETATM   19  O   UNL     1     -13.109  14.038  65.343  1.00  0.00    -0.763 OA 
BRANCH  18  20
HETATM   20  C   UNL     1     -11.897  13.970  67.404  1.00  0.00    -0.445 C  
BRANCH  20  21
HETATM   21  C   UNL     1     -10.430  14.303  67.657  1.00  0.00    -0.248 C  
BRANCH  21  22
HETATM   22  C   UNL     1     -10.089  15.727  67.284  1.00  0.00    -0.247 A  
HETATM   23  C   UNL     1     -10.720  16.802  67.927  1.00  0.00    -0.347 A  
HETATM   24  C   UNL     1     -10.386  18.118  67.598  1.00  0.00    -0.411 A  
HETATM   25  C   UNL     1      -9.425  18.371  66.622  1.00  0.00    -0.313 A  
HETATM   26  C   UNL     1      -8.803  17.309  65.969  1.00  0.00    -0.119 A  
HETATM   27  C   UNL     1      -9.136  15.993  66.294  1.00  0.00    -0.379 A  
ENDBRANCH  21  22
ENDBRANCH  20  21
ENDBRANCH  18  20
ENDBRANCH  13  18
ENDBRANCH  11  12
ENDBRANCH  10  11
ENDBRANCH   7  10
ENDBRANCH   6   7
ENDBRANCH   4   6
ENDBRANCH   3   4
ENDBRANCH   2   3
TORSDOF 11
ENDMDL
MODEL       98
REMARK 921   NORMALIZED FREE ENERGY PREDICTED BY IDOCK:   -5.43 KCAL/MOL
REMARK 922        TOTAL FREE ENERGY PREDICTED BY IDOCK:   -9.95 KCAL/MOL
REMARK 923 INTER-LIGAND FREE ENERGY PREDICTED BY IDOCK:   -8.30 KCAL/MOL
REMARK 924 INTRA-LIGAND FREE ENERGY PREDICTED BY IDOCK:   -1.64 KCAL/MOL
REMARK 927      BINDING AFFINITY PREDICTED BY RF-SCORE:    0.00 PKD
ROOT
HETATM    1  C   UNL     1     -10.169   4.977  67.984  1.00  0.00    -0.144 C  
HETATM    2  C   UNL     1     -10.098   6.287  68.754  1.00  0.00    -0.191 C  
ENDROOT
BRANCH   2   3
HETATM    3  C   UNL     1      -9.031   6.230  69.846  1.00  0.00    -0.141 C  
BRANCH   3   4
HETATM    4  N   UNL     1      -9.589   6.723  71.104  1.00  0.00    -0.173 NA 
HETATM    5  H   UNL     1      -9.835   7.712  71.050  1.00  0.00     0.000 HD 
BRANCH   4   6
HETATM    6  C   UNL     1     -10.732   5.895  71.513  1.00  0.00    -0.256 C  
BRANCH   6   7
HETATM    7  C   UNL     1     -11.771   6.729  72.284  1.00  0.00    -0.263 C  
HETATM    8  O   UNL     1     -11.127   7.532  73.286  1.00  0.00    -0.515 OA 
HETATM    9  H   UNL     1     -11.769   8.046  73.762  1.00  0.00     0.000 HD 
BRANCH   7  10
HETATM   10  C   UNL     1     -12.559   7.637  71.333  1.00  0.00    -0.333 C  
BRANCH  10  11
HETATM   11  O   UNL     1     -11.658   8.564  70.696  1.00  0.00    -0.270 OA 
BRANCH  11  12
HETATM   12  C   UNL     1     -11.999   9.887  70.821  1.00  0.00    -0.323 A  
HETATM   13  C   UNL     1     -11.335  10.850  70.034  1.00  0.00    -0.386 A  
HETATM   14  C   UNL     1     -12.947  10.312  71.764  1.00  0.00    -0.574 A  
HETATM   15  C   UNL     1     -11.685  12.205  70.167  1.00  0.00    -0.301 A  
HETATM   16  C   UNL     1     -13.270  11.662  71.897  1.00  0.00    -0.475 A  
HETATM   17  C   UNL     1     -12.644  12.608  71.096  1.00  0.00    -0.354 A  
BRANCH  13  18
HETATM   18  C   UNL     1     -10.282  10.471  69.036  1.00  0.00    -0.216 C  
HETATM   19  O   UNL     1      -9.091  10.537  69.332  1.00  0.00    -0.181 OA 
BRANCH  18  20
HETATM   20  C   UNL     1     -10.708   9.925  67.679  1.00  0.00    -0.339 C  
BRANCH  20  21
HETATM   21  C   UNL     1      -9.914  10.541  66.531  1.00  0.00    -0.266 C  
BRANCH  21  22
HETATM   22  C   UNL     1     -10.781  11.360  65.604  1.00  0.00    -0.301 A  
HETATM   23  C   UNL     1     -10.727  11.161  64.217  1.00  0.00    -0.403 A  
HETATM   24  C   UNL     1     -11.547  11.903  63.363  1.00  0.00    -0.477 A  
HETATM   25  C   UNL     1     -12.423  12.851  63.886  1.00  0.00    -0.417 A  
HETATM   26  C   UNL     1     -12.474  13.065  65.262  1.00  0.00    -0.555 A  
HETATM   27  C   UNL     1     -11.655  12.327  66.118  1.00  0.00    -0.450 A  
ENDBRANCH  21  22
ENDBRANCH  20  21
ENDBRANCH  18  20
ENDBRANCH  13  18
ENDBRANCH  11  12
ENDBRANCH  10  11
ENDBRANCH   7  10
ENDBRANCH   6   7
ENDBRANCH   4   6
ENDBRANCH   3   4
ENDBRANCH   2   3
TORSDOF 11
ENDMDL
MODEL       99
REMARK 921   NORMALIZED FREE ENERGY PREDICTED BY IDOCK:   -5.42 KCAL/MOL
REMARK 922        TOTAL FREE ENERGY PREDICTED BY IDOCK:   -9.92 KCAL/MOL
REMARK 923 INTER-LIGAND FREE ENERGY PREDICTED BY IDOCK:   -8.74 KCAL/MOL
REMARK 924 INTRA-LIGAND FREE ENERGY PREDICTED BY IDOCK:   -1.19 KCAL/MOL
REMARK 927      BINDING AFFINITY PREDICTED BY RF-SCORE:    0.00 PKD
ROOT
HETATM    1  C   UNL     1      -9.683  11.350  63.073  1.00  0.00    -0.393 C  
HETATM    2  C   UNL     1     -10.610  11.196  64.270  1.00  0.00    -0.425 C  
ENDROOT
BRANCH   2   3
HETATM    3  C   UNL     1     -11.673  12.293  64.290  1.00  0.00    -0.381 C  
BRANCH   3   4
HETATM    4  N   UNL     1     -11.879  12.752  65.662  1.00  0.00    -0.402 NA 
HETATM    5  H   UNL     1     -11.049  12.613  66.239  1.00  0.00     0.000 HD 
BRANCH   4   6
HETATM    6  C   UNL     1     -12.321  14.154  65.668  1.00  0.00    -0.456 C  
BRANCH   6   7
HETATM    7  C   UNL     1     -11.664  14.945  64.523  1.00  0.00    -0.382 C  
HETATM    8  O   UNL     1     -12.660  15.429  63.609  1.00  0.00    -0.815 OA 
HETATM    9  H   UNL     1     -12.254  15.918  62.903  1.00  0.00     0.000 HD 
BRANCH   7  10
HETATM   10  C   UNL     1     -10.856  16.129  65.069  1.00  0.00    -0.363 C  
BRANCH  10  11
HETATM   11  O   UNL     1     -11.021  16.206  66.498  1.00  0.00    -0.205 OA 
BRANCH  11  12
HETATM   12  C   UNL     1     -10.029  16.881  67.163  1.00  0.00    -0.276 A  
HETATM   13  C   UNL     1      -9.100  16.157  67.939  1.00  0.00    -0.192 A  
HETATM   14  C   UNL     1      -9.958  18.282  67.144  1.00  0.00    -0.345 A  
HETATM   15  C   UNL     1      -8.087  16.852  68.621  1.00  0.00    -0.253 A  
HETATM   16  C   UNL     1      -8.957  18.958  67.841  1.00  0.00    -0.328 A  
HETATM   17  C   UNL     1      -8.019  18.245  68.576  1.00  0.00    -0.324 A  
BRANCH  13  18
HETATM   18  C   UNL     1      -9.142  14.661  68.038  1.00  0.00    -0.189 C  
HETATM   19  O   UNL     1      -8.568  13.967  67.203  1.00  0.00    -0.205 OA 
BRANCH  18  20
HETATM   20  C   UNL     1      -9.836  14.015  69.230  1.00  0.00     0.227 C  
BRANCH  20  21
HETATM   21  C   UNL     1     -11.311  13.733  68.960  1.00  0.00    -0.333 C  
BRANCH  21  22
HETATM   22  C   UNL     1     -11.904  12.765  69.955  1.00  0.00    -0.352 A  
HETATM   23  C   UNL     1     -12.637  13.233  71.056  1.00  0.00    -0.408 A  
HETATM   24  C   UNL     1     -13.206  12.336  71.962  1.00  0.00    -0.508 A  
HETATM   25  C   UNL     1     -13.045  10.964  71.780  1.00  0.00    -0.564 A  
HETATM   26  C   UNL     1     -12.307  10.489  70.697  1.00  0.00    -0.449 A  
HETATM   27  C   UNL     1     -11.736  11.384  69.791  1.00  0.00    -0.418 A  
ENDBRANCH  21  22
ENDBRANCH  20  21
ENDBRANCH  18  20
ENDBRANCH  13  18
ENDBRANCH  11  12
ENDBRANCH  10  11
ENDBRANCH   7  10
ENDBRANCH   6   7
ENDBRANCH   4   6
ENDBRANCH   3   4
ENDBRANCH   2   3
TORSDOF 11
ENDMDL
MODEL      100
REMARK 921   NORMALIZED FREE ENERGY PREDICTED BY IDOCK:   -5.40 KCAL/MOL
REMARK 922        TOTAL FREE ENERGY PREDICTED BY IDOCK:   -9.89 KCAL/MOL
REMARK 923 INTER-LIGAND FREE ENERGY PREDICTED BY IDOCK:   -8.86 KCAL/MOL
REMARK 924 INTRA-LIGAND FREE ENERGY PREDICTED BY IDOCK:   -1.03 KCAL/MOL
REMARK 927      BINDING AFFINITY PREDICTED BY RF-SCORE:    0.00 PKD
ROOT
HETATM    1  C   UNL     1      -9.283  10.074  63.628  1.00  0.00    -0.314 C  
HETATM    2  C   UNL     1      -9.710  11.452  63.148  1.00  0.00    -0.413 C  
ENDROOT
BRANCH   2   3
HETATM    3  C   UNL     1     -11.041  11.867  63.773  1.00  0.00    -0.436 C  
BRANCH   3   4
HETATM    4  N   UNL     1     -10.819  12.948  64.731  1.00  0.00    -0.310 NA 
HETATM    5  H   UNL     1     -11.696  13.319  65.097  1.00  0.00     0.000 HD 
BRANCH   4   6
HETATM    6  C   UNL     1      -9.924  12.497  65.806  1.00  0.00    -0.259 C  
BRANCH   6   7
HETATM    7  C   UNL     1     -10.724  11.896  66.976  1.00  0.00    -0.240 C  
HETATM    8  O   UNL     1     -12.117  12.222  66.853  1.00  0.00    -0.583 OA 
HETATM    9  H   UNL     1     -12.610  11.851  67.575  1.00  0.00     0.000 HD 
BRANCH   7  10
HETATM   10  C   UNL     1     -10.561  10.372  67.024  1.00  0.00    -0.245 C  
BRANCH  10  11
HETATM   11  O   UNL     1     -10.397   9.948  68.391  1.00  0.00    -0.180 OA 
BRANCH  11  12
HETATM   12  C   UNL     1     -10.603   8.611  68.615  1.00  0.00    -0.129 A  
HETATM   13  C   UNL     1     -10.744   8.144  69.939  1.00  0.00    -0.241 A  
HETATM   14  C   UNL     1     -10.609   7.685  67.561  1.00  0.00    -0.323 A  
HETATM   15  C   UNL     1     -10.953   6.773  70.164  1.00  0.00    -0.340 A  
HETATM   16  C   UNL     1     -10.798   6.325  67.803  1.00  0.00    -0.424 A  
HETATM   17  C   UNL     1     -10.975   5.869  69.102  1.00  0.00    -0.382 A  
BRANCH  13  18
HETATM   18  C   UNL     1     -10.706   9.072  71.116  1.00  0.00    -0.288 C  
HETATM   19  O   UNL     1      -9.638   9.537  71.507  1.00  0.00    -0.207 OA 
BRANCH  18  20
HETATM   20  C   UNL     1     -12.016   9.497  71.769  1.00  0.00    -0.443 C  
BRANCH  20  21
HETATM   21  C   UNL     1     -12.888  10.328  70.834  1.00  0.00    -0.463 C  
BRANCH  21  22
HETATM   22  C   UNL     1     -12.762  11.810  71.092  1.00  0.00    -0.405 A  
HETATM   23  C   UNL     1     -11.973  12.615  70.257  1.00  0.00    -0.363 A  
HETATM   24  C   UNL     1     -11.877  13.990  70.483  1.00  0.00    -0.339 A  
HETATM   25  C   UNL     1     -12.562  14.572  71.547  1.00  0.00    -0.419 A  
HETATM   26  C   UNL     1     -13.337  13.778  72.391  1.00  0.00    -0.635 A  
HETATM   27  C   UNL     1     -13.434  12.403  72.168  1.00  0.00    -0.481 A  
ENDBRANCH  21  22
ENDBRANCH  20  21
ENDBRANCH  18  20
ENDBRANCH  13  18
ENDBRANCH  11  12
ENDBRANCH  10  11
ENDBRANCH   7  10
ENDBRANCH   6   7
ENDBRANCH   4   6
ENDBRANCH   3   4
ENDBRANCH   2   3
TORSDOF 11
ENDMDL
MODEL      101
REMARK 921   NORMALIZED FREE ENERGY PREDICTED BY IDOCK:   -5.38 KCAL/MOL
REMARK 922        TOTAL FREE ENERGY PREDICTED BY IDOCK:   -9.86 KCAL/MOL
REMARK 923 INTER-LIGAND FREE ENERGY PREDICTED BY IDOCK:   -8.65 KCAL/MOL
REMARK 924 INTRA-LIGAND FREE ENERGY PREDICTED BY IDOCK:   -1.21 KCAL/MOL
REMARK 927      BINDING AFFINITY PREDICTED BY RF-SCORE:    0.00 PKD
ROOT
HETATM    1  C   UNL     1     -10.237   5.402  69.120  1.00  0.00    -0.302 C  
HETATM    2  C   UNL     1     -10.827   5.592  70.509  1.00  0.00    -0.315 C  
ENDROOT
BRANCH   2   3
HETATM    3  C   UNL     1     -11.667   6.867  70.583  1.00  0.00    -0.367 C  
BRANCH   3   4
HETATM    4  N   UNL     1     -11.119   7.869  69.670  1.00  0.00    -0.441 NA 
HETATM    5  H   UNL     1     -11.705   7.992  68.844  1.00  0.00     0.000 HD 
BRANCH   4   6
HETATM    6  C   UNL     1     -10.900   9.137  70.380  1.00  0.00    -0.242 C  
BRANCH   6   7
HETATM    7  C   UNL     1     -11.589  10.305  69.652  1.00  0.00    -0.201 C  
HETATM    8  O   UNL     1     -11.482  11.512  70.422  1.00  0.00    -0.495 OA 
HETATM    9  H   UNL     1     -11.908  12.232  69.972  1.00  0.00     0.000 HD 
BRANCH   7  10
HETATM   10  C   UNL     1     -10.970  10.529  68.267  1.00  0.00    -0.263 C  
BRANCH  10  11
HETATM   11  O   UNL     1     -10.621  11.918  68.115  1.00  0.00    -0.194 OA 
BRANCH  11  12
HETATM   12  C   UNL     1     -11.092  12.516  66.975  1.00  0.00    -0.281 A  
HETATM   13  C   UNL     1     -11.800  13.732  67.072  1.00  0.00    -0.445 A  
HETATM   14  C   UNL     1     -10.944  11.911  65.717  1.00  0.00    -0.359 A  
HETATM   15  C   UNL     1     -12.283  14.340  65.901  1.00  0.00    -0.422 A  
HETATM   16  C   UNL     1     -11.446  12.518  64.567  1.00  0.00    -0.391 A  
HETATM   17  C   UNL     1     -12.111  13.734  64.656  1.00  0.00    -0.452 A  
BRANCH  13  18
HETATM   18  C   UNL     1     -12.030  14.414  68.387  1.00  0.00    -0.293 C  
HETATM   19  O   UNL     1     -12.499  13.790  69.337  1.00  0.00    -0.255 OA 
BRANCH  18  20
HETATM   20  C   UNL     1     -11.599  15.865  68.557  1.00  0.00    -0.351 C  
BRANCH  20  21
HETATM   21  C   UNL     1     -10.107  16.060  68.309  1.00  0.00    -0.229 C  
BRANCH  21  22
HETATM   22  C   UNL     1      -9.772  17.467  67.876  1.00  0.00    -0.278 A  
HETATM   23  C   UNL     1     -10.598  18.149  66.970  1.00  0.00    -0.346 A  
HETATM   24  C   UNL     1     -10.301  19.459  66.589  1.00  0.00    -0.555 A  
HETATM   25  C   UNL     1      -9.176  20.098  67.105  1.00  0.00    -0.506 A  
HETATM   26  C   UNL     1      -8.342  19.425  67.996  1.00  0.00    -0.354 A  
HETATM   27  C   UNL     1      -8.636  18.114  68.377  1.00  0.00    -0.310 A  
ENDBRANCH  21  22
ENDBRANCH  20  21
ENDBRANCH  18  20
ENDBRANCH  13  18
ENDBRANCH  11  12
ENDBRANCH  10  11
ENDBRANCH   7  10
ENDBRANCH   6   7
ENDBRANCH   4   6
ENDBRANCH   3   4
ENDBRANCH   2   3
TORSDOF 11
ENDMDL
MODEL      102
REMARK 921   NORMALIZED FREE ENERGY PREDICTED BY IDOCK:   -5.38 KCAL/MOL
REMARK 922        TOTAL FREE ENERGY PREDICTED BY IDOCK:   -9.85 KCAL/MOL
REMARK 923 INTER-LIGAND FREE ENERGY PREDICTED BY IDOCK:   -8.48 KCAL/MOL
REMARK 924 INTRA-LIGAND FREE ENERGY PREDICTED BY IDOCK:   -1.37 KCAL/MOL
REMARK 927      BINDING AFFINITY PREDICTED BY RF-SCORE:    0.00 PKD
ROOT
HETATM    1  C   UNL     1      -6.473  16.431  68.940  1.00  0.00    -0.152 C  
HETATM    2  C   UNL     1      -7.126  17.802  69.029  1.00  0.00    -0.229 C  
ENDROOT
BRANCH   2   3
HETATM    3  C   UNL     1      -8.005  18.075  67.809  1.00  0.00    -0.235 C  
BRANCH   3   4
HETATM    4  N   UNL     1      -8.661  16.838  67.389  1.00  0.00    -0.190 NA 
HETATM    5  H   UNL     1      -9.416  16.573  68.023  1.00  0.00     0.000 HD 
BRANCH   4   6
HETATM    6  C   UNL     1      -9.127  16.956  66.001  1.00  0.00    -0.164 C  
BRANCH   6   7
HETATM    7  C   UNL     1     -10.652  16.766  65.911  1.00  0.00    -0.248 C  
HETATM    8  O   UNL     1     -11.107  16.979  64.566  1.00  0.00    -1.098 OA 
HETATM    9  H   UNL     1     -12.048  16.862  64.511  1.00  0.00     0.000 HD 
BRANCH   7  10
HETATM   10  C   UNL     1     -11.056  15.359  66.368  1.00  0.00    -0.230 C  
BRANCH  10  11
HETATM   11  O   UNL     1      -9.926  14.472  66.251  1.00  0.00    -0.279 OA 
BRANCH  11  12
HETATM   12  C   UNL     1     -10.170  13.304  65.575  1.00  0.00    -0.290 A  
HETATM   13  C   UNL     1      -9.664  12.091  66.084  1.00  0.00    -0.254 A  
HETATM   14  C   UNL     1     -10.856  13.297  64.351  1.00  0.00    -0.422 A  
HETATM   15  C   UNL     1      -9.914  10.896  65.388  1.00  0.00    -0.319 A  
HETATM   16  C   UNL     1     -11.080  12.106  63.662  1.00  0.00    -0.528 A  
HETATM   17  C   UNL     1     -10.615  10.905  64.181  1.00  0.00    -0.327 A  
BRANCH  13  18
HETATM   18  C   UNL     1      -8.887  12.030  67.366  1.00  0.00    -0.178 C  
HETATM   19  O   UNL     1      -7.662  11.940  67.346  1.00  0.00    -0.139 OA 
BRANCH  18  20
HETATM   20  C   UNL     1      -9.628  12.164  68.690  1.00  0.00    -0.068 C  
BRANCH  20  21
HETATM   21  C   UNL     1     -11.121  11.884  68.550  1.00  0.00    -0.290 C  
BRANCH  21  22
HETATM   22  C   UNL     1     -11.898  12.264  69.788  1.00  0.00    -0.388 A  
HETATM   23  C   UNL     1     -12.385  11.275  70.656  1.00  0.00    -0.477 A  
HETATM   24  C   UNL     1     -13.082  11.629  71.813  1.00  0.00    -0.487 A  
HETATM   25  C   UNL     1     -13.304  12.971  72.111  1.00  0.00    -0.622 A  
HETATM   26  C   UNL     1     -12.835  13.961  71.249  1.00  0.00    -0.435 A  
HETATM   27  C   UNL     1     -12.139  13.610  70.090  1.00  0.00    -0.431 A  
ENDBRANCH  21  22
ENDBRANCH  20  21
ENDBRANCH  18  20
ENDBRANCH  13  18
ENDBRANCH  11  12
ENDBRANCH  10  11
ENDBRANCH   7  10
ENDBRANCH   6   7
ENDBRANCH   4   6
ENDBRANCH   3   4
ENDBRANCH   2   3
TORSDOF 11
ENDMDL
MODEL      103
REMARK 921   NORMALIZED FREE ENERGY PREDICTED BY IDOCK:   -5.36 KCAL/MOL
REMARK 922        TOTAL FREE ENERGY PREDICTED BY IDOCK:   -9.82 KCAL/MOL
REMARK 923 INTER-LIGAND FREE ENERGY PREDICTED BY IDOCK:   -8.05 KCAL/MOL
REMARK 924 INTRA-LIGAND FREE ENERGY PREDICTED BY IDOCK:   -1.77 KCAL/MOL
REMARK 927      BINDING AFFINITY PREDICTED BY RF-SCORE:    0.00 PKD
ROOT
HETATM    1  C   UNL     1     -13.103   9.673  71.301  1.00  0.00    -0.437 C  
HETATM    2  C   UNL     1     -11.854   9.668  70.432  1.00  0.00    -0.219 C  
ENDROOT
BRANCH   2   3
HETATM    3  C   UNL     1     -11.767  10.935  69.583  1.00  0.00    -0.331 C  
BRANCH   3   4
HETATM    4  N   UNL     1     -12.009  10.604  68.180  1.00  0.00    -0.783 NA 
HETATM    5  H   UNL     1     -12.772  11.154  67.785  1.00  0.00     0.000 HD 
BRANCH   4   6
HETATM    6  C   UNL     1     -10.770  10.747  67.403  1.00  0.00    -0.268 C  
BRANCH   6   7
HETATM    7  C   UNL     1     -10.953  11.751  66.251  1.00  0.00    -0.300 C  
HETATM    8  O   UNL     1     -12.332  12.130  66.128  1.00  0.00    -0.536 OA 
HETATM    9  H   UNL     1     -12.444  12.749  65.416  1.00  0.00     0.000 HD 
BRANCH   7  10
HETATM   10  C   UNL     1     -10.099  13.005  66.477  1.00  0.00    -0.270 C  
BRANCH  10  11
HETATM   11  O   UNL     1      -9.732  13.093  67.867  1.00  0.00    -0.208 OA 
BRANCH  11  12
HETATM   12  C   UNL     1     -10.287  14.145  68.551  1.00  0.00    -0.249 A  
HETATM   13  C   UNL     1      -9.459  15.197  68.993  1.00  0.00    -0.221 A  
HETATM   14  C   UNL     1     -11.651  14.165  68.880  1.00  0.00    -0.345 A  
HETATM   15  C   UNL     1     -10.031  16.272  69.695  1.00  0.00    -0.137 A  
HETATM   16  C   UNL     1     -12.199  15.230  69.594  1.00  0.00    -0.304 A  
HETATM   17  C   UNL     1     -11.393  16.285  69.997  1.00  0.00    -0.276 A  
BRANCH  13  18
HETATM   18  C   UNL     1      -7.986  15.220  68.712  1.00  0.00    -0.158 C  
HETATM   19  O   UNL     1      -7.182  14.892  69.582  1.00  0.00    -0.174 OA 
BRANCH  18  20
HETATM   20  C   UNL     1      -7.502  15.574  67.312  1.00  0.00    -0.258 C  
BRANCH  20  21
HETATM   21  C   UNL     1      -7.104  17.042  67.190  1.00  0.00    -0.210 C  
BRANCH  21  22
HETATM   22  C   UNL     1      -8.294  17.970  67.257  1.00  0.00    -0.234 A  
HETATM   23  C   UNL     1      -9.371  17.812  66.372  1.00  0.00    -0.264 A  
HETATM   24  C   UNL     1     -10.481  18.656  66.450  1.00  0.00    -0.463 A  
HETATM   25  C   UNL     1     -10.524  19.666  67.408  1.00  0.00    -0.596 A  
HETATM   26  C   UNL     1      -9.453  19.839  68.283  1.00  0.00    -0.440 A  
HETATM   27  C   UNL     1      -8.341  18.998  68.206  1.00  0.00    -0.369 A  
ENDBRANCH  21  22
ENDBRANCH  20  21
ENDBRANCH  18  20
ENDBRANCH  13  18
ENDBRANCH  11  12
ENDBRANCH  10  11
ENDBRANCH   7  10
ENDBRANCH   6   7
ENDBRANCH   4   6
ENDBRANCH   3   4
ENDBRANCH   2   3
TORSDOF 11
ENDMDL
MODEL      104
REMARK 921   NORMALIZED FREE ENERGY PREDICTED BY IDOCK:   -5.36 KCAL/MOL
REMARK 922        TOTAL FREE ENERGY PREDICTED BY IDOCK:   -9.82 KCAL/MOL
REMARK 923 INTER-LIGAND FREE ENERGY PREDICTED BY IDOCK:   -7.95 KCAL/MOL
REMARK 924 INTRA-LIGAND FREE ENERGY PREDICTED BY IDOCK:   -1.88 KCAL/MOL
REMARK 927      BINDING AFFINITY PREDICTED BY RF-SCORE:    0.00 PKD
ROOT
HETATM    1  C   UNL     1      -9.247   8.671  65.594  1.00  0.00    -0.204 C  
HETATM    2  C   UNL     1      -9.796  10.046  65.248  1.00  0.00    -0.388 C  
ENDROOT
BRANCH   2   3
HETATM    3  C   UNL     1      -9.775  10.287  63.740  1.00  0.00    -0.235 C  
BRANCH   3   4
HETATM    4  N   UNL     1     -10.935  11.089  63.354  1.00  0.00    -0.691 NA 
HETATM    5  H   UNL     1     -11.799  10.728  63.758  1.00  0.00     0.000 HD 
BRANCH   4   6
HETATM    6  C   UNL     1     -10.715  12.500  63.699  1.00  0.00    -0.430 C  
BRANCH   6   7
HETATM    7  C   UNL     1     -12.041  13.282  63.700  1.00  0.00    -0.485 C  
HETATM    8  O   UNL     1     -13.121  12.440  64.131  1.00  0.00    -0.762 OA 
HETATM    9  H   UNL     1     -13.939  12.922  64.132  1.00  0.00     0.000 HD 
BRANCH   7  10
HETATM   10  C   UNL     1     -11.954  14.507  64.618  1.00  0.00    -0.468 C  
BRANCH  10  11
HETATM   11  O   UNL     1     -10.772  14.411  65.437  1.00  0.00    -0.308 OA 
BRANCH  11  12
HETATM   12  C   UNL     1     -10.885  14.959  66.689  1.00  0.00    -0.319 A  
HETATM   13  C   UNL     1     -11.195  14.126  67.784  1.00  0.00    -0.307 A  
HETATM   14  C   UNL     1     -10.766  16.342  66.896  1.00  0.00    -0.217 A  
HETATM   15  C   UNL     1     -11.312  14.692  69.065  1.00  0.00    -0.299 A  
HETATM   16  C   UNL     1     -10.904  16.890  68.170  1.00  0.00    -0.351 A  
HETATM   17  C   UNL     1     -11.172  16.066  69.256  1.00  0.00    -0.346 A  
BRANCH  13  18
HETATM   18  C   UNL     1     -11.376  12.646  67.629  1.00  0.00    -0.310 C  
HETATM   19  O   UNL     1     -12.371  12.197  67.064  1.00  0.00    -0.379 OA 
BRANCH  18  20
HETATM   20  C   UNL     1     -10.273  11.709  68.105  1.00  0.00    -0.206 C  
BRANCH  20  21
HETATM   21  C   UNL     1     -10.706  10.863  69.299  1.00  0.00    -0.271 C  
BRANCH  21  22
HETATM   22  C   UNL     1      -9.991   9.534  69.354  1.00  0.00    -0.199 A  
HETATM   23  C   UNL     1      -8.656   9.460  69.776  1.00  0.00    -0.182 A  
HETATM   24  C   UNL     1      -8.004   8.227  69.849  1.00  0.00    -0.108 A  
HETATM   25  C   UNL     1      -8.676   7.059  69.498  1.00  0.00    -0.134 A  
HETATM   26  C   UNL     1      -9.999   7.124  69.064  1.00  0.00    -0.174 A  
HETATM   27  C   UNL     1     -10.653   8.355  68.988  1.00  0.00    -0.172 A  
ENDBRANCH  21  22
ENDBRANCH  20  21
ENDBRANCH  18  20
ENDBRANCH  13  18
ENDBRANCH  11  12
ENDBRANCH  10  11
ENDBRANCH   7  10
ENDBRANCH   6   7
ENDBRANCH   4   6
ENDBRANCH   3   4
ENDBRANCH   2   3
TORSDOF 11
ENDMDL
MODEL      105
REMARK 921   NORMALIZED FREE ENERGY PREDICTED BY IDOCK:   -5.35 KCAL/MOL
REMARK 922        TOTAL FREE ENERGY PREDICTED BY IDOCK:   -9.81 KCAL/MOL
REMARK 923 INTER-LIGAND FREE ENERGY PREDICTED BY IDOCK:   -8.54 KCAL/MOL
REMARK 924 INTRA-LIGAND FREE ENERGY PREDICTED BY IDOCK:   -1.28 KCAL/MOL
REMARK 927      BINDING AFFINITY PREDICTED BY RF-SCORE:    0.00 PKD
ROOT
HETATM    1  C   UNL     1     -10.482   5.703  69.779  1.00  0.00    -0.377 C  
HETATM    2  C   UNL     1     -10.617   7.195  69.517  1.00  0.00    -0.247 C  
ENDROOT
BRANCH   2   3
HETATM    3  C   UNL     1     -10.391   8.003  70.794  1.00  0.00    -0.199 C  
BRANCH   3   4
HETATM    4  N   UNL     1     -10.921   9.354  70.620  1.00  0.00    -0.265 NA 
HETATM    5  H   UNL     1     -10.958   9.865  71.503  1.00  0.00     0.000 HD 
BRANCH   4   6
HETATM    6  C   UNL     1     -10.147  10.077  69.601  1.00  0.00    -0.236 C  
BRANCH   6   7
HETATM    7  C   UNL     1     -11.074  10.867  68.661  1.00  0.00    -0.252 C  
HETATM    8  O   UNL     1     -12.447  10.693  69.044  1.00  0.00    -0.777 OA 
HETATM    9  H   UNL     1     -13.019  11.181  68.463  1.00  0.00     0.000 HD 
BRANCH   7  10
HETATM   10  C   UNL     1     -10.727  12.361  68.677  1.00  0.00    -0.232 C  
BRANCH  10  11
HETATM   11  O   UNL     1     -11.464  13.038  67.641  1.00  0.00    -0.285 OA 
BRANCH  11  12
HETATM   12  C   UNL     1     -10.896  14.200  67.186  1.00  0.00    -0.290 A  
HETATM   13  C   UNL     1     -11.312  14.738  65.951  1.00  0.00    -0.331 A  
HETATM   14  C   UNL     1      -9.859  14.832  67.890  1.00  0.00    -0.212 A  
HETATM   15  C   UNL     1     -10.726  15.928  65.487  1.00  0.00    -0.386 A  
HETATM   16  C   UNL     1      -9.274  16.002  67.407  1.00  0.00    -0.214 A  
HETATM   17  C   UNL     1      -9.709  16.553  66.210  1.00  0.00    -0.328 A  
BRANCH  13  18
HETATM   18  C   UNL     1     -12.386  14.093  65.126  1.00  0.00    -0.451 C  
HETATM   19  O   UNL     1     -13.535  14.016  65.552  1.00  0.00    -0.677 OA 
BRANCH  18  20
HETATM   20  C   UNL     1     -12.052  13.608  63.720  1.00  0.00    -0.435 C  
BRANCH  20  21
HETATM   21  C   UNL     1     -12.168  12.093  63.587  1.00  0.00    -0.663 C  
BRANCH  21  22
HETATM   22  C   UNL     1     -10.840  11.395  63.766  1.00  0.00    -0.468 A  
HETATM   23  C   UNL     1     -10.529  10.754  64.974  1.00  0.00    -0.307 A  
HETATM   24  C   UNL     1      -9.312  10.089  65.130  1.00  0.00    -0.302 A  
HETATM   25  C   UNL     1      -8.392  10.061  64.084  1.00  0.00    -0.167 A  
HETATM   26  C   UNL     1      -8.687  10.706  62.884  1.00  0.00    -0.229 A  
HETATM   27  C   UNL     1      -9.903  11.374  62.726  1.00  0.00    -0.208 A  
ENDBRANCH  21  22
ENDBRANCH  20  21
ENDBRANCH  18  20
ENDBRANCH  13  18
ENDBRANCH  11  12
ENDBRANCH  10  11
ENDBRANCH   7  10
ENDBRANCH   6   7
ENDBRANCH   4   6
ENDBRANCH   3   4
ENDBRANCH   2   3
TORSDOF 11
ENDMDL
MODEL      106
REMARK 921   NORMALIZED FREE ENERGY PREDICTED BY IDOCK:   -5.34 KCAL/MOL
REMARK 922        TOTAL FREE ENERGY PREDICTED BY IDOCK:   -9.78 KCAL/MOL
REMARK 923 INTER-LIGAND FREE ENERGY PREDICTED BY IDOCK:   -8.34 KCAL/MOL
REMARK 924 INTRA-LIGAND FREE ENERGY PREDICTED BY IDOCK:   -1.45 KCAL/MOL
REMARK 927      BINDING AFFINITY PREDICTED BY RF-SCORE:    0.00 PKD
ROOT
HETATM    1  C   UNL     1      -6.875   8.084  73.447  1.00  0.00    -0.120 C  
HETATM    2  C   UNL     1      -7.971   7.038  73.311  1.00  0.00    -0.110 C  
ENDROOT
BRANCH   2   3
HETATM    3  C   UNL     1      -9.134   7.329  74.258  1.00  0.00    -0.204 C  
BRANCH   3   4
HETATM    4  N   UNL     1     -10.391   6.921  73.633  1.00  0.00    -0.332 NA 
HETATM    5  H   UNL     1     -11.036   7.705  73.527  1.00  0.00     0.000 HD 
BRANCH   4   6
HETATM    6  C   UNL     1     -10.128   6.250  72.353  1.00  0.00    -0.177 C  
BRANCH   6   7
HETATM    7  C   UNL     1     -11.442   5.852  71.657  1.00  0.00    -0.172 C  
HETATM    8  O   UNL     1     -12.500   5.720  72.619  1.00  0.00    -0.511 OA 
HETATM    9  H   UNL     1     -13.311   5.474  72.189  1.00  0.00     0.000 HD 
BRANCH   7  10
HETATM   10  C   UNL     1     -11.840   6.891  70.603  1.00  0.00    -0.368 C  
BRANCH  10  11
HETATM   11  O   UNL     1     -10.979   8.041  70.711  1.00  0.00    -0.239 OA 
BRANCH  11  12
HETATM   12  C   UNL     1     -11.622   9.232  70.931  1.00  0.00    -0.301 A  
HETATM   13  C   UNL     1     -11.266  10.363  70.168  1.00  0.00    -0.393 A  
HETATM   14  C   UNL     1     -12.582   9.368  71.946  1.00  0.00    -0.481 A  
HETATM   15  C   UNL     1     -11.927  11.582  70.397  1.00  0.00    -0.459 A  
HETATM   16  C   UNL     1     -13.215  10.590  72.174  1.00  0.00    -0.398 A  
HETATM   17  C   UNL     1     -12.892  11.695  71.398  1.00  0.00    -0.461 A  
BRANCH  13  18
HETATM   18  C   UNL     1     -10.220  10.299  69.095  1.00  0.00    -0.218 C  
HETATM   19  O   UNL     1      -9.030  10.411  69.380  1.00  0.00    -0.194 OA 
BRANCH  18  20
HETATM   20  C   UNL     1     -10.644  10.012  67.660  1.00  0.00    -0.323 C  
BRANCH  20  21
HETATM   21  C   UNL     1      -9.872  10.853  66.648  1.00  0.00    -0.237 C  
BRANCH  21  22
HETATM   22  C   UNL     1     -10.782  11.573  65.682  1.00  0.00    -0.323 A  
HETATM   23  C   UNL     1     -10.662  11.365  64.300  1.00  0.00    -0.420 A  
HETATM   24  C   UNL     1     -11.520  12.013  63.409  1.00  0.00    -0.489 A  
HETATM   25  C   UNL     1     -12.501  12.877  63.888  1.00  0.00    -0.417 A  
HETATM   26  C   UNL     1     -12.620  13.100  65.258  1.00  0.00    -0.531 A  
HETATM   27  C   UNL     1     -11.763  12.455  66.152  1.00  0.00    -0.460 A  
ENDBRANCH  21  22
ENDBRANCH  20  21
ENDBRANCH  18  20
ENDBRANCH  13  18
ENDBRANCH  11  12
ENDBRANCH  10  11
ENDBRANCH   7  10
ENDBRANCH   6   7
ENDBRANCH   4   6
ENDBRANCH   3   4
ENDBRANCH   2   3
TORSDOF 11
ENDMDL
MODEL      107
REMARK 921   NORMALIZED FREE ENERGY PREDICTED BY IDOCK:   -5.33 KCAL/MOL
REMARK 922        TOTAL FREE ENERGY PREDICTED BY IDOCK:   -9.77 KCAL/MOL
REMARK 923 INTER-LIGAND FREE ENERGY PREDICTED BY IDOCK:   -8.10 KCAL/MOL
REMARK 924 INTRA-LIGAND FREE ENERGY PREDICTED BY IDOCK:   -1.67 KCAL/MOL
REMARK 927      BINDING AFFINITY PREDICTED BY RF-SCORE:    0.00 PKD
ROOT
HETATM    1  C   UNL     1     -10.285  18.439  67.307  1.00  0.00    -0.396 C  
HETATM    2  C   UNL     1     -10.736  18.044  65.909  1.00  0.00    -0.124 C  
ENDROOT
BRANCH   2   3
HETATM    3  C   UNL     1     -10.510  16.554  65.655  1.00  0.00    -0.324 C  
BRANCH   3   4
HETATM    4  N   UNL     1     -10.972  16.209  64.312  1.00  0.00    -1.066 NA 
HETATM    5  H   UNL     1     -10.236  15.772  63.757  1.00  0.00     0.000 HD 
BRANCH   4   6
HETATM    6  C   UNL     1     -12.174  15.367  64.389  1.00  0.00    -0.151 C  
BRANCH   6   7
HETATM    7  C   UNL     1     -11.811  13.874  64.283  1.00  0.00    -0.412 C  
HETATM    8  O   UNL     1     -10.392  13.692  64.406  1.00  0.00    -0.559 OA 
HETATM    9  H   UNL     1     -10.168  12.771  64.340  1.00  0.00     0.000 HD 
BRANCH   7  10
HETATM   10  C   UNL     1     -12.524  13.059  65.368  1.00  0.00    -0.476 C  
BRANCH  10  11
HETATM   11  O   UNL     1     -11.559  12.590  66.330  1.00  0.00    -0.351 OA 
BRANCH  11  12
HETATM   12  C   UNL     1     -11.303  13.451  67.366  1.00  0.00    -0.309 A  
HETATM   13  C   UNL     1     -10.072  13.367  68.048  1.00  0.00    -0.241 A  
HETATM   14  C   UNL     1     -12.267  14.370  67.808  1.00  0.00    -0.190 A  
HETATM   15  C   UNL     1      -9.815  14.250  69.111  1.00  0.00     0.006 A  
HETATM   16  C   UNL     1     -12.004  15.226  68.877  1.00  0.00    -0.292 A  
HETATM   17  C   UNL     1     -10.777  15.170  69.525  1.00  0.00    -0.273 A  
BRANCH  13  18
HETATM   18  C   UNL     1      -9.012  12.381  67.656  1.00  0.00    -0.183 C  
HETATM   19  O   UNL     1      -8.310  12.584  66.668  1.00  0.00    -0.096 OA 
BRANCH  18  20
HETATM   20  C   UNL     1      -8.762  11.168  68.543  1.00  0.00    -0.161 C  
BRANCH  20  21
HETATM   21  C   UNL     1      -9.842  10.102  68.385  1.00  0.00    -0.164 C  
BRANCH  21  22
HETATM   22  C   UNL     1     -10.750  10.018  69.588  1.00  0.00    -0.282 A  
HETATM   23  C   UNL     1     -10.486   9.103  70.618  1.00  0.00    -0.305 A  
HETATM   24  C   UNL     1     -11.313   9.044  71.742  1.00  0.00    -0.447 A  
HETATM   25  C   UNL     1     -12.413   9.892  71.845  1.00  0.00    -0.435 A  
HETATM   26  C   UNL     1     -12.692  10.795  70.820  1.00  0.00    -0.451 A  
HETATM   27  C   UNL     1     -11.867  10.856  69.695  1.00  0.00    -0.416 A  
ENDBRANCH  21  22
ENDBRANCH  20  21
ENDBRANCH  18  20
ENDBRANCH  13  18
ENDBRANCH  11  12
ENDBRANCH  10  11
ENDBRANCH   7  10
ENDBRANCH   6   7
ENDBRANCH   4   6
ENDBRANCH   3   4
ENDBRANCH   2   3
TORSDOF 11
ENDMDL
MODEL      108
REMARK 921   NORMALIZED FREE ENERGY PREDICTED BY IDOCK:   -5.32 KCAL/MOL
REMARK 922        TOTAL FREE ENERGY PREDICTED BY IDOCK:   -9.76 KCAL/MOL
REMARK 923 INTER-LIGAND FREE ENERGY PREDICTED BY IDOCK:   -7.98 KCAL/MOL
REMARK 924 INTRA-LIGAND FREE ENERGY PREDICTED BY IDOCK:   -1.78 KCAL/MOL
REMARK 927      BINDING AFFINITY PREDICTED BY RF-SCORE:    0.00 PKD
ROOT
HETATM    1  C   UNL     1     -12.818  10.777  70.990  1.00  0.00    -0.480 C  
HETATM    2  C   UNL     1     -11.682  11.239  70.090  1.00  0.00    -0.429 C  
ENDROOT
BRANCH   2   3
HETATM    3  C   UNL     1     -12.036  11.057  68.615  1.00  0.00    -0.177 C  
BRANCH   3   4
HETATM    4  N   UNL     1     -12.099  12.362  67.960  1.00  0.00    -0.377 NA 
HETATM    5  H   UNL     1     -11.543  13.062  68.451  1.00  0.00     0.000 HD 
BRANCH   4   6
HETATM    6  C   UNL     1     -11.706  12.242  66.549  1.00  0.00    -0.352 C  
BRANCH   6   7
HETATM    7  C   UNL     1     -10.444  11.374  66.398  1.00  0.00    -0.254 C  
HETATM    8  O   UNL     1     -10.495  10.618  65.178  1.00  0.00    -0.280 OA 
HETATM    9  H   UNL     1      -9.716  10.083  65.086  1.00  0.00     0.000 HD 
BRANCH   7  10
HETATM   10  C   UNL     1      -9.179  12.241  66.406  1.00  0.00    -0.203 C  
BRANCH  10  11
HETATM   11  O   UNL     1      -9.538  13.614  66.653  1.00  0.00    -0.268 OA 
BRANCH  11  12
HETATM   12  C   UNL     1      -8.628  14.332  67.385  1.00  0.00    -0.213 A  
HETATM   13  C   UNL     1      -8.957  15.634  67.816  1.00  0.00    -0.176 A  
HETATM   14  C   UNL     1      -7.347  13.827  67.658  1.00  0.00    -0.182 A  
HETATM   15  C   UNL     1      -8.020  16.367  68.564  1.00  0.00    -0.203 A  
HETATM   16  C   UNL     1      -6.422  14.575  68.385  1.00  0.00    -0.102 A  
HETATM   17  C   UNL     1      -6.758  15.842  68.842  1.00  0.00    -0.126 A  
BRANCH  13  18
HETATM   18  C   UNL     1     -10.292  16.253  67.524  1.00  0.00    -0.288 C  
HETATM   19  O   UNL     1     -10.484  16.846  66.466  1.00  0.00    -0.305 OA 
BRANCH  18  20
HETATM   20  C   UNL     1     -11.430  16.066  68.520  1.00  0.00    -0.357 C  
BRANCH  20  21
HETATM   21  C   UNL     1     -10.962  16.192  69.966  1.00  0.00    -0.364 C  
BRANCH  21  22
HETATM   22  C   UNL     1     -11.988  15.685  70.951  1.00  0.00    -0.440 A  
HETATM   23  C   UNL     1     -12.994  14.798  70.539  1.00  0.00    -0.336 A  
HETATM   24  C   UNL     1     -13.928  14.312  71.456  1.00  0.00    -0.415 A  
HETATM   25  C   UNL     1     -13.870  14.710  72.789  1.00  0.00    -0.381 A  
HETATM   26  C   UNL     1     -12.883  15.601  73.206  1.00  0.00    -0.643 A  
HETATM   27  C   UNL     1     -11.948  16.090  72.291  1.00  0.00    -0.633 A  
ENDBRANCH  21  22
ENDBRANCH  20  21
ENDBRANCH  18  20
ENDBRANCH  13  18
ENDBRANCH  11  12
ENDBRANCH  10  11
ENDBRANCH   7  10
ENDBRANCH   6   7
ENDBRANCH   4   6
ENDBRANCH   3   4
ENDBRANCH   2   3
TORSDOF 11
ENDMDL
MODEL      109
REMARK 921   NORMALIZED FREE ENERGY PREDICTED BY IDOCK:   -5.31 KCAL/MOL
REMARK 922        TOTAL FREE ENERGY PREDICTED BY IDOCK:   -9.73 KCAL/MOL
REMARK 923 INTER-LIGAND FREE ENERGY PREDICTED BY IDOCK:   -9.38 KCAL/MOL
REMARK 924 INTRA-LIGAND FREE ENERGY PREDICTED BY IDOCK:   -0.35 KCAL/MOL
REMARK 927      BINDING AFFINITY PREDICTED BY RF-SCORE:    0.00 PKD
ROOT
HETATM    1  C   UNL     1      -8.322  17.788  66.206  1.00  0.00    -0.240 C  
HETATM    2  C   UNL     1      -9.087  16.479  66.080  1.00  0.00    -0.342 C  
ENDROOT
BRANCH   2   3
HETATM    3  C   UNL     1     -10.543  16.725  65.689  1.00  0.00    -0.246 C  
BRANCH   3   4
HETATM    4  N   UNL     1     -10.856  15.986  64.468  1.00  0.00    -0.883 NA 
HETATM    5  H   UNL     1     -10.014  15.657  63.995  1.00  0.00     0.000 HD 
BRANCH   4   6
HETATM    6  C   UNL     1     -11.784  14.885  64.763  1.00  0.00    -0.402 C  
BRANCH   6   7
HETATM    7  C   UNL     1     -11.027  13.558  64.946  1.00  0.00    -0.352 C  
HETATM    8  O   UNL     1      -9.892  13.500  64.068  1.00  0.00    -0.678 OA 
HETATM    9  H   UNL     1      -9.425  12.681  64.181  1.00  0.00     0.000 HD 
BRANCH   7  10
HETATM   10  C   UNL     1     -10.556  13.392  66.396  1.00  0.00    -0.285 C  
BRANCH  10  11
HETATM   11  O   UNL     1     -11.637  12.878  67.198  1.00  0.00    -0.322 OA 
BRANCH  11  12
HETATM   12  C   UNL     1     -11.828  13.517  68.397  1.00  0.00    -0.373 A  
HETATM   13  C   UNL     1     -12.024  12.752  69.565  1.00  0.00    -0.338 A  
HETATM   14  C   UNL     1     -11.899  14.916  68.477  1.00  0.00    -0.325 A  
HETATM   15  C   UNL     1     -12.221  13.409  70.791  1.00  0.00    -0.409 A  
HETATM   16  C   UNL     1     -12.114  15.553  69.699  1.00  0.00    -0.352 A  
HETATM   17  C   UNL     1     -12.270  14.802  70.856  1.00  0.00    -0.384 A  
BRANCH  13  18
HETATM   18  C   UNL     1     -12.001  11.252  69.545  1.00  0.00    -0.351 C  
HETATM   19  O   UNL     1     -12.171  10.642  68.492  1.00  0.00    -0.382 OA 
BRANCH  18  20
HETATM   20  C   UNL     1     -11.683  10.497  70.830  1.00  0.00    -0.454 C  
BRANCH  20  21
HETATM   21  C   UNL     1     -10.499   9.550  70.668  1.00  0.00    -0.374 C  
BRANCH  21  22
HETATM   22  C   UNL     1     -10.547   8.395  71.639  1.00  0.00    -0.327 A  
HETATM   23  C   UNL     1      -9.624   8.311  72.693  1.00  0.00    -0.352 A  
HETATM   24  C   UNL     1      -9.685   7.255  73.604  1.00  0.00    -0.335 A  
HETATM   25  C   UNL     1     -10.662   6.272  73.470  1.00  0.00    -0.262 A  
HETATM   26  C   UNL     1     -11.575   6.339  72.419  1.00  0.00    -0.325 A  
HETATM   27  C   UNL     1     -11.516   7.393  71.505  1.00  0.00    -0.292 A  
ENDBRANCH  21  22
ENDBRANCH  20  21
ENDBRANCH  18  20
ENDBRANCH  13  18
ENDBRANCH  11  12
ENDBRANCH  10  11
ENDBRANCH   7  10
ENDBRANCH   6   7
ENDBRANCH   4   6
ENDBRANCH   3   4
ENDBRANCH   2   3
TORSDOF 11
ENDMDL
MODEL      110
REMARK 921   NORMALIZED FREE ENERGY PREDICTED BY IDOCK:   -5.30 KCAL/MOL
REMARK 922        TOTAL FREE ENERGY PREDICTED BY IDOCK:   -9.72 KCAL/MOL
REMARK 923 INTER-LIGAND FREE ENERGY PREDICTED BY IDOCK:   -7.60 KCAL/MOL
REMARK 924 INTRA-LIGAND FREE ENERGY PREDICTED BY IDOCK:   -2.12 KCAL/MOL
REMARK 927      BINDING AFFINITY PREDICTED BY RF-SCORE:    0.00 PKD
ROOT
HETATM    1  C   UNL     1     -10.651  11.850  63.423  1.00  0.00    -0.485 C  
HETATM    2  C   UNL     1     -11.856  12.742  63.679  1.00  0.00    -0.603 C  
ENDROOT
BRANCH   2   3
HETATM    3  C   UNL     1     -12.340  12.616  65.122  1.00  0.00    -0.484 C  
BRANCH   3   4
HETATM    4  N   UNL     1     -12.506  13.947  65.703  1.00  0.00    -0.485 NA 
HETATM    5  H   UNL     1     -13.073  13.925  66.551  1.00  0.00     0.000 HD 
BRANCH   4   6
HETATM    6  C   UNL     1     -11.194  14.566  65.938  1.00  0.00    -0.331 C  
BRANCH   6   7
HETATM    7  C   UNL     1     -11.047  15.011  67.404  1.00  0.00    -0.324 C  
HETATM    8  O   UNL     1     -12.330  15.064  68.045  1.00  0.00    -0.512 OA 
HETATM    9  H   UNL     1     -12.239  15.339  68.950  1.00  0.00     0.000 HD 
BRANCH   7  10
HETATM   10  C   UNL     1     -10.132  14.053  68.177  1.00  0.00    -0.244 C  
BRANCH  10  11
HETATM   11  O   UNL     1     -10.368  12.702  67.737  1.00  0.00    -0.212 OA 
BRANCH  11  12
HETATM   12  C   UNL     1     -10.631  11.801  68.737  1.00  0.00    -0.206 A  
HETATM   13  C   UNL     1      -9.761  10.707  68.930  1.00  0.00    -0.210 A  
HETATM   14  C   UNL     1     -11.783  11.904  69.530  1.00  0.00    -0.410 A  
HETATM   15  C   UNL     1     -10.035   9.785  69.955  1.00  0.00    -0.282 A  
HETATM   16  C   UNL     1     -12.051  10.970  70.531  1.00  0.00    -0.470 A  
HETATM   17  C   UNL     1     -11.176   9.914  70.747  1.00  0.00    -0.427 A  
BRANCH  13  18
HETATM   18  C   UNL     1      -8.533  10.512  68.092  1.00  0.00    -0.123 C  
HETATM   19  O   UNL     1      -7.420  10.739  68.559  1.00  0.00    -0.088 OA 
BRANCH  18  20
HETATM   20  C   UNL     1      -8.677   9.951  66.683  1.00  0.00    -0.138 C  
BRANCH  20  21
HETATM   21  C   UNL     1      -8.175   8.514  66.577  1.00  0.00    -0.108 C  
BRANCH  21  22
HETATM   22  C   UNL     1      -9.011   7.549  67.384  1.00  0.00    -0.129 A  
HETATM   23  C   UNL     1      -8.447   6.841  68.455  1.00  0.00    -0.122 A  
HETATM   24  C   UNL     1      -9.226   5.967  69.215  1.00  0.00    -0.133 A  
HETATM   25  C   UNL     1     -10.574   5.789  68.910  1.00  0.00    -0.337 A  
HETATM   26  C   UNL     1     -11.141   6.479  67.840  1.00  0.00    -0.352 A  
HETATM   27  C   UNL     1     -10.363   7.352  67.077  1.00  0.00    -0.384 A  
ENDBRANCH  21  22
ENDBRANCH  20  21
ENDBRANCH  18  20
ENDBRANCH  13  18
ENDBRANCH  11  12
ENDBRANCH  10  11
ENDBRANCH   7  10
ENDBRANCH   6   7
ENDBRANCH   4   6
ENDBRANCH   3   4
ENDBRANCH   2   3
TORSDOF 11
ENDMDL
MODEL      111
REMARK 921   NORMALIZED FREE ENERGY PREDICTED BY IDOCK:   -5.29 KCAL/MOL
REMARK 922        TOTAL FREE ENERGY PREDICTED BY IDOCK:   -9.70 KCAL/MOL
REMARK 923 INTER-LIGAND FREE ENERGY PREDICTED BY IDOCK:   -8.43 KCAL/MOL
REMARK 924 INTRA-LIGAND FREE ENERGY PREDICTED BY IDOCK:   -1.27 KCAL/MOL
REMARK 927      BINDING AFFINITY PREDICTED BY RF-SCORE:    0.00 PKD
ROOT
HETATM    1  C   UNL     1     -11.923  11.735  62.993  1.00  0.00    -0.021 C  
HETATM    2  C   UNL     1     -11.078  11.630  64.253  1.00  0.00    -0.406 C  
ENDROOT
BRANCH   2   3
HETATM    3  C   UNL     1     -11.853  12.106  65.481  1.00  0.00    -0.286 C  
BRANCH   3   4
HETATM    4  N   UNL     1     -12.899  13.040  65.069  1.00  0.00    -0.753 NA 
HETATM    5  H   UNL     1     -13.824  12.734  65.374  1.00  0.00     0.000 HD 
BRANCH   4   6
HETATM    6  C   UNL     1     -12.586  14.395  65.544  1.00  0.00    -0.333 C  
BRANCH   6   7
HETATM    7  C   UNL     1     -11.542  15.071  64.636  1.00  0.00    -0.386 C  
HETATM    8  O   UNL     1     -12.178  15.986  63.732  1.00  0.00    -1.269 OA 
HETATM    9  H   UNL     1     -11.533  16.403  63.172  1.00  0.00     0.000 HD 
BRANCH   7  10
HETATM   10  C   UNL     1     -10.497  15.823  65.470  1.00  0.00    -0.403 C  
BRANCH  10  11
HETATM   11  O   UNL     1     -11.157  16.561  66.516  1.00  0.00    -0.006 OA 
BRANCH  11  12
HETATM   12  C   UNL     1     -10.519  17.709  66.911  1.00  0.00    -0.290 A  
HETATM   13  C   UNL     1     -10.005  17.800  68.221  1.00  0.00    -0.355 A  
HETATM   14  C   UNL     1     -10.426  18.822  66.063  1.00  0.00    -0.483 A  
HETATM   15  C   UNL     1      -9.354  18.979  68.622  1.00  0.00    -0.428 A  
HETATM   16  C   UNL     1      -9.793  19.992  66.483  1.00  0.00    -0.581 A  
HETATM   17  C   UNL     1      -9.252  20.069  67.759  1.00  0.00    -0.435 A  
BRANCH  13  18
HETATM   18  C   UNL     1     -10.106  16.663  69.194  1.00  0.00    -0.285 C  
HETATM   19  O   UNL     1     -11.006  16.640  70.031  1.00  0.00    -0.333 OA 
BRANCH  18  20
HETATM   20  C   UNL     1      -9.131  15.498  69.080  1.00  0.00    -0.248 C  
BRANCH  20  21
HETATM   21  C   UNL     1      -9.781  14.255  68.481  1.00  0.00    -0.225 C  
BRANCH  21  22
HETATM   22  C   UNL     1      -8.768  13.204  68.093  1.00  0.00    -0.193 A  
HETATM   23  C   UNL     1      -9.113  11.845  68.100  1.00  0.00    -0.190 A  
HETATM   24  C   UNL     1      -8.183  10.876  67.718  1.00  0.00    -0.116 A  
HETATM   25  C   UNL     1      -6.900  11.255  67.332  1.00  0.00    -0.096 A  
HETATM   26  C   UNL     1      -6.543  12.602  67.335  1.00  0.00    -0.145 A  
HETATM   27  C   UNL     1      -7.471  13.573  67.718  1.00  0.00    -0.168 A  
ENDBRANCH  21  22
ENDBRANCH  20  21
ENDBRANCH  18  20
ENDBRANCH  13  18
ENDBRANCH  11  12
ENDBRANCH  10  11
ENDBRANCH   7  10
ENDBRANCH   6   7
ENDBRANCH   4   6
ENDBRANCH   3   4
ENDBRANCH   2   3
TORSDOF 11
ENDMDL
MODEL      112
REMARK 921   NORMALIZED FREE ENERGY PREDICTED BY IDOCK:   -5.28 KCAL/MOL
REMARK 922        TOTAL FREE ENERGY PREDICTED BY IDOCK:   -9.69 KCAL/MOL
REMARK 923 INTER-LIGAND FREE ENERGY PREDICTED BY IDOCK:   -7.92 KCAL/MOL
REMARK 924 INTRA-LIGAND FREE ENERGY PREDICTED BY IDOCK:   -1.77 KCAL/MOL
REMARK 927      BINDING AFFINITY PREDICTED BY RF-SCORE:    0.00 PKD
ROOT
HETATM    1  C   UNL     1      -8.058  12.575  67.983  1.00  0.00    -0.164 C  
HETATM    2  C   UNL     1      -7.269  13.833  67.651  1.00  0.00    -0.183 C  
ENDROOT
BRANCH   2   3
HETATM    3  C   UNL     1      -8.170  15.067  67.653  1.00  0.00    -0.168 C  
BRANCH   3   4
HETATM    4  N   UNL     1      -8.475  15.455  66.278  1.00  0.00    -0.404 NA 
HETATM    5  H   UNL     1      -9.104  14.792  65.825  1.00  0.00     0.000 HD 
BRANCH   4   6
HETATM    6  C   UNL     1      -9.004  16.825  66.241  1.00  0.00    -0.290 C  
BRANCH   6   7
HETATM    7  C   UNL     1     -10.493  16.833  65.852  1.00  0.00    -0.301 C  
HETATM    8  O   UNL     1     -10.827  18.046  65.161  1.00  0.00    -0.665 OA 
HETATM    9  H   UNL     1     -11.746  18.050  64.921  1.00  0.00     0.000 HD 
BRANCH   7  10
HETATM   10  C   UNL     1     -10.832  15.631  64.961  1.00  0.00    -0.450 C  
BRANCH  10  11
HETATM   11  O   UNL     1     -12.052  15.018  65.422  1.00  0.00    -0.145 OA 
BRANCH  11  12
HETATM   12  C   UNL     1     -11.904  14.135  66.460  1.00  0.00    -0.419 A  
HETATM   13  C   UNL     1     -11.977  12.750  66.207  1.00  0.00    -0.460 A  
HETATM   14  C   UNL     1     -11.748  14.580  67.782  1.00  0.00    -0.403 A  
HETATM   15  C   UNL     1     -11.827  11.848  67.274  1.00  0.00    -0.222 A  
HETATM   16  C   UNL     1     -11.620  13.672  68.833  1.00  0.00    -0.362 A  
HETATM   17  C   UNL     1     -11.654  12.307  68.580  1.00  0.00    -0.359 A  
BRANCH  13  18
HETATM   18  C   UNL     1     -12.183  12.205  64.825  1.00  0.00    -0.264 C  
HETATM   19  O   UNL     1     -13.283  12.286  64.283  1.00  0.00    -0.785 OA 
BRANCH  18  20
HETATM   20  C   UNL     1     -10.994  11.626  64.070  1.00  0.00    -0.456 C  
BRANCH  20  21
HETATM   21  C   UNL     1      -9.702  11.701  64.878  1.00  0.00    -0.232 C  
BRANCH  21  22
HETATM   22  C   UNL     1      -9.132  10.336  65.183  1.00  0.00    -0.234 A  
HETATM   23  C   UNL     1      -7.825  10.007  64.796  1.00  0.00    -0.145 A  
HETATM   24  C   UNL     1      -7.291   8.753  65.100  1.00  0.00    -0.088 A  
HETATM   25  C   UNL     1      -8.058   7.815  65.787  1.00  0.00    -0.125 A  
HETATM   26  C   UNL     1      -9.363   8.128  66.164  1.00  0.00    -0.232 A  
HETATM   27  C   UNL     1      -9.900   9.381  65.860  1.00  0.00    -0.362 A  
ENDBRANCH  21  22
ENDBRANCH  20  21
ENDBRANCH  18  20
ENDBRANCH  13  18
ENDBRANCH  11  12
ENDBRANCH  10  11
ENDBRANCH   7  10
ENDBRANCH   6   7
ENDBRANCH   4   6
ENDBRANCH   3   4
ENDBRANCH   2   3
TORSDOF 11
ENDMDL
MODEL      113
REMARK 921   NORMALIZED FREE ENERGY PREDICTED BY IDOCK:   -5.27 KCAL/MOL
REMARK 922        TOTAL FREE ENERGY PREDICTED BY IDOCK:   -9.68 KCAL/MOL
REMARK 923 INTER-LIGAND FREE ENERGY PREDICTED BY IDOCK:   -8.23 KCAL/MOL
REMARK 924 INTRA-LIGAND FREE ENERGY PREDICTED BY IDOCK:   -1.45 KCAL/MOL
REMARK 927      BINDING AFFINITY PREDICTED BY RF-SCORE:    0.00 PKD
ROOT
HETATM    1  C   UNL     1      -9.668  15.242  67.719  1.00  0.00    -0.215 C  
HETATM    2  C   UNL     1      -9.563  13.837  67.146  1.00  0.00    -0.244 C  
ENDROOT
BRANCH   2   3
HETATM    3  C   UNL     1      -8.156  13.269  67.328  1.00  0.00    -0.142 C  
BRANCH   3   4
HETATM    4  N   UNL     1      -8.057  12.610  68.629  1.00  0.00    -0.322 NA 
HETATM    5  H   UNL     1      -8.966  12.525  69.084  1.00  0.00     0.000 HD 
BRANCH   4   6
HETATM    6  C   UNL     1      -7.389  11.309  68.491  1.00  0.00    -0.106 C  
BRANCH   6   7
HETATM    7  C   UNL     1      -6.538  10.989  69.733  1.00  0.00    -0.143 C  
HETATM    8  O   UNL     1      -6.402  12.153  70.563  1.00  0.00    -0.510 OA 
HETATM    9  H   UNL     1      -5.877  11.955  71.330  1.00  0.00     0.000 HD 
BRANCH   7  10
HETATM   10  C   UNL     1      -7.167   9.854  70.550  1.00  0.00    -0.087 C  
BRANCH  10  11
HETATM   11  O   UNL     1      -8.511   9.616  70.087  1.00  0.00    -0.182 OA 
BRANCH  11  12
HETATM   12  C   UNL     1      -9.354   9.053  71.011  1.00  0.00    -0.271 A  
HETATM   13  C   UNL     1     -10.741   9.288  70.917  1.00  0.00    -0.371 A  
HETATM   14  C   UNL     1      -8.861   8.304  72.090  1.00  0.00    -0.265 A  
HETATM   15  C   UNL     1     -11.601   8.712  71.867  1.00  0.00    -0.420 A  
HETATM   16  C   UNL     1      -9.726   7.754  73.036  1.00  0.00    -0.329 A  
HETATM   17  C   UNL     1     -11.096   7.953  72.923  1.00  0.00    -0.442 A  
BRANCH  13  18
HETATM   18  C   UNL     1     -11.333  10.114  69.814  1.00  0.00    -0.256 C  
HETATM   19  O   UNL     1     -11.038   9.889  68.642  1.00  0.00    -0.209 OA 
BRANCH  18  20
HETATM   20  C   UNL     1     -12.367  11.179  70.156  1.00  0.00    -0.373 C  
BRANCH  20  21
HETATM   21  C   UNL     1     -11.929  12.573  69.719  1.00  0.00    -0.359 C  
BRANCH  21  22
HETATM   22  C   UNL     1     -12.287  13.635  70.732  1.00  0.00    -0.446 A  
HETATM   23  C   UNL     1     -11.875  14.963  70.549  1.00  0.00    -0.358 A  
HETATM   24  C   UNL     1     -12.227  15.947  71.474  1.00  0.00    -0.525 A  
HETATM   25  C   UNL     1     -12.988  15.615  72.593  1.00  0.00    -0.554 A  
HETATM   26  C   UNL     1     -13.390  14.295  72.791  1.00  0.00    -0.621 A  
HETATM   27  C   UNL     1     -13.039  13.308  71.868  1.00  0.00    -0.483 A  
ENDBRANCH  21  22
ENDBRANCH  20  21
ENDBRANCH  18  20
ENDBRANCH  13  18
ENDBRANCH  11  12
ENDBRANCH  10  11
ENDBRANCH   7  10
ENDBRANCH   6   7
ENDBRANCH   4   6
ENDBRANCH   3   4
ENDBRANCH   2   3
TORSDOF 11
ENDMDL
MODEL      114
REMARK 921   NORMALIZED FREE ENERGY PREDICTED BY IDOCK:   -5.27 KCAL/MOL
REMARK 922        TOTAL FREE ENERGY PREDICTED BY IDOCK:   -9.67 KCAL/MOL
REMARK 923 INTER-LIGAND FREE ENERGY PREDICTED BY IDOCK:   -7.93 KCAL/MOL
REMARK 924 INTRA-LIGAND FREE ENERGY PREDICTED BY IDOCK:   -1.74 KCAL/MOL
REMARK 927      BINDING AFFINITY PREDICTED BY RF-SCORE:    0.00 PKD
ROOT
HETATM    1  C   UNL     1      -6.629  18.757  68.176  1.00  0.00    -0.235 C  
HETATM    2  C   UNL     1      -6.037  17.374  67.953  1.00  0.00    -0.148 C  
ENDROOT
BRANCH   2   3
HETATM    3  C   UNL     1      -6.839  16.590  66.915  1.00  0.00    -0.213 C  
BRANCH   3   4
HETATM    4  N   UNL     1      -6.568  15.161  67.061  1.00  0.00    -0.258 NA 
HETATM    5  H   UNL     1      -5.902  14.975  67.811  1.00  0.00     0.000 HD 
BRANCH   4   6
HETATM    6  C   UNL     1      -7.824  14.422  67.248  1.00  0.00    -0.163 C  
BRANCH   6   7
HETATM    7  C   UNL     1      -7.554  12.991  67.746  1.00  0.00    -0.152 C  
HETATM    8  O   UNL     1      -7.953  12.852  69.118  1.00  0.00    -0.312 OA 
HETATM    9  H   UNL     1      -7.786  11.969  69.425  1.00  0.00     0.000 HD 
BRANCH   7  10
HETATM   10  C   UNL     1      -8.306  11.963  66.892  1.00  0.00    -0.169 C  
BRANCH  10  11
HETATM   11  O   UNL     1      -9.704  11.975  67.244  1.00  0.00    -0.183 OA 
BRANCH  11  12
HETATM   12  C   UNL     1     -10.528  12.587  66.334  1.00  0.00    -0.247 A  
HETATM   13  C   UNL     1     -11.531  13.467  66.791  1.00  0.00    -0.376 A  
HETATM   14  C   UNL     1     -10.441  12.304  64.963  1.00  0.00    -0.322 A  
HETATM   15  C   UNL     1     -12.375  14.090  65.856  1.00  0.00    -0.515 A  
HETATM   16  C   UNL     1     -11.299  12.916  64.050  1.00  0.00    -0.466 A  
HETATM   17  C   UNL     1     -12.262  13.812  64.494  1.00  0.00    -0.441 A  
BRANCH  13  18
HETATM   18  C   UNL     1     -11.707  13.783  68.246  1.00  0.00    -0.359 C  
HETATM   19  O   UNL     1     -11.674  12.886  69.085  1.00  0.00    -0.290 OA 
BRANCH  18  20
HETATM   20  C   UNL     1     -11.846  15.237  68.679  1.00  0.00    -0.329 C  
BRANCH  20  21
HETATM   21  C   UNL     1     -10.494  15.911  68.887  1.00  0.00    -0.233 C  
BRANCH  21  22
HETATM   22  C   UNL     1     -10.371  17.205  68.117  1.00  0.00    -0.350 A  
HETATM   23  C   UNL     1     -10.513  17.221  66.722  1.00  0.00    -0.261 A  
HETATM   24  C   UNL     1     -10.422  18.421  66.014  1.00  0.00    -0.400 A  
HETATM   25  C   UNL     1     -10.185  19.615  66.692  1.00  0.00    -0.576 A  
HETATM   26  C   UNL     1     -10.029  19.608  68.077  1.00  0.00    -0.541 A  
HETATM   27  C   UNL     1     -10.117  18.409  68.787  1.00  0.00    -0.393 A  
ENDBRANCH  21  22
ENDBRANCH  20  21
ENDBRANCH  18  20
ENDBRANCH  13  18
ENDBRANCH  11  12
ENDBRANCH  10  11
ENDBRANCH   7  10
ENDBRANCH   6   7
ENDBRANCH   4   6
ENDBRANCH   3   4
ENDBRANCH   2   3
TORSDOF 11
ENDMDL
MODEL      115
REMARK 921   NORMALIZED FREE ENERGY PREDICTED BY IDOCK:   -5.26 KCAL/MOL
REMARK 922        TOTAL FREE ENERGY PREDICTED BY IDOCK:   -9.65 KCAL/MOL
REMARK 923 INTER-LIGAND FREE ENERGY PREDICTED BY IDOCK:   -8.71 KCAL/MOL
REMARK 924 INTRA-LIGAND FREE ENERGY PREDICTED BY IDOCK:   -0.94 KCAL/MOL
REMARK 927      BINDING AFFINITY PREDICTED BY RF-SCORE:    0.00 PKD
ROOT
HETATM    1  C   UNL     1     -10.516  15.718  69.954  1.00  0.00    -0.324 C  
HETATM    2  C   UNL     1     -11.399  15.456  71.165  1.00  0.00    -0.427 C  
ENDROOT
BRANCH   2   3
HETATM    3  C   UNL     1     -12.876  15.646  70.824  1.00  0.00    -0.404 C  
BRANCH   3   4
HETATM    4  N   UNL     1     -13.496  14.344  70.585  1.00  0.00    -0.411 NA 
HETATM    5  H   UNL     1     -13.821  14.248  69.622  1.00  0.00     0.000 HD 
BRANCH   4   6
HETATM    6  C   UNL     1     -12.574  13.264  70.961  1.00  0.00    -0.324 C  
BRANCH   6   7
HETATM    7  C   UNL     1     -13.135  12.443  72.136  1.00  0.00    -0.314 C  
HETATM    8  O   UNL     1     -14.371  13.007  72.600  1.00  0.00    -0.657 OA 
HETATM    9  H   UNL     1     -14.717  12.500  73.324  1.00  0.00     0.000 HD 
BRANCH   7  10
HETATM   10  C   UNL     1     -13.366  10.984  71.723  1.00  0.00    -0.296 C  
BRANCH  10  11
HETATM   11  O   UNL     1     -12.667  10.716  70.492  1.00  0.00    -0.340 OA 
BRANCH  11  12
HETATM   12  C   UNL     1     -11.494  10.019  70.628  1.00  0.00    -0.345 A  
HETATM   13  C   UNL     1     -10.551  10.039  69.579  1.00  0.00    -0.267 A  
HETATM   14  C   UNL     1     -11.238   9.231  71.760  1.00  0.00    -0.413 A  
HETATM   15  C   UNL     1      -9.351   9.322  69.722  1.00  0.00    -0.199 A  
HETATM   16  C   UNL     1     -10.051   8.510  71.878  1.00  0.00    -0.367 A  
HETATM   17  C   UNL     1      -9.105   8.558  70.863  1.00  0.00    -0.208 A  
BRANCH  13  18
HETATM   18  C   UNL     1     -10.777  10.827  68.323  1.00  0.00    -0.213 C  
HETATM   19  O   UNL     1     -11.292  10.297  67.342  1.00  0.00    -0.310 OA 
BRANCH  18  20
HETATM   20  C   UNL     1     -10.435  12.312  68.307  1.00  0.00    -0.236 C  
BRANCH  20  21
HETATM   21  C   UNL     1      -9.635  12.709  67.071  1.00  0.00    -0.219 C  
BRANCH  21  22
HETATM   22  C   UNL     1     -10.504  12.866  65.846  1.00  0.00    -0.294 A  
HETATM   23  C   UNL     1     -10.212  12.161  64.669  1.00  0.00    -0.312 A  
HETATM   24  C   UNL     1     -11.030  12.289  63.545  1.00  0.00    -0.521 A  
HETATM   25  C   UNL     1     -12.143  13.125  63.584  1.00  0.00    -0.583 A  
HETATM   26  C   UNL     1     -12.434  13.841  64.744  1.00  0.00    -0.386 A  
HETATM   27  C   UNL     1     -11.617  13.716  65.869  1.00  0.00    -0.346 A  
ENDBRANCH  21  22
ENDBRANCH  20  21
ENDBRANCH  18  20
ENDBRANCH  13  18
ENDBRANCH  11  12
ENDBRANCH  10  11
ENDBRANCH   7  10
ENDBRANCH   6   7
ENDBRANCH   4   6
ENDBRANCH   3   4
ENDBRANCH   2   3
TORSDOF 11
ENDMDL
MODEL      116
REMARK 921   NORMALIZED FREE ENERGY PREDICTED BY IDOCK:   -5.25 KCAL/MOL
REMARK 922        TOTAL FREE ENERGY PREDICTED BY IDOCK:   -9.64 KCAL/MOL
REMARK 923 INTER-LIGAND FREE ENERGY PREDICTED BY IDOCK:   -8.61 KCAL/MOL
REMARK 924 INTRA-LIGAND FREE ENERGY PREDICTED BY IDOCK:   -1.03 KCAL/MOL
REMARK 927      BINDING AFFINITY PREDICTED BY RF-SCORE:    0.00 PKD
ROOT
HETATM    1  C   UNL     1      -9.446  17.994  66.588  1.00  0.00    -0.300 C  
HETATM    2  C   UNL     1     -10.741  17.435  66.018  1.00  0.00    -0.122 C  
ENDROOT
BRANCH   2   3
HETATM    3  C   UNL     1     -10.630  15.933  65.762  1.00  0.00    -0.355 C  
BRANCH   3   4
HETATM    4  N   UNL     1     -10.945  15.648  64.364  1.00  0.00    -0.792 NA 
HETATM    5  H   UNL     1     -10.186  15.152  63.896  1.00  0.00     0.000 HD 
BRANCH   4   6
HETATM    6  C   UNL     1     -12.218  14.919  64.268  1.00  0.00    -0.344 C  
BRANCH   6   7
HETATM    7  C   UNL     1     -12.111  13.531  64.925  1.00  0.00    -0.397 C  
HETATM    8  O   UNL     1     -13.356  12.825  64.814  1.00  0.00    -0.736 OA 
HETATM    9  H   UNL     1     -13.290  11.968  65.220  1.00  0.00     0.000 HD 
BRANCH   7  10
HETATM   10  C   UNL     1     -10.996  12.703  64.277  1.00  0.00    -0.366 C  
BRANCH  10  11
HETATM   11  O   UNL     1     -10.980  11.382  64.854  1.00  0.00    -0.283 OA 
BRANCH  11  12
HETATM   12  C   UNL     1      -9.956  10.574  64.430  1.00  0.00    -0.343 A  
HETATM   13  C   UNL     1      -9.493   9.543  65.273  1.00  0.00    -0.326 A  
HETATM   14  C   UNL     1      -9.312  10.792  63.203  1.00  0.00    -0.336 A  
HETATM   15  C   UNL     1      -8.442   8.719  64.837  1.00  0.00    -0.189 A  
HETATM   16  C   UNL     1      -8.258   9.977  62.792  1.00  0.00    -0.154 A  
HETATM   17  C   UNL     1      -7.826   8.938  63.605  1.00  0.00    -0.141 A  
BRANCH  13  18
HETATM   18  C   UNL     1     -10.108   9.280  66.616  1.00  0.00    -0.271 C  
HETATM   19  O   UNL     1     -10.645   8.200  66.852  1.00  0.00    -0.329 OA 
BRANCH  18  20
HETATM   20  C   UNL     1      -9.987  10.334  67.709  1.00  0.00    -0.203 C  
BRANCH  20  21
HETATM   21  C   UNL     1     -11.062  10.186  68.780  1.00  0.00    -0.250 C  
BRANCH  21  22
HETATM   22  C   UNL     1     -11.555  11.518  69.292  1.00  0.00    -0.388 A  
HETATM   23  C   UNL     1     -12.109  11.628  70.575  1.00  0.00    -0.458 A  
HETATM   24  C   UNL     1     -12.542  12.865  71.056  1.00  0.00    -0.376 A  
HETATM   25  C   UNL     1     -12.430  14.002  70.259  1.00  0.00    -0.403 A  
HETATM   26  C   UNL     1     -11.893  13.901  68.977  1.00  0.00    -0.397 A  
HETATM   27  C   UNL     1     -11.461  12.665  68.493  1.00  0.00    -0.349 A  
ENDBRANCH  21  22
ENDBRANCH  20  21
ENDBRANCH  18  20
ENDBRANCH  13  18
ENDBRANCH  11  12
ENDBRANCH  10  11
ENDBRANCH   7  10
ENDBRANCH   6   7
ENDBRANCH   4   6
ENDBRANCH   3   4
ENDBRANCH   2   3
TORSDOF 11
ENDMDL
MODEL      117
REMARK 921   NORMALIZED FREE ENERGY PREDICTED BY IDOCK:   -5.25 KCAL/MOL
REMARK 922        TOTAL FREE ENERGY PREDICTED BY IDOCK:   -9.63 KCAL/MOL
REMARK 923 INTER-LIGAND FREE ENERGY PREDICTED BY IDOCK:   -7.88 KCAL/MOL
REMARK 924 INTRA-LIGAND FREE ENERGY PREDICTED BY IDOCK:   -1.76 KCAL/MOL
REMARK 927      BINDING AFFINITY PREDICTED BY RF-SCORE:    0.00 PKD
ROOT
HETATM    1  C   UNL     1      -6.808  15.149  68.618  1.00  0.00    -0.105 C  
HETATM    2  C   UNL     1      -7.446  14.545  67.377  1.00  0.00    -0.194 C  
ENDROOT
BRANCH   2   3
HETATM    3  C   UNL     1      -7.598  13.031  67.514  1.00  0.00    -0.165 C  
BRANCH   3   4
HETATM    4  N   UNL     1      -8.256  12.716  68.781  1.00  0.00    -0.346 NA 
HETATM    5  H   UNL     1      -8.178  13.481  69.451  1.00  0.00     0.000 HD 
BRANCH   4   6
HETATM    6  C   UNL     1      -9.655  12.333  68.545  1.00  0.00    -0.125 C  
BRANCH   6   7
HETATM    7  C   UNL     1      -9.893  10.857  68.908  1.00  0.00    -0.192 C  
HETATM    8  O   UNL     1     -10.859  10.747  69.965  1.00  0.00    -0.407 OA 
HETATM    9  H   UNL     1     -11.005   9.836  70.189  1.00  0.00     0.000 HD 
BRANCH   7  10
HETATM   10  C   UNL     1     -10.382  10.065  67.689  1.00  0.00    -0.224 C  
BRANCH  10  11
HETATM   11  O   UNL     1     -11.008  10.963  66.752  1.00  0.00    -0.254 OA 
BRANCH  11  12
HETATM   12  C   UNL     1     -10.456  10.972  65.497  1.00  0.00    -0.238 A  
HETATM   13  C   UNL     1     -11.080  11.711  64.471  1.00  0.00    -0.365 A  
HETATM   14  C   UNL     1      -9.320  10.207  65.192  1.00  0.00    -0.290 A  
HETATM   15  C   UNL     1     -10.512  11.716  63.185  1.00  0.00    -0.368 A  
HETATM   16  C   UNL     1      -8.780  10.207  63.906  1.00  0.00    -0.220 A  
HETATM   17  C   UNL     1      -9.371  10.964  62.904  1.00  0.00    -0.367 A  
BRANCH  13  18
HETATM   18  C   UNL     1     -12.320  12.519  64.716  1.00  0.00    -0.474 C  
HETATM   19  O   UNL     1     -13.395  12.166  64.238  1.00  0.00    -0.761 OA 
BRANCH  18  20
HETATM   20  C   UNL     1     -12.246  13.734  65.631  1.00  0.00    -0.484 C  
BRANCH  20  21
HETATM   21  C   UNL     1     -10.939  14.504  65.468  1.00  0.00    -0.337 C  
BRANCH  21  22
HETATM   22  C   UNL     1     -10.756  15.561  66.531  1.00  0.00    -0.304 A  
HETATM   23  C   UNL     1     -10.044  16.737  66.251  1.00  0.00    -0.338 A  
HETATM   24  C   UNL     1      -9.896  17.724  67.228  1.00  0.00    -0.312 A  
HETATM   25  C   UNL     1     -10.451  17.544  68.492  1.00  0.00    -0.361 A  
HETATM   26  C   UNL     1     -11.148  16.373  68.784  1.00  0.00    -0.337 A  
HETATM   27  C   UNL     1     -11.297  15.384  67.810  1.00  0.00    -0.308 A  
ENDBRANCH  21  22
ENDBRANCH  20  21
ENDBRANCH  18  20
ENDBRANCH  13  18
ENDBRANCH  11  12
ENDBRANCH  10  11
ENDBRANCH   7  10
ENDBRANCH   6   7
ENDBRANCH   4   6
ENDBRANCH   3   4
ENDBRANCH   2   3
TORSDOF 11
ENDMDL
MODEL      118
REMARK 921   NORMALIZED FREE ENERGY PREDICTED BY IDOCK:   -5.21 KCAL/MOL
REMARK 922        TOTAL FREE ENERGY PREDICTED BY IDOCK:   -9.57 KCAL/MOL
REMARK 923 INTER-LIGAND FREE ENERGY PREDICTED BY IDOCK:   -7.97 KCAL/MOL
REMARK 924 INTRA-LIGAND FREE ENERGY PREDICTED BY IDOCK:   -1.61 KCAL/MOL
REMARK 927      BINDING AFFINITY PREDICTED BY RF-SCORE:    0.00 PKD
ROOT
HETATM    1  C   UNL     1     -13.423  12.848  72.089  1.00  0.00    -0.619 C  
HETATM    2  C   UNL     1     -12.808  11.682  71.330  1.00  0.00    -0.430 C  
ENDROOT
BRANCH   2   3
HETATM    3  C   UNL     1     -13.375  10.347  71.813  1.00  0.00    -0.354 C  
BRANCH   3   4
HETATM    4  N   UNL     1     -12.853   9.263  70.983  1.00  0.00    -0.511 NA 
HETATM    5  H   UNL     1     -12.353   9.615  70.166  1.00  0.00     0.000 HD 
BRANCH   4   6
HETATM    6  C   UNL     1     -12.019   8.362  71.790  1.00  0.00    -0.325 C  
BRANCH   6   7
HETATM    7  C   UNL     1     -11.296   7.333  70.901  1.00  0.00    -0.280 C  
HETATM    8  O   UNL     1     -12.201   6.784  69.930  1.00  0.00    -0.634 OA 
HETATM    9  H   UNL     1     -11.754   6.149  69.382  1.00  0.00     0.000 HD 
BRANCH   7  10
HETATM   10  C   UNL     1     -10.105   7.975  70.179  1.00  0.00    -0.194 C  
BRANCH  10  11
HETATM   11  O   UNL     1     -10.571   9.052  69.344  1.00  0.00    -0.226 OA 
BRANCH  11  12
HETATM   12  C   UNL     1     -10.126   9.017  68.047  1.00  0.00    -0.190 A  
HETATM   13  C   UNL     1      -9.962  10.226  67.339  1.00  0.00    -0.230 A  
HETATM   14  C   UNL     1      -9.895   7.802  67.385  1.00  0.00    -0.230 A  
HETATM   15  C   UNL     1      -9.508  10.186  66.009  1.00  0.00    -0.248 A  
HETATM   16  C   UNL     1      -9.463   7.779  66.059  1.00  0.00    -0.058 A  
HETATM   17  C   UNL     1      -9.265   8.969  65.373  1.00  0.00    -0.241 A  
BRANCH  13  18
HETATM   18  C   UNL     1     -10.230  11.559  67.971  1.00  0.00    -0.191 C  
HETATM   19  O   UNL     1      -9.306  12.228  68.427  1.00  0.00    -0.203 OA 
BRANCH  18  20
HETATM   20  C   UNL     1     -11.650  12.111  67.966  1.00  0.00    -0.411 C  
BRANCH  20  21
HETATM   21  C   UNL     1     -11.787  13.354  67.094  1.00  0.00    -0.429 C  
BRANCH  21  22
HETATM   22  C   UNL     1     -11.371  14.614  67.816  1.00  0.00    -0.338 A  
HETATM   23  C   UNL     1     -10.772  15.672  67.116  1.00  0.00    -0.314 A  
HETATM   24  C   UNL     1     -10.411  16.846  67.781  1.00  0.00    -0.327 A  
HETATM   25  C   UNL     1     -10.638  16.972  69.149  1.00  0.00    -0.303 A  
HETATM   26  C   UNL     1     -11.220  15.921  69.856  1.00  0.00    -0.348 A  
HETATM   27  C   UNL     1     -11.581  14.745  69.194  1.00  0.00    -0.330 A  
ENDBRANCH  21  22
ENDBRANCH  20  21
ENDBRANCH  18  20
ENDBRANCH  13  18
ENDBRANCH  11  12
ENDBRANCH  10  11
ENDBRANCH   7  10
ENDBRANCH   6   7
ENDBRANCH   4   6
ENDBRANCH   3   4
ENDBRANCH   2   3
TORSDOF 11
ENDMDL
MODEL      119
REMARK 921   NORMALIZED FREE ENERGY PREDICTED BY IDOCK:   -5.19 KCAL/MOL
REMARK 922        TOTAL FREE ENERGY PREDICTED BY IDOCK:   -9.54 KCAL/MOL
REMARK 923 INTER-LIGAND FREE ENERGY PREDICTED BY IDOCK:   -8.42 KCAL/MOL
REMARK 924 INTRA-LIGAND FREE ENERGY PREDICTED BY IDOCK:   -1.13 KCAL/MOL
REMARK 927      BINDING AFFINITY PREDICTED BY RF-SCORE:    0.00 PKD
ROOT
HETATM    1  C   UNL     1      -7.603  10.509  62.727  1.00  0.00    -0.106 C  
HETATM    2  C   UNL     1      -8.295   9.323  63.379  1.00  0.00    -0.193 C  
ENDROOT
BRANCH   2   3
HETATM    3  C   UNL     1      -8.142   9.360  64.899  1.00  0.00    -0.128 C  
BRANCH   3   4
HETATM    4  N   UNL     1      -7.610  10.658  65.307  1.00  0.00    -0.325 NA 
HETATM    5  H   UNL     1      -8.312  11.395  65.242  1.00  0.00     0.000 HD 
BRANCH   4   6
HETATM    6  C   UNL     1      -7.031  10.569  66.655  1.00  0.00    -0.113 C  
BRANCH   6   7
HETATM    7  C   UNL     1      -7.962  11.213  67.699  1.00  0.00    -0.116 C  
HETATM    8  O   UNL     1      -7.209  11.656  68.839  1.00  0.00    -0.107 OA 
HETATM    9  H   UNL     1      -7.784  12.053  69.483  1.00  0.00     0.000 HD 
BRANCH   7  10
HETATM   10  C   UNL     1      -8.720  12.402  67.097  1.00  0.00    -0.195 C  
BRANCH  10  11
HETATM   11  O   UNL     1     -10.132  12.113  67.079  1.00  0.00    -0.203 OA 
BRANCH  11  12
HETATM   12  C   UNL     1     -10.794  12.514  65.947  1.00  0.00    -0.269 A  
HETATM   13  C   UNL     1     -11.317  13.821  65.876  1.00  0.00    -0.311 A  
HETATM   14  C   UNL     1     -11.022  11.629  64.881  1.00  0.00    -0.345 A  
HETATM   15  C   UNL     1     -11.997  14.227  64.715  1.00  0.00    -0.449 A  
HETATM   16  C   UNL     1     -11.715  12.042  63.744  1.00  0.00    -0.575 A  
HETATM   17  C   UNL     1     -12.198  13.341  63.657  1.00  0.00    -0.522 A  
BRANCH  13  18
HETATM   18  C   UNL     1     -11.146  14.806  66.995  1.00  0.00    -0.333 C  
HETATM   19  O   UNL     1     -10.469  15.818  66.833  1.00  0.00    -0.304 OA 
BRANCH  18  20
HETATM   20  C   UNL     1     -11.888  14.577  68.305  1.00  0.00    -0.347 C  
BRANCH  20  21
HETATM   21  C   UNL     1     -11.846  15.800  69.216  1.00  0.00    -0.358 C  
BRANCH  21  22
HETATM   22  C   UNL     1     -12.289  15.485  70.626  1.00  0.00    -0.462 A  
HETATM   23  C   UNL     1     -11.682  16.116  71.721  1.00  0.00    -0.568 A  
HETATM   24  C   UNL     1     -12.109  15.842  73.022  1.00  0.00    -0.615 A  
HETATM   25  C   UNL     1     -13.141  14.933  73.241  1.00  0.00    -0.585 A  
HETATM   26  C   UNL     1     -13.742  14.291  72.160  1.00  0.00    -0.569 A  
HETATM   27  C   UNL     1     -13.316  14.562  70.858  1.00  0.00    -0.319 A  
ENDBRANCH  21  22
ENDBRANCH  20  21
ENDBRANCH  18  20
ENDBRANCH  13  18
ENDBRANCH  11  12
ENDBRANCH  10  11
ENDBRANCH   7  10
ENDBRANCH   6   7
ENDBRANCH   4   6
ENDBRANCH   3   4
ENDBRANCH   2   3
TORSDOF 11
ENDMDL
MODEL      120
REMARK 921   NORMALIZED FREE ENERGY PREDICTED BY IDOCK:   -5.17 KCAL/MOL
REMARK 922        TOTAL FREE ENERGY PREDICTED BY IDOCK:   -9.51 KCAL/MOL
REMARK 923 INTER-LIGAND FREE ENERGY PREDICTED BY IDOCK:   -8.03 KCAL/MOL
REMARK 924 INTRA-LIGAND FREE ENERGY PREDICTED BY IDOCK:   -1.48 KCAL/MOL
REMARK 927      BINDING AFFINITY PREDICTED BY RF-SCORE:    0.00 PKD
ROOT
HETATM    1  C   UNL     1     -12.252  14.756  64.467  1.00  0.00    -0.443 C  
HETATM    2  C   UNL     1     -12.692  13.859  65.614  1.00  0.00    -0.534 C  
ENDROOT
BRANCH   2   3
HETATM    3  C   UNL     1     -11.928  12.536  65.607  1.00  0.00    -0.433 C  
BRANCH   3   4
HETATM    4  N   UNL     1     -11.142  12.417  66.834  1.00  0.00    -0.272 NA 
HETATM    5  H   UNL     1     -11.512  11.697  67.455  1.00  0.00     0.000 HD 
BRANCH   4   6
HETATM    6  C   UNL     1      -9.727  12.187  66.510  1.00  0.00    -0.223 C  
BRANCH   6   7
HETATM    7  C   UNL     1      -8.993  11.516  67.686  1.00  0.00    -0.160 C  
HETATM    8  O   UNL     1      -8.713  12.475  68.717  1.00  0.00    -0.375 OA 
HETATM    9  H   UNL     1      -8.260  12.061  69.442  1.00  0.00     0.000 HD 
BRANCH   7  10
HETATM   10  C   UNL     1      -9.828  10.371  68.271  1.00  0.00    -0.154 C  
BRANCH  10  11
HETATM   11  O   UNL     1      -9.571  10.260  69.684  1.00  0.00    -0.215 OA 
BRANCH  11  12
HETATM   12  C   UNL     1     -10.666   9.965  70.454  1.00  0.00    -0.318 A  
HETATM   13  C   UNL     1     -10.558   8.992  71.469  1.00  0.00    -0.415 A  
HETATM   14  C   UNL     1     -11.913  10.563  70.212  1.00  0.00    -0.411 A  
HETATM   15  C   UNL     1     -11.684   8.692  72.255  1.00  0.00    -0.428 A  
HETATM   16  C   UNL     1     -13.025  10.240  70.989  1.00  0.00    -0.488 A  
HETATM   17  C   UNL     1     -12.911   9.309  72.013  1.00  0.00    -0.495 A  
BRANCH  13  18
HETATM   18  C   UNL     1      -9.267   8.284  71.755  1.00  0.00    -0.198 C  
HETATM   19  O   UNL     1      -8.628   8.545  72.772  1.00  0.00    -0.331 OA 
BRANCH  18  20
HETATM   20  C   UNL     1      -8.801   7.180  70.815  1.00  0.00    -0.148 C  
BRANCH  20  21
HETATM   21  C   UNL     1      -9.868   6.111  70.602  1.00  0.00    -0.214 C  
BRANCH  21  22
HETATM   22  C   UNL     1     -10.085   5.796  69.141  1.00  0.00    -0.257 A  
HETATM   23  C   UNL     1      -9.542   4.633  68.574  1.00  0.00    -0.220 A  
HETATM   24  C   UNL     1      -9.764   4.330  67.229  1.00  0.00    -0.216 A  
HETATM   25  C   UNL     1     -10.524   5.187  66.437  1.00  0.00    -0.356 A  
HETATM   26  C   UNL     1     -11.056   6.352  66.987  1.00  0.00    -0.405 A  
HETATM   27  C   UNL     1     -10.835   6.658  68.332  1.00  0.00    -0.320 A  
ENDBRANCH  21  22
ENDBRANCH  20  21
ENDBRANCH  18  20
ENDBRANCH  13  18
ENDBRANCH  11  12
ENDBRANCH  10  11
ENDBRANCH   7  10
ENDBRANCH   6   7
ENDBRANCH   4   6
ENDBRANCH   3   4
ENDBRANCH   2   3
TORSDOF 11
ENDMDL
MODEL      121
REMARK 921   NORMALIZED FREE ENERGY PREDICTED BY IDOCK:   -5.15 KCAL/MOL
REMARK 922        TOTAL FREE ENERGY PREDICTED BY IDOCK:   -9.48 KCAL/MOL
REMARK 923 INTER-LIGAND FREE ENERGY PREDICTED BY IDOCK:   -7.34 KCAL/MOL
REMARK 924 INTRA-LIGAND FREE ENERGY PREDICTED BY IDOCK:   -2.14 KCAL/MOL
REMARK 927      BINDING AFFINITY PREDICTED BY RF-SCORE:    0.00 PKD
ROOT
HETATM    1  C   UNL     1      -7.945  20.010  67.113  1.00  0.00    -0.351 C  
HETATM    2  C   UNL     1      -8.871  18.961  66.517  1.00  0.00    -0.324 C  
ENDROOT
BRANCH   2   3
HETATM    3  C   UNL     1     -10.057  18.682  67.441  1.00  0.00    -0.362 C  
BRANCH   3   4
HETATM    4  N   UNL     1     -10.125  17.252  67.733  1.00  0.00    -0.298 NA 
HETATM    5  H   UNL     1     -10.130  16.689  66.883  1.00  0.00     0.000 HD 
BRANCH   4   6
HETATM    6  C   UNL     1      -9.036  16.866  68.640  1.00  0.00    -0.266 C  
BRANCH   6   7
HETATM    7  C   UNL     1      -8.312  15.607  68.130  1.00  0.00    -0.146 C  
HETATM    8  O   UNL     1      -8.531  14.503  69.022  1.00  0.00    -0.271 OA 
HETATM    9  H   UNL     1      -8.083  13.727  68.706  1.00  0.00     0.000 HD 
BRANCH   7  10
HETATM   10  C   UNL     1      -8.796  15.229  66.725  1.00  0.00    -0.271 C  
BRANCH  10  11
HETATM   11  O   UNL     1      -9.142  13.830  66.695  1.00  0.00    -0.240 OA 
BRANCH  11  12
HETATM   12  C   UNL     1     -10.246  13.519  65.943  1.00  0.00    -0.301 A  
HETATM   13  C   UNL     1     -11.523  13.552  66.541  1.00  0.00    -0.365 A  
HETATM   14  C   UNL     1     -10.128  13.102  64.609  1.00  0.00    -0.248 A  
HETATM   15  C   UNL     1     -12.651  13.231  65.767  1.00  0.00    -0.413 A  
HETATM   16  C   UNL     1     -11.256  12.767  63.860  1.00  0.00    -0.491 A  
HETATM   17  C   UNL     1     -12.517  12.836  64.436  1.00  0.00    -0.476 A  
BRANCH  13  18
HETATM   18  C   UNL     1     -11.718  13.950  67.974  1.00  0.00    -0.352 C  
HETATM   19  O   UNL     1     -12.075  15.090  68.259  1.00  0.00    -0.240 OA 
BRANCH  18  20
HETATM   20  C   UNL     1     -11.550  12.900  69.065  1.00  0.00    -0.372 C  
BRANCH  20  21
HETATM   21  C   UNL     1     -11.832  11.488  68.560  1.00  0.00    -0.365 C  
BRANCH  21  22
HETATM   22  C   UNL     1     -10.590  10.803  68.041  1.00  0.00    -0.245 A  
HETATM   23  C   UNL     1     -10.659   9.951  66.929  1.00  0.00    -0.248 A  
HETATM   24  C   UNL     1      -9.507   9.337  66.435  1.00  0.00    -0.277 A  
HETATM   25  C   UNL     1      -8.277   9.562  67.050  1.00  0.00    -0.113 A  
HETATM   26  C   UNL     1      -8.201  10.396  68.164  1.00  0.00    -0.116 A  
HETATM   27  C   UNL     1      -9.352  11.010  68.661  1.00  0.00    -0.196 A  
ENDBRANCH  21  22
ENDBRANCH  20  21
ENDBRANCH  18  20
ENDBRANCH  13  18
ENDBRANCH  11  12
ENDBRANCH  10  11
ENDBRANCH   7  10
ENDBRANCH   6   7
ENDBRANCH   4   6
ENDBRANCH   3   4
ENDBRANCH   2   3
TORSDOF 11
ENDMDL
MODEL      122
REMARK 921   NORMALIZED FREE ENERGY PREDICTED BY IDOCK:   -5.14 KCAL/MOL
REMARK 922        TOTAL FREE ENERGY PREDICTED BY IDOCK:   -9.46 KCAL/MOL
REMARK 923 INTER-LIGAND FREE ENERGY PREDICTED BY IDOCK:   -8.27 KCAL/MOL
REMARK 924 INTRA-LIGAND FREE ENERGY PREDICTED BY IDOCK:   -1.19 KCAL/MOL
REMARK 927      BINDING AFFINITY PREDICTED BY RF-SCORE:    0.00 PKD
ROOT
HETATM    1  C   UNL     1      -9.753  19.547  68.419  1.00  0.00    -0.498 C  
HETATM    2  C   UNL     1      -9.763  20.338  67.121  1.00  0.00    -0.592 C  
ENDROOT
BRANCH   2   3
HETATM    3  C   UNL     1     -10.393  19.531  65.986  1.00  0.00    -0.511 C  
BRANCH   3   4
HETATM    4  N   UNL     1     -10.908  18.268  66.510  1.00  0.00    -0.133 NA 
HETATM    5  H   UNL     1     -11.866  18.358  66.850  1.00  0.00     0.000 HD 
BRANCH   4   6
HETATM    6  C   UNL     1     -10.784  17.210  65.497  1.00  0.00    -0.117 C  
BRANCH   6   7
HETATM    7  C   UNL     1     -10.661  15.825  66.157  1.00  0.00    -0.313 C  
HETATM    8  O   UNL     1     -10.393  14.818  65.169  1.00  0.00    -0.384 OA 
HETATM    9  H   UNL     1     -10.317  13.963  65.577  1.00  0.00     0.000 HD 
BRANCH   7  10
HETATM   10  C   UNL     1      -9.543  15.816  67.207  1.00  0.00    -0.217 C  
BRANCH  10  11
HETATM   11  O   UNL     1      -9.674  14.648  68.040  1.00  0.00    -0.208 OA 
BRANCH  11  12
HETATM   12  C   UNL     1     -10.528  14.784  69.105  1.00  0.00    -0.239 A  
HETATM   13  C   UNL     1     -11.424  13.740  69.412  1.00  0.00    -0.341 A  
HETATM   14  C   UNL     1     -10.577  15.969  69.855  1.00  0.00    -0.314 A  
HETATM   15  C   UNL     1     -12.299  13.885  70.502  1.00  0.00    -0.439 A  
HETATM   16  C   UNL     1     -11.465  16.104  70.922  1.00  0.00    -0.421 A  
HETATM   17  C   UNL     1     -12.322  15.062  71.249  1.00  0.00    -0.387 A  
BRANCH  13  18
HETATM   18  C   UNL     1     -11.455  12.463  68.626  1.00  0.00    -0.303 C  
HETATM   19  O   UNL     1     -12.142  12.374  67.612  1.00  0.00    -0.470 OA 
BRANCH  18  20
HETATM   20  C   UNL     1     -10.560  11.307  69.053  1.00  0.00    -0.241 C  
BRANCH  20  21
HETATM   21  C   UNL     1     -10.152  10.424  67.878  1.00  0.00    -0.200 C  
BRANCH  21  22
HETATM   22  C   UNL     1     -10.435   8.962  68.129  1.00  0.00    -0.254 A  
HETATM   23  C   UNL     1     -10.583   8.479  69.438  1.00  0.00    -0.203 A  
HETATM   24  C   UNL     1     -10.868   7.132  69.667  1.00  0.00    -0.254 A  
HETATM   25  C   UNL     1     -11.005   6.254  68.594  1.00  0.00    -0.423 A  
HETATM   26  C   UNL     1     -10.847   6.722  67.291  1.00  0.00    -0.443 A  
HETATM   27  C   UNL     1     -10.559   8.068  67.058  1.00  0.00    -0.364 A  
ENDBRANCH  21  22
ENDBRANCH  20  21
ENDBRANCH  18  20
ENDBRANCH  13  18
ENDBRANCH  11  12
ENDBRANCH  10  11
ENDBRANCH   7  10
ENDBRANCH   6   7
ENDBRANCH   4   6
ENDBRANCH   3   4
ENDBRANCH   2   3
TORSDOF 11
ENDMDL
MODEL      123
REMARK 921   NORMALIZED FREE ENERGY PREDICTED BY IDOCK:   -5.12 KCAL/MOL
REMARK 922        TOTAL FREE ENERGY PREDICTED BY IDOCK:   -9.44 KCAL/MOL
REMARK 923 INTER-LIGAND FREE ENERGY PREDICTED BY IDOCK:   -7.90 KCAL/MOL
REMARK 924 INTRA-LIGAND FREE ENERGY PREDICTED BY IDOCK:   -1.54 KCAL/MOL
REMARK 927      BINDING AFFINITY PREDICTED BY RF-SCORE:    0.00 PKD
ROOT
HETATM    1  C   UNL     1      -8.037  15.902  68.244  1.00  0.00    -0.144 C  
HETATM    2  C   UNL     1      -7.198  14.746  67.719  1.00  0.00    -0.192 C  
ENDROOT
BRANCH   2   3
HETATM    3  C   UNL     1      -6.629  13.910  68.864  1.00  0.00    -0.103 C  
BRANCH   3   4
HETATM    4  N   UNL     1      -7.508  12.772  69.125  1.00  0.00    -0.321 NA 
HETATM    5  H   UNL     1      -8.455  12.934  68.782  1.00  0.00     0.000 HD 
BRANCH   4   6
HETATM    6  C   UNL     1      -6.926  11.543  68.568  1.00  0.00    -0.083 C  
BRANCH   6   7
HETATM    7  C   UNL     1      -6.763  10.466  69.656  1.00  0.00    -0.095 C  
HETATM    8  O   UNL     1      -6.606  11.074  70.947  1.00  0.00    -0.425 OA 
HETATM    9  H   UNL     1      -6.506  10.409  71.618  1.00  0.00     0.000 HD 
BRANCH   7  10
HETATM   10  C   UNL     1      -7.975   9.526  69.681  1.00  0.00    -0.120 C  
BRANCH  10  11
HETATM   11  O   UNL     1      -9.187  10.301  69.601  1.00  0.00    -0.199 OA 
BRANCH  11  12
HETATM   12  C   UNL     1     -10.225   9.839  70.369  1.00  0.00    -0.281 A  
HETATM   13  C   UNL     1     -11.523  10.347  70.157  1.00  0.00    -0.396 A  
HETATM   14  C   UNL     1     -10.013   8.920  71.409  1.00  0.00    -0.378 A  
HETATM   15  C   UNL     1     -12.583   9.873  70.948  1.00  0.00    -0.392 A  
HETATM   16  C   UNL     1     -11.073   8.474  72.197  1.00  0.00    -0.436 A  
HETATM   17  C   UNL     1     -12.358   8.945  71.965  1.00  0.00    -0.460 A  
BRANCH  13  18
HETATM   18  C   UNL     1     -11.814  11.361  69.091  1.00  0.00    -0.345 C  
HETATM   19  O   UNL     1     -12.160  11.001  67.969  1.00  0.00    -0.615 OA 
BRANCH  18  20
HETATM   20  C   UNL     1     -11.756  12.843  69.440  1.00  0.00    -0.382 C  
BRANCH  20  21
HETATM   21  C   UNL     1     -10.671  13.580  68.661  1.00  0.00    -0.271 C  
BRANCH  21  22
HETATM   22  C   UNL     1     -10.967  13.646  67.182  1.00  0.00    -0.299 A  
HETATM   23  C   UNL     1     -10.027  13.190  66.245  1.00  0.00    -0.285 A  
HETATM   24  C   UNL     1     -10.312  13.230  64.879  1.00  0.00    -0.368 A  
HETATM   25  C   UNL     1     -11.534  13.729  64.435  1.00  0.00    -0.392 A  
HETATM   26  C   UNL     1     -12.469  14.197  65.357  1.00  0.00    -0.488 A  
HETATM   27  C   UNL     1     -12.186  14.160  66.724  1.00  0.00    -0.429 A  
ENDBRANCH  21  22
ENDBRANCH  20  21
ENDBRANCH  18  20
ENDBRANCH  13  18
ENDBRANCH  11  12
ENDBRANCH  10  11
ENDBRANCH   7  10
ENDBRANCH   6   7
ENDBRANCH   4   6
ENDBRANCH   3   4
ENDBRANCH   2   3
TORSDOF 11
ENDMDL
MODEL      124
REMARK 921   NORMALIZED FREE ENERGY PREDICTED BY IDOCK:   -5.12 KCAL/MOL
REMARK 922        TOTAL FREE ENERGY PREDICTED BY IDOCK:   -9.43 KCAL/MOL
REMARK 923 INTER-LIGAND FREE ENERGY PREDICTED BY IDOCK:   -7.59 KCAL/MOL
REMARK 924 INTRA-LIGAND FREE ENERGY PREDICTED BY IDOCK:   -1.84 KCAL/MOL
REMARK 927      BINDING AFFINITY PREDICTED BY RF-SCORE:    0.00 PKD
ROOT
HETATM    1  C   UNL     1     -12.330  13.494  66.960  1.00  0.00    -0.260 C  
HETATM    2  C   UNL     1     -11.836  14.568  66.003  1.00  0.00    -0.339 C  
ENDROOT
BRANCH   2   3
HETATM    3  C   UNL     1     -12.356  14.327  64.587  1.00  0.00    -0.415 C  
BRANCH   3   4
HETATM    4  N   UNL     1     -11.338  13.632  63.801  1.00  0.00    -0.567 NA 
HETATM    5  H   UNL     1     -10.402  13.767  64.185  1.00  0.00     0.000 HD 
BRANCH   4   6
HETATM    6  C   UNL     1     -11.678  12.208  63.675  1.00  0.00    -0.498 C  
BRANCH   6   7
HETATM    7  C   UNL     1     -10.413  11.332  63.712  1.00  0.00    -0.399 C  
HETATM    8  O   UNL     1      -9.295  12.039  63.152  1.00  0.00    -0.664 OA 
HETATM    9  H   UNL     1      -8.514  11.498  63.175  1.00  0.00     0.000 HD 
BRANCH   7  10
HETATM   10  C   UNL     1     -10.080  10.912  65.149  1.00  0.00    -0.292 C  
BRANCH  10  11
HETATM   11  O   UNL     1      -9.494  12.025  65.852  1.00  0.00    -0.234 OA 
BRANCH  11  12
HETATM   12  C   UNL     1      -8.435  11.708  66.664  1.00  0.00    -0.165 A  
HETATM   13  C   UNL     1      -8.009  12.634  67.639  1.00  0.00    -0.169 A  
HETATM   14  C   UNL     1      -7.722  10.511  66.503  1.00  0.00    -0.131 A  
HETATM   15  C   UNL     1      -6.922  12.307  68.467  1.00  0.00    -0.092 A  
HETATM   16  C   UNL     1      -6.634  10.209  67.321  1.00  0.00    -0.069 A  
HETATM   17  C   UNL     1      -6.236  11.103  68.306  1.00  0.00    -0.049 A  
BRANCH  13  18
HETATM   18  C   UNL     1      -8.699  13.950  67.839  1.00  0.00    -0.184 C  
HETATM   19  O   UNL     1      -9.512  14.094  68.749  1.00  0.00    -0.186 OA 
BRANCH  18  20
HETATM   20  C   UNL     1      -8.318  15.130  66.953  1.00  0.00    -0.267 C  
BRANCH  20  21
HETATM   21  C   UNL     1      -7.926  16.361  67.764  1.00  0.00    -0.160 C  
BRANCH  21  22
HETATM   22  C   UNL     1      -8.821  17.545  67.485  1.00  0.00    -0.229 A  
HETATM   23  C   UNL     1      -9.648  17.562  66.353  1.00  0.00    -0.283 A  
HETATM   24  C   UNL     1     -10.493  18.647  66.109  1.00  0.00    -0.473 A  
HETATM   25  C   UNL     1     -10.515  19.726  66.989  1.00  0.00    -0.595 A  
HETATM   26  C   UNL     1      -9.687  19.725  68.110  1.00  0.00    -0.506 A  
HETATM   27  C   UNL     1      -8.840  18.642  68.356  1.00  0.00    -0.367 A  
ENDBRANCH  21  22
ENDBRANCH  20  21
ENDBRANCH  18  20
ENDBRANCH  13  18
ENDBRANCH  11  12
ENDBRANCH  10  11
ENDBRANCH   7  10
ENDBRANCH   6   7
ENDBRANCH   4   6
ENDBRANCH   3   4
ENDBRANCH   2   3
TORSDOF 11
ENDMDL
MODEL      125
REMARK 921   NORMALIZED FREE ENERGY PREDICTED BY IDOCK:   -5.11 KCAL/MOL
REMARK 922        TOTAL FREE ENERGY PREDICTED BY IDOCK:   -9.42 KCAL/MOL
REMARK 923 INTER-LIGAND FREE ENERGY PREDICTED BY IDOCK:   -8.25 KCAL/MOL
REMARK 924 INTRA-LIGAND FREE ENERGY PREDICTED BY IDOCK:   -1.17 KCAL/MOL
REMARK 927      BINDING AFFINITY PREDICTED BY RF-SCORE:    0.00 PKD
ROOT
HETATM    1  C   UNL     1      -7.421   9.720  65.230  1.00  0.00    -0.120 C  
HETATM    2  C   UNL     1      -8.815   9.173  64.961  1.00  0.00    -0.230 C  
ENDROOT
BRANCH   2   3
HETATM    3  C   UNL     1      -9.563   8.901  66.265  1.00  0.00    -0.260 C  
BRANCH   3   4
HETATM    4  N   UNL     1      -9.948  10.167  66.885  1.00  0.00    -0.198 NA 
HETATM    5  H   UNL     1     -10.326  10.826  66.203  1.00  0.00     0.000 HD 
BRANCH   4   6
HETATM    6  C   UNL     1     -10.882   9.928  67.993  1.00  0.00    -0.243 C  
BRANCH   6   7
HETATM    7  C   UNL     1     -10.639  10.920  69.145  1.00  0.00    -0.220 C  
HETATM    8  O   UNL     1      -9.805  12.004  68.708  1.00  0.00    -0.366 OA 
HETATM    9  H   UNL     1      -9.655  12.615  69.419  1.00  0.00     0.000 HD 
BRANCH   7  10
HETATM   10  C   UNL     1     -11.965  11.481  69.673  1.00  0.00    -0.339 C  
BRANCH  10  11
HETATM   11  O   UNL     1     -12.046  12.888  69.373  1.00  0.00    -0.275 OA 
BRANCH  11  12
HETATM   12  C   UNL     1     -12.199  13.707  70.462  1.00  0.00    -0.368 A  
HETATM   13  C   UNL     1     -11.567  14.968  70.474  1.00  0.00    -0.343 A  
HETATM   14  C   UNL     1     -12.915  13.292  71.595  1.00  0.00    -0.441 A  
HETATM   15  C   UNL     1     -11.724  15.804  71.592  1.00  0.00    -0.542 A  
HETATM   16  C   UNL     1     -13.045  14.126  72.705  1.00  0.00    -0.573 A  
HETATM   17  C   UNL     1     -12.455  15.383  72.703  1.00  0.00    -0.480 A  
BRANCH  13  18
HETATM   18  C   UNL     1     -10.753  15.459  69.314  1.00  0.00    -0.251 C  
HETATM   19  O   UNL     1      -9.608  15.048  69.140  1.00  0.00    -0.210 OA 
BRANCH  18  20
HETATM   20  C   UNL     1     -11.390  16.409  68.308  1.00  0.00    -0.241 C  
BRANCH  20  21
HETATM   21  C   UNL     1     -10.586  16.510  67.016  1.00  0.00    -0.255 C  
BRANCH  21  22
HETATM   22  C   UNL     1      -9.778  17.784  66.938  1.00  0.00    -0.300 A  
HETATM   23  C   UNL     1      -8.433  17.752  66.541  1.00  0.00    -0.288 A  
HETATM   24  C   UNL     1      -7.695  18.933  66.446  1.00  0.00    -0.291 A  
HETATM   25  C   UNL     1      -8.290  20.155  66.750  1.00  0.00    -0.356 A  
HETATM   26  C   UNL     1      -9.622  20.196  67.157  1.00  0.00    -0.554 A  
HETATM   27  C   UNL     1     -10.362  19.017  67.255  1.00  0.00    -0.505 A  
ENDBRANCH  21  22
ENDBRANCH  20  21
ENDBRANCH  18  20
ENDBRANCH  13  18
ENDBRANCH  11  12
ENDBRANCH  10  11
ENDBRANCH   7  10
ENDBRANCH   6   7
ENDBRANCH   4   6
ENDBRANCH   3   4
ENDBRANCH   2   3
TORSDOF 11
ENDMDL
MODEL      126
REMARK 921   NORMALIZED FREE ENERGY PREDICTED BY IDOCK:   -5.08 KCAL/MOL
REMARK 922        TOTAL FREE ENERGY PREDICTED BY IDOCK:   -9.37 KCAL/MOL
REMARK 923 INTER-LIGAND FREE ENERGY PREDICTED BY IDOCK:   -7.99 KCAL/MOL
REMARK 924 INTRA-LIGAND FREE ENERGY PREDICTED BY IDOCK:   -1.38 KCAL/MOL
REMARK 927      BINDING AFFINITY PREDICTED BY RF-SCORE:    0.00 PKD
ROOT
HETATM    1  C   UNL     1      -9.828  19.488  68.527  1.00  0.00    -0.518 C  
HETATM    2  C   UNL     1      -9.918  20.159  67.165  1.00  0.00    -0.595 C  
ENDROOT
BRANCH   2   3
HETATM    3  C   UNL     1     -10.463  19.198  66.110  1.00  0.00    -0.477 C  
BRANCH   3   4
HETATM    4  N   UNL     1     -10.489  17.840  66.649  1.00  0.00    -0.331 NA 
HETATM    5  H   UNL     1     -11.202  17.730  67.371  1.00  0.00     0.000 HD 
BRANCH   4   6
HETATM    6  C   UNL     1     -10.654  16.864  65.563  1.00  0.00    -0.202 C  
BRANCH   6   7
HETATM    7  C   UNL     1     -10.394  15.431  66.062  1.00  0.00    -0.324 C  
HETATM    8  O   UNL     1     -10.089  14.562  64.961  1.00  0.00    -0.446 OA 
HETATM    9  H   UNL     1      -9.929  13.678  65.270  1.00  0.00     0.000 HD 
BRANCH   7  10
HETATM   10  C   UNL     1      -9.237  15.404  67.067  1.00  0.00    -0.225 C  
BRANCH  10  11
HETATM   11  O   UNL     1      -9.451  14.344  68.019  1.00  0.00    -0.197 OA 
BRANCH  11  12
HETATM   12  C   UNL     1     -10.389  14.608  68.984  1.00  0.00    -0.235 A  
HETATM   13  C   UNL     1     -11.446  13.698  69.190  1.00  0.00    -0.346 A  
HETATM   14  C   UNL     1     -10.359  15.798  69.727  1.00  0.00    -0.307 A  
HETATM   15  C   UNL     1     -12.407  13.973  70.178  1.00  0.00    -0.409 A  
HETATM   16  C   UNL     1     -11.330  16.065  70.691  1.00  0.00    -0.424 A  
HETATM   17  C   UNL     1     -12.351  15.153  70.921  1.00  0.00    -0.412 A  
BRANCH  13  18
HETATM   18  C   UNL     1     -11.564  12.426  68.404  1.00  0.00    -0.324 C  
HETATM   19  O   UNL     1     -12.189  12.405  67.346  1.00  0.00    -0.459 OA 
BRANCH  18  20
HETATM   20  C   UNL     1     -10.830  11.182  68.889  1.00  0.00    -0.261 C  
BRANCH  20  21
HETATM   21  C   UNL     1     -10.929  10.027  67.899  1.00  0.00    -0.311 C  
BRANCH  21  22
HETATM   22  C   UNL     1      -9.855  10.081  66.839  1.00  0.00    -0.248 A  
HETATM   23  C   UNL     1     -10.190  10.003  65.479  1.00  0.00    -0.248 A  
HETATM   24  C   UNL     1      -9.198  10.077  64.500  1.00  0.00    -0.313 A  
HETATM   25  C   UNL     1      -7.862  10.224  64.868  1.00  0.00    -0.134 A  
HETATM   26  C   UNL     1      -7.518  10.289  66.217  1.00  0.00    -0.118 A  
HETATM   27  C   UNL     1      -8.508  10.213  67.199  1.00  0.00    -0.125 A  
ENDBRANCH  21  22
ENDBRANCH  20  21
ENDBRANCH  18  20
ENDBRANCH  13  18
ENDBRANCH  11  12
ENDBRANCH  10  11
ENDBRANCH   7  10
ENDBRANCH   6   7
ENDBRANCH   4   6
ENDBRANCH   3   4
ENDBRANCH   2   3
TORSDOF 11
ENDMDL
MODEL      127
REMARK 921   NORMALIZED FREE ENERGY PREDICTED BY IDOCK:   -5.08 KCAL/MOL
REMARK 922        TOTAL FREE ENERGY PREDICTED BY IDOCK:   -9.36 KCAL/MOL
REMARK 923 INTER-LIGAND FREE ENERGY PREDICTED BY IDOCK:   -8.41 KCAL/MOL
REMARK 924 INTRA-LIGAND FREE ENERGY PREDICTED BY IDOCK:   -0.95 KCAL/MOL
REMARK 927      BINDING AFFINITY PREDICTED BY RF-SCORE:    0.00 PKD
ROOT
HETATM    1  C   UNL     1      -7.139  17.267  68.947  1.00  0.00    -0.242 C  
HETATM    2  C   UNL     1      -7.515  18.697  68.589  1.00  0.00    -0.332 C  
ENDROOT
BRANCH   2   3
HETATM    3  C   UNL     1      -8.918  18.765  67.987  1.00  0.00    -0.299 C  
BRANCH   3   4
HETATM    4  N   UNL     1      -9.810  17.866  68.716  1.00  0.00    -0.357 NA 
HETATM    5  H   UNL     1     -10.266  18.335  69.499  1.00  0.00     0.000 HD 
BRANCH   4   6
HETATM    6  C   UNL     1     -10.783  17.260  67.797  1.00  0.00    -0.333 C  
BRANCH   6   7
HETATM    7  C   UNL     1     -10.657  15.726  67.792  1.00  0.00    -0.292 C  
HETATM    8  O   UNL     1      -9.546  15.315  66.981  1.00  0.00    -0.216 OA 
HETATM    9  H   UNL     1      -9.468  14.368  66.978  1.00  0.00     0.000 HD 
BRANCH   7  10
HETATM   10  C   UNL     1     -10.474  15.187  69.216  1.00  0.00    -0.260 C  
BRANCH  10  11
HETATM   11  O   UNL     1     -11.241  13.978  69.375  1.00  0.00    -0.252 OA 
BRANCH  11  12
HETATM   12  C   UNL     1     -12.102  13.971  70.443  1.00  0.00    -0.356 A  
HETATM   13  C   UNL     1     -12.654  12.749  70.880  1.00  0.00    -0.342 A  
HETATM   14  C   UNL     1     -12.500  15.162  71.069  1.00  0.00    -0.419 A  
HETATM   15  C   UNL     1     -13.537  12.746  71.973  1.00  0.00    -0.460 A  
HETATM   16  C   UNL     1     -13.392  15.144  72.141  1.00  0.00    -0.501 A  
HETATM   17  C   UNL     1     -13.907  13.938  72.596  1.00  0.00    -0.515 A  
BRANCH  13  18
HETATM   18  C   UNL     1     -12.305  11.443  70.230  1.00  0.00    -0.297 C  
HETATM   19  O   UNL     1     -12.651  11.212  69.074  1.00  0.00    -0.370 OA 
BRANCH  18  20
HETATM   20  C   UNL     1     -11.446  10.441  70.991  1.00  0.00    -0.304 C  
BRANCH  20  21
HETATM   21  C   UNL     1     -12.285   9.406  71.735  1.00  0.00    -0.465 C  
BRANCH  21  22
HETATM   22  C   UNL     1     -11.752   8.003  71.566  1.00  0.00    -0.321 A  
HETATM   23  C   UNL     1     -11.641   7.431  70.290  1.00  0.00    -0.155 A  
HETATM   24  C   UNL     1     -11.126   6.143  70.133  1.00  0.00    -0.448 A  
HETATM   25  C   UNL     1     -10.723   5.412  71.248  1.00  0.00    -0.249 A  
HETATM   26  C   UNL     1     -10.842   5.966  72.522  1.00  0.00    -0.289 A  
HETATM   27  C   UNL     1     -11.358   7.254  72.682  1.00  0.00    -0.333 A  
ENDBRANCH  21  22
ENDBRANCH  20  21
ENDBRANCH  18  20
ENDBRANCH  13  18
ENDBRANCH  11  12
ENDBRANCH  10  11
ENDBRANCH   7  10
ENDBRANCH   6   7
ENDBRANCH   4   6
ENDBRANCH   3   4
ENDBRANCH   2   3
TORSDOF 11
ENDMDL
MODEL      128
REMARK 921   NORMALIZED FREE ENERGY PREDICTED BY IDOCK:   -5.08 KCAL/MOL
REMARK 922        TOTAL FREE ENERGY PREDICTED BY IDOCK:   -9.36 KCAL/MOL
REMARK 923 INTER-LIGAND FREE ENERGY PREDICTED BY IDOCK:   -8.83 KCAL/MOL
REMARK 924 INTRA-LIGAND FREE ENERGY PREDICTED BY IDOCK:   -0.53 KCAL/MOL
REMARK 927      BINDING AFFINITY PREDICTED BY RF-SCORE:    0.00 PKD
ROOT
HETATM    1  C   UNL     1      -7.638  10.066  63.598  1.00  0.00    -0.143 C  
HETATM    2  C   UNL     1      -9.083   9.617  63.445  1.00  0.00    -0.213 C  
ENDROOT
BRANCH   2   3
HETATM    3  C   UNL     1      -9.999  10.362  64.413  1.00  0.00    -0.318 C  
BRANCH   3   4
HETATM    4  N   UNL     1     -11.010  11.103  63.662  1.00  0.00    -0.570 NA 
HETATM    5  H   UNL     1     -11.955  10.779  63.872  1.00  0.00     0.000 HD 
BRANCH   4   6
HETATM    6  C   UNL     1     -10.861  12.546  63.895  1.00  0.00    -0.431 C  
BRANCH   6   7
HETATM    7  C   UNL     1     -10.794  12.859  65.401  1.00  0.00    -0.283 C  
HETATM    8  O   UNL     1      -9.471  13.277  65.769  1.00  0.00    -0.472 OA 
HETATM    9  H   UNL     1      -9.430  13.469  66.699  1.00  0.00     0.000 HD 
BRANCH   7  10
HETATM   10  C   UNL     1     -11.797  13.955  65.778  1.00  0.00    -0.378 C  
BRANCH  10  11
HETATM   11  O   UNL     1     -11.976  13.973  67.207  1.00  0.00    -0.390 OA 
BRANCH  11  12
HETATM   12  C   UNL     1     -11.424  15.051  67.850  1.00  0.00    -0.340 A  
HETATM   13  C   UNL     1     -11.597  15.191  69.243  1.00  0.00    -0.344 A  
HETATM   14  C   UNL     1     -10.746  16.056  67.143  1.00  0.00    -0.283 A  
HETATM   15  C   UNL     1     -11.031  16.298  69.897  1.00  0.00    -0.365 A  
HETATM   16  C   UNL     1     -10.207  17.159  67.805  1.00  0.00    -0.324 A  
HETATM   17  C   UNL     1     -10.344  17.278  69.181  1.00  0.00    -0.290 A  
BRANCH  13  18
HETATM   18  C   UNL     1     -12.345  14.176  70.055  1.00  0.00    -0.344 C  
HETATM   19  O   UNL     1     -13.326  14.509  70.715  1.00  0.00    -0.341 OA 
BRANCH  18  20
HETATM   20  C   UNL     1     -11.924  12.713  69.987  1.00  0.00    -0.377 C  
BRANCH  20  21
HETATM   21  C   UNL     1     -12.609  11.862  71.051  1.00  0.00    -0.381 C  
BRANCH  21  22
HETATM   22  C   UNL     1     -12.062  10.456  71.106  1.00  0.00    -0.487 A  
HETATM   23  C   UNL     1     -12.652   9.493  71.938  1.00  0.00    -0.479 A  
HETATM   24  C   UNL     1     -12.161   8.187  71.969  1.00  0.00    -0.388 A  
HETATM   25  C   UNL     1     -11.074   7.830  71.175  1.00  0.00    -0.269 A  
HETATM   26  C   UNL     1     -10.472   8.783  70.354  1.00  0.00    -0.240 A  
HETATM   27  C   UNL     1     -10.961  10.091  70.322  1.00  0.00    -0.377 A  
ENDBRANCH  21  22
ENDBRANCH  20  21
ENDBRANCH  18  20
ENDBRANCH  13  18
ENDBRANCH  11  12
ENDBRANCH  10  11
ENDBRANCH   7  10
ENDBRANCH   6   7
ENDBRANCH   4   6
ENDBRANCH   3   4
ENDBRANCH   2   3
TORSDOF 11
ENDMDL
MODEL      129
REMARK 921   NORMALIZED FREE ENERGY PREDICTED BY IDOCK:   -5.06 KCAL/MOL
REMARK 922        TOTAL FREE ENERGY PREDICTED BY IDOCK:   -9.34 KCAL/MOL
REMARK 923 INTER-LIGAND FREE ENERGY PREDICTED BY IDOCK:   -7.46 KCAL/MOL
REMARK 924 INTRA-LIGAND FREE ENERGY PREDICTED BY IDOCK:   -1.87 KCAL/MOL
REMARK 927      BINDING AFFINITY PREDICTED BY RF-SCORE:    0.00 PKD
ROOT
HETATM    1  C   UNL     1      -5.854  20.409  69.452  1.00  0.00    -0.385 C  
HETATM    2  C   UNL     1      -5.917  21.048  68.073  1.00  0.00    -0.396 C  
ENDROOT
BRANCH   2   3
HETATM    3  C   UNL     1      -7.283  20.831  67.424  1.00  0.00    -0.354 C  
BRANCH   3   4
HETATM    4  N   UNL     1      -7.627  19.411  67.467  1.00  0.00    -0.246 NA 
HETATM    5  H   UNL     1      -8.098  19.158  68.336  1.00  0.00     0.000 HD 
BRANCH   4   6
HETATM    6  C   UNL     1      -8.422  19.045  66.286  1.00  0.00    -0.280 C  
BRANCH   6   7
HETATM    7  C   UNL     1      -9.908  18.881  66.649  1.00  0.00    -0.358 C  
HETATM    8  O   UNL     1     -10.661  18.445  65.507  1.00  0.00    -0.627 OA 
HETATM    9  H   UNL     1     -11.578  18.344  65.732  1.00  0.00     0.000 HD 
BRANCH   7  10
HETATM   10  C   UNL     1     -10.085  17.871  67.789  1.00  0.00    -0.348 C  
BRANCH  10  11
HETATM   11  O   UNL     1     -10.966  16.814  67.364  1.00  0.00    -0.232 OA 
BRANCH  11  12
HETATM   12  C   UNL     1     -11.341  15.935  68.348  1.00  0.00    -0.361 A  
HETATM   13  C   UNL     1     -11.698  14.616  68.000  1.00  0.00    -0.371 A  
HETATM   14  C   UNL     1     -11.441  16.338  69.688  1.00  0.00    -0.213 A  
HETATM   15  C   UNL     1     -12.084  13.720  69.012  1.00  0.00    -0.359 A  
HETATM   16  C   UNL     1     -11.843  15.442  70.678  1.00  0.00    -0.388 A  
HETATM   17  C   UNL     1     -12.160  14.133  70.342  1.00  0.00    -0.417 A  
BRANCH  13  18
HETATM   18  C   UNL     1     -11.654  14.129  66.582  1.00  0.00    -0.384 C  
HETATM   19  O   UNL     1     -12.694  13.950  65.954  1.00  0.00    -0.489 OA 
BRANCH  18  20
HETATM   20  C   UNL     1     -10.303  13.939  65.905  1.00  0.00    -0.318 C  
BRANCH  20  21
HETATM   21  C   UNL     1      -9.307  13.202  66.795  1.00  0.00    -0.244 C  
BRANCH  21  22
HETATM   22  C   UNL     1      -8.403  14.145  67.553  1.00  0.00    -0.194 A  
HETATM   23  C   UNL     1      -8.206  13.989  68.933  1.00  0.00     0.022 A  
HETATM   24  C   UNL     1      -7.352  14.846  69.629  1.00  0.00    -0.153 A  
HETATM   25  C   UNL     1      -6.691  15.870  68.955  1.00  0.00    -0.134 A  
HETATM   26  C   UNL     1      -6.890  16.042  67.586  1.00  0.00    -0.184 A  
HETATM   27  C   UNL     1      -7.745  15.187  66.888  1.00  0.00    -0.051 A  
ENDBRANCH  21  22
ENDBRANCH  20  21
ENDBRANCH  18  20
ENDBRANCH  13  18
ENDBRANCH  11  12
ENDBRANCH  10  11
ENDBRANCH   7  10
ENDBRANCH   6   7
ENDBRANCH   4   6
ENDBRANCH   3   4
ENDBRANCH   2   3
TORSDOF 11
ENDMDL
MODEL      130
REMARK 921   NORMALIZED FREE ENERGY PREDICTED BY IDOCK:   -5.06 KCAL/MOL
REMARK 922        TOTAL FREE ENERGY PREDICTED BY IDOCK:   -9.34 KCAL/MOL
REMARK 923 INTER-LIGAND FREE ENERGY PREDICTED BY IDOCK:   -8.42 KCAL/MOL
REMARK 924 INTRA-LIGAND FREE ENERGY PREDICTED BY IDOCK:   -0.92 KCAL/MOL
REMARK 927      BINDING AFFINITY PREDICTED BY RF-SCORE:    0.00 PKD
ROOT
HETATM    1  C   UNL     1      -9.933  20.305  66.550  1.00  0.00    -0.528 C  
HETATM    2  C   UNL     1     -10.431  19.176  67.438  1.00  0.00    -0.552 C  
ENDROOT
BRANCH   2   3
HETATM    3  C   UNL     1      -9.805  17.841  67.040  1.00  0.00    -0.309 C  
BRANCH   3   4
HETATM    4  N   UNL     1     -10.609  16.742  67.572  1.00  0.00    -0.324 NA 
HETATM    5  H   UNL     1     -10.189  15.833  67.377  1.00  0.00     0.000 HD 
BRANCH   4   6
HETATM    6  C   UNL     1     -10.850  16.938  69.008  1.00  0.00    -0.255 C  
BRANCH   6   7
HETATM    7  C   UNL     1     -11.327  15.633  69.671  1.00  0.00    -0.329 C  
HETATM    8  O   UNL     1     -12.761  15.557  69.658  1.00  0.00    -0.609 OA 
HETATM    9  H   UNL     1     -13.055  14.752  70.067  1.00  0.00     0.000 HD 
BRANCH   7  10
HETATM   10  C   UNL     1     -10.746  14.410  68.952  1.00  0.00    -0.253 C  
BRANCH  10  11
HETATM   11  O   UNL     1     -11.820  13.554  68.514  1.00  0.00    -0.329 OA 
BRANCH  11  12
HETATM   12  C   UNL     1     -11.662  13.015  67.263  1.00  0.00    -0.375 A  
HETATM   13  C   UNL     1     -10.897  11.841  67.106  1.00  0.00    -0.303 A  
HETATM   14  C   UNL     1     -12.189  13.643  66.125  1.00  0.00    -0.490 A  
HETATM   15  C   UNL     1     -10.736  11.293  65.822  1.00  0.00    -0.284 A  
HETATM   16  C   UNL     1     -12.004  13.097  64.855  1.00  0.00    -0.431 A  
HETATM   17  C   UNL     1     -11.282  11.921  64.703  1.00  0.00    -0.364 A  
BRANCH  13  18
HETATM   18  C   UNL     1     -10.270  11.140  68.275  1.00  0.00    -0.182 C  
HETATM   19  O   UNL     1      -9.107  11.376  68.590  1.00  0.00    -0.175 OA 
BRANCH  18  20
HETATM   20  C   UNL     1     -11.119  10.193  69.115  1.00  0.00    -0.257 C  
BRANCH  20  21
HETATM   21  C   UNL     1     -10.473   8.821  69.272  1.00  0.00    -0.228 C  
BRANCH  21  22
HETATM   22  C   UNL     1     -10.418   8.370  70.712  1.00  0.00    -0.230 A  
HETATM   23  C   UNL     1     -11.568   7.881  71.350  1.00  0.00    -0.304 A  
HETATM   24  C   UNL     1     -11.511   7.443  72.674  1.00  0.00    -0.337 A  
HETATM   25  C   UNL     1     -10.308   7.492  73.375  1.00  0.00    -0.405 A  
HETATM   26  C   UNL     1      -9.163   7.988  72.754  1.00  0.00    -0.318 A  
HETATM   27  C   UNL     1      -9.218   8.429  71.431  1.00  0.00    -0.242 A  
ENDBRANCH  21  22
ENDBRANCH  20  21
ENDBRANCH  18  20
ENDBRANCH  13  18
ENDBRANCH  11  12
ENDBRANCH  10  11
ENDBRANCH   7  10
ENDBRANCH   6   7
ENDBRANCH   4   6
ENDBRANCH   3   4
ENDBRANCH   2   3
TORSDOF 11
ENDMDL
MODEL      131
REMARK 921   NORMALIZED FREE ENERGY PREDICTED BY IDOCK:   -5.06 KCAL/MOL
REMARK 922        TOTAL FREE ENERGY PREDICTED BY IDOCK:   -9.34 KCAL/MOL
REMARK 923 INTER-LIGAND FREE ENERGY PREDICTED BY IDOCK:   -7.34 KCAL/MOL
REMARK 924 INTRA-LIGAND FREE ENERGY PREDICTED BY IDOCK:   -1.99 KCAL/MOL
REMARK 927      BINDING AFFINITY PREDICTED BY RF-SCORE:    0.00 PKD
ROOT
HETATM    1  C   UNL     1      -7.936   8.107  74.271  1.00  0.00    -0.310 C  
HETATM    2  C   UNL     1      -9.068   7.582  73.401  1.00  0.00    -0.264 C  
ENDROOT
BRANCH   2   3
HETATM    3  C   UNL     1      -9.841   6.471  74.110  1.00  0.00    -0.296 C  
BRANCH   3   4
HETATM    4  N   UNL     1     -11.142   6.291  73.468  1.00  0.00    -0.450 NA 
HETATM    5  H   UNL     1     -11.857   5.994  74.133  1.00  0.00     0.000 HD 
BRANCH   4   6
HETATM    6  C   UNL     1     -11.531   7.515  72.754  1.00  0.00    -0.300 C  
BRANCH   6   7
HETATM    7  C   UNL     1     -12.745   7.261  71.843  1.00  0.00    -0.277 C  
HETATM    8  O   UNL     1     -13.495   8.471  71.655  1.00  0.00    -0.341 OA 
HETATM    9  H   UNL     1     -14.244   8.314  71.092  1.00  0.00     0.000 HD 
BRANCH   7  10
HETATM   10  C   UNL     1     -12.301   6.721  70.478  1.00  0.00    -0.101 C  
BRANCH  10  11
HETATM   11  O   UNL     1     -10.888   6.943  70.308  1.00  0.00    -0.234 OA 
BRANCH  11  12
HETATM   12  C   UNL     1     -10.503   7.314  69.045  1.00  0.00    -0.211 A  
HETATM   13  C   UNL     1      -9.955   8.596  68.836  1.00  0.00    -0.197 A  
HETATM   14  C   UNL     1     -10.706   6.471  67.942  1.00  0.00    -0.357 A  
HETATM   15  C   UNL     1      -9.564   8.973  67.540  1.00  0.00    -0.182 A  
HETATM   16  C   UNL     1     -10.330   6.867  66.659  1.00  0.00    -0.214 A  
HETATM   17  C   UNL     1      -9.756   8.115  66.458  1.00  0.00    -0.309 A  
BRANCH  13  18
HETATM   18  C   UNL     1      -9.748   9.564  69.963  1.00  0.00    -0.236 C  
HETATM   19  O   UNL     1      -8.631   9.723  70.449  1.00  0.00    -0.188 OA 
BRANCH  18  20
HETATM   20  C   UNL     1     -10.923  10.408  70.442  1.00  0.00    -0.320 C  
BRANCH  20  21
HETATM   21  C   UNL     1     -11.982  10.595  69.361  1.00  0.00    -0.298 C  
BRANCH  21  22
HETATM   22  C   UNL     1     -11.854  11.923  68.653  1.00  0.00    -0.365 A  
HETATM   23  C   UNL     1     -11.901  13.124  69.376  1.00  0.00    -0.383 A  
HETATM   24  C   UNL     1     -11.759  14.350  68.724  1.00  0.00    -0.372 A  
HETATM   25  C   UNL     1     -11.574  14.389  67.344  1.00  0.00    -0.398 A  
HETATM   26  C   UNL     1     -11.539  13.202  66.614  1.00  0.00    -0.403 A  
HETATM   27  C   UNL     1     -11.683  11.975  67.264  1.00  0.00    -0.339 A  
ENDBRANCH  21  22
ENDBRANCH  20  21
ENDBRANCH  18  20
ENDBRANCH  13  18
ENDBRANCH  11  12
ENDBRANCH  10  11
ENDBRANCH   7  10
ENDBRANCH   6   7
ENDBRANCH   4   6
ENDBRANCH   3   4
ENDBRANCH   2   3
TORSDOF 11
ENDMDL
MODEL      132
REMARK 921   NORMALIZED FREE ENERGY PREDICTED BY IDOCK:   -5.04 KCAL/MOL
REMARK 922        TOTAL FREE ENERGY PREDICTED BY IDOCK:   -9.30 KCAL/MOL
REMARK 923 INTER-LIGAND FREE ENERGY PREDICTED BY IDOCK:   -7.96 KCAL/MOL
REMARK 924 INTRA-LIGAND FREE ENERGY PREDICTED BY IDOCK:   -1.34 KCAL/MOL
REMARK 927      BINDING AFFINITY PREDICTED BY RF-SCORE:    0.00 PKD
ROOT
HETATM    1  C   UNL     1      -5.260  20.014  70.142  1.00  0.00    -0.256 C  
HETATM    2  C   UNL     1      -5.912  19.626  68.823  1.00  0.00    -0.266 C  
ENDROOT
BRANCH   2   3
HETATM    3  C   UNL     1      -7.387  19.277  69.017  1.00  0.00    -0.345 C  
BRANCH   3   4
HETATM    4  N   UNL     1      -7.578  17.838  68.845  1.00  0.00    -0.259 NA 
HETATM    5  H   UNL     1      -8.061  17.420  69.641  1.00  0.00     0.000 HD 
BRANCH   4   6
HETATM    6  C   UNL     1      -8.271  17.564  67.578  1.00  0.00    -0.207 C  
BRANCH   6   7
HETATM    7  C   UNL     1      -9.428  18.555  67.356  1.00  0.00    -0.283 C  
HETATM    8  O   UNL     1      -9.584  18.841  65.958  1.00  0.00    -0.477 OA 
HETATM    9  H   UNL     1     -10.298  19.453  65.822  1.00  0.00     0.000 HD 
BRANCH   7  10
HETATM   10  C   UNL     1     -10.743  17.993  67.910  1.00  0.00    -0.313 C  
BRANCH  10  11
HETATM   11  O   UNL     1     -10.885  16.617  67.508  1.00  0.00    -0.305 OA 
BRANCH  11  12
HETATM   12  C   UNL     1     -11.279  15.758  68.502  1.00  0.00    -0.354 A  
HETATM   13  C   UNL     1     -11.748  14.473  68.161  1.00  0.00    -0.369 A  
HETATM   14  C   UNL     1     -11.290  16.153  69.848  1.00  0.00    -0.318 A  
HETATM   15  C   UNL     1     -12.153  13.596  69.182  1.00  0.00    -0.361 A  
HETATM   16  C   UNL     1     -11.713  15.278  70.848  1.00  0.00    -0.386 A  
HETATM   17  C   UNL     1     -12.139  13.999  70.517  1.00  0.00    -0.424 A  
BRANCH  13  18
HETATM   18  C   UNL     1     -11.803  13.999  66.739  1.00  0.00    -0.424 C  
HETATM   19  O   UNL     1     -12.882  13.889  66.161  1.00  0.00    -0.384 OA 
BRANCH  18  20
HETATM   20  C   UNL     1     -10.501  13.734  65.994  1.00  0.00    -0.297 C  
BRANCH  20  21
HETATM   21  C   UNL     1      -9.503  12.944  66.833  1.00  0.00    -0.237 C  
BRANCH  21  22
HETATM   22  C   UNL     1      -9.725  11.453  66.743  1.00  0.00    -0.221 A  
HETATM   23  C   UNL     1      -9.337  10.743  65.597  1.00  0.00    -0.241 A  
HETATM   24  C   UNL     1      -9.521   9.361  65.524  1.00  0.00    -0.328 A  
HETATM   25  C   UNL     1     -10.099   8.676  66.591  1.00  0.00    -0.364 A  
HETATM   26  C   UNL     1     -10.500   9.375  67.728  1.00  0.00    -0.310 A  
HETATM   27  C   UNL     1     -10.319  10.757  67.803  1.00  0.00    -0.226 A  
ENDBRANCH  21  22
ENDBRANCH  20  21
ENDBRANCH  18  20
ENDBRANCH  13  18
ENDBRANCH  11  12
ENDBRANCH  10  11
ENDBRANCH   7  10
ENDBRANCH   6   7
ENDBRANCH   4   6
ENDBRANCH   3   4
ENDBRANCH   2   3
TORSDOF 11
ENDMDL
MODEL      133
REMARK 921   NORMALIZED FREE ENERGY PREDICTED BY IDOCK:   -5.02 KCAL/MOL
REMARK 922        TOTAL FREE ENERGY PREDICTED BY IDOCK:   -9.27 KCAL/MOL
REMARK 923 INTER-LIGAND FREE ENERGY PREDICTED BY IDOCK:   -9.72 KCAL/MOL
REMARK 924 INTRA-LIGAND FREE ENERGY PREDICTED BY IDOCK:    0.45 KCAL/MOL
REMARK 927      BINDING AFFINITY PREDICTED BY RF-SCORE:    0.00 PKD
ROOT
HETATM    1  C   UNL     1     -10.697  11.931  63.371  1.00  0.00    -0.476 C  
HETATM    2  C   UNL     1     -12.046  12.634  63.382  1.00  0.00    -0.614 C  
ENDROOT
BRANCH   2   3
HETATM    3  C   UNL     1     -12.651  12.648  64.785  1.00  0.00    -0.454 C  
BRANCH   3   4
HETATM    4  N   UNL     1     -12.850  14.029  65.220  1.00  0.00    -0.744 NA 
HETATM    5  H   UNL     1     -13.828  14.224  65.434  1.00  0.00     0.000 HD 
BRANCH   4   6
HETATM    6  C   UNL     1     -11.969  14.337  66.355  1.00  0.00    -0.419 C  
BRANCH   6   7
HETATM    7  C   UNL     1     -11.391  13.050  66.971  1.00  0.00    -0.301 C  
HETATM    8  O   UNL     1     -10.035  13.260  67.395  1.00  0.00    -0.227 OA 
HETATM    9  H   UNL     1      -9.679  12.465  67.775  1.00  0.00     0.000 HD 
BRANCH   7  10
HETATM   10  C   UNL     1     -12.232  12.590  68.167  1.00  0.00     0.161 C  
BRANCH  10  11
HETATM   11  O   UNL     1     -11.530  12.884  69.391  1.00  0.00    -0.273 OA 
BRANCH  11  12
HETATM   12  C   UNL     1     -12.283  13.492  70.363  1.00  0.00    -0.356 A  
HETATM   13  C   UNL     1     -12.918  12.702  71.343  1.00  0.00    -0.353 A  
HETATM   14  C   UNL     1     -12.492  14.880  70.365  1.00  0.00    -0.403 A  
HETATM   15  C   UNL     1     -13.690  13.329  72.335  1.00  0.00    -0.678 A  
HETATM   16  C   UNL     1     -13.277  15.485  71.346  1.00  0.00    -0.587 A  
HETATM   17  C   UNL     1     -13.872  14.712  72.334  1.00  0.00    -0.580 A  
BRANCH  13  18
HETATM   18  C   UNL     1     -12.772  11.210  71.376  1.00  0.00    -0.418 C  
HETATM   19  O   UNL     1     -13.380  10.545  72.212  1.00  0.00    -0.384 OA 
BRANCH  18  20
HETATM   20  C   UNL     1     -11.927  10.522  70.311  1.00  0.00    -0.411 C  
BRANCH  20  21
HETATM   21  C   UNL     1     -10.665   9.892  70.890  1.00  0.00    -0.305 C  
BRANCH  21  22
HETATM   22  C   UNL     1     -10.843   8.424  71.199  1.00  0.00    -0.286 A  
HETATM   23  C   UNL     1     -10.899   7.977  72.528  1.00  0.00    -0.415 A  
HETATM   24  C   UNL     1     -11.088   6.623  72.812  1.00  0.00    -0.283 A  
HETATM   25  C   UNL     1     -11.216   5.703  71.774  1.00  0.00    -0.226 A  
HETATM   26  C   UNL     1     -11.147   6.135  70.451  1.00  0.00    -0.420 A  
HETATM   27  C   UNL     1     -10.957   7.489  70.164  1.00  0.00    -0.267 A  
ENDBRANCH  21  22
ENDBRANCH  20  21
ENDBRANCH  18  20
ENDBRANCH  13  18
ENDBRANCH  11  12
ENDBRANCH  10  11
ENDBRANCH   7  10
ENDBRANCH   6   7
ENDBRANCH   4   6
ENDBRANCH   3   4
ENDBRANCH   2   3
TORSDOF 11
ENDMDL
MODEL      134
REMARK 921   NORMALIZED FREE ENERGY PREDICTED BY IDOCK:   -5.02 KCAL/MOL
REMARK 922        TOTAL FREE ENERGY PREDICTED BY IDOCK:   -9.26 KCAL/MOL
REMARK 923 INTER-LIGAND FREE ENERGY PREDICTED BY IDOCK:   -7.87 KCAL/MOL
REMARK 924 INTRA-LIGAND FREE ENERGY PREDICTED BY IDOCK:   -1.39 KCAL/MOL
REMARK 927      BINDING AFFINITY PREDICTED BY RF-SCORE:    0.00 PKD
ROOT
HETATM    1  C   UNL     1     -12.142  13.149  64.172  1.00  0.00    -0.496 C  
HETATM    2  C   UNL     1     -11.757  11.832  63.515  1.00  0.00    -0.485 C  
ENDROOT
BRANCH   2   3
HETATM    3  C   UNL     1     -10.282  11.509  63.748  1.00  0.00    -0.382 C  
BRANCH   3   4
HETATM    4  N   UNL     1     -10.137  10.098  64.100  1.00  0.00    -0.463 NA 
HETATM    5  H   UNL     1     -10.138   9.498  63.275  1.00  0.00     0.000 HD 
BRANCH   4   6
HETATM    6  C   UNL     1      -8.935   9.899  64.921  1.00  0.00    -0.207 C  
BRANCH   6   7
HETATM    7  C   UNL     1      -9.125   8.730  65.905  1.00  0.00    -0.218 C  
HETATM    8  O   UNL     1      -8.059   8.704  66.867  1.00  0.00    -0.098 OA 
HETATM    9  H   UNL     1      -8.177   7.982  67.473  1.00  0.00     0.000 HD 
BRANCH   7  10
HETATM   10  C   UNL     1     -10.468   8.844  66.638  1.00  0.00    -0.161 C  
BRANCH  10  11
HETATM   11  O   UNL     1     -10.237   9.219  68.010  1.00  0.00    -0.188 OA 
BRANCH  11  12
HETATM   12  C   UNL     1     -10.847  10.381  68.407  1.00  0.00    -0.245 A  
HETATM   13  C   UNL     1     -11.142  10.577  69.772  1.00  0.00    -0.354 A  
HETATM   14  C   UNL     1     -11.247  11.352  67.476  1.00  0.00    -0.356 A  
HETATM   15  C   UNL     1     -11.769  11.769  70.174  1.00  0.00    -0.354 A  
HETATM   16  C   UNL     1     -11.886  12.521  67.890  1.00  0.00    -0.383 A  
HETATM   17  C   UNL     1     -12.143  12.732  69.237  1.00  0.00    -0.224 A  
BRANCH  13  18
HETATM   18  C   UNL     1     -10.781   9.563  70.816  1.00  0.00    -0.321 C  
HETATM   19  O   UNL     1      -9.606   9.257  71.005  1.00  0.00    -0.271 OA 
BRANCH  18  20
HETATM   20  C   UNL     1     -11.879   8.977  71.694  1.00  0.00    -0.431 C  
BRANCH  20  21
HETATM   21  C   UNL     1     -12.467   7.697  71.111  1.00  0.00    -0.273 C  
BRANCH  21  22
HETATM   22  C   UNL     1     -11.455   6.577  71.040  1.00  0.00    -0.392 A  
HETATM   23  C   UNL     1     -11.073   5.888  72.200  1.00  0.00    -0.333 A  
HETATM   24  C   UNL     1     -10.156   4.838  72.130  1.00  0.00    -0.252 A  
HETATM   25  C   UNL     1      -9.608   4.470  70.903  1.00  0.00    -0.250 A  
HETATM   26  C   UNL     1      -9.972   5.157  69.747  1.00  0.00    -0.313 A  
HETATM   27  C   UNL     1     -10.888   6.209  69.814  1.00  0.00    -0.421 A  
ENDBRANCH  21  22
ENDBRANCH  20  21
ENDBRANCH  18  20
ENDBRANCH  13  18
ENDBRANCH  11  12
ENDBRANCH  10  11
ENDBRANCH   7  10
ENDBRANCH   6   7
ENDBRANCH   4   6
ENDBRANCH   3   4
ENDBRANCH   2   3
TORSDOF 11
ENDMDL
MODEL      135
REMARK 921   NORMALIZED FREE ENERGY PREDICTED BY IDOCK:   -5.00 KCAL/MOL
REMARK 922        TOTAL FREE ENERGY PREDICTED BY IDOCK:   -9.23 KCAL/MOL
REMARK 923 INTER-LIGAND FREE ENERGY PREDICTED BY IDOCK:   -8.10 KCAL/MOL
REMARK 924 INTRA-LIGAND FREE ENERGY PREDICTED BY IDOCK:   -1.14 KCAL/MOL
REMARK 927      BINDING AFFINITY PREDICTED BY RF-SCORE:    0.00 PKD
ROOT
HETATM    1  C   UNL     1      -8.656   6.251  71.618  1.00  0.00    -0.133 C  
HETATM    2  C   UNL     1      -7.663   7.377  71.369  1.00  0.00    -0.086 C  
ENDROOT
BRANCH   2   3
HETATM    3  C   UNL     1      -8.373   8.724  71.250  1.00  0.00    -0.176 C  
BRANCH   3   4
HETATM    4  N   UNL     1      -9.503   8.604  70.331  1.00  0.00    -0.164 NA 
HETATM    5  H   UNL     1     -10.325   8.207  70.787  1.00  0.00     0.000 HD 
BRANCH   4   6
HETATM    6  C   UNL     1      -9.795   9.905  69.711  1.00  0.00    -0.236 C  
BRANCH   6   7
HETATM    7  C   UNL     1     -10.316   9.728  68.274  1.00  0.00    -0.198 C  
HETATM    8  O   UNL     1     -10.844   8.405  68.089  1.00  0.00    -0.443 OA 
HETATM    9  H   UNL     1     -11.165   8.297  67.201  1.00  0.00     0.000 HD 
BRANCH   7  10
HETATM   10  C   UNL     1     -11.405  10.759  67.955  1.00  0.00    -0.307 C  
BRANCH  10  11
HETATM   11  O   UNL     1     -10.898  12.085  68.197  1.00  0.00    -0.202 OA 
BRANCH  11  12
HETATM   12  C   UNL     1     -11.027  12.958  67.147  1.00  0.00    -0.262 A  
HETATM   13  C   UNL     1     -10.388  14.214  67.208  1.00  0.00    -0.267 A  
HETATM   14  C   UNL     1     -11.836  12.658  66.041  1.00  0.00    -0.492 A  
HETATM   15  C   UNL     1     -10.524  15.107  66.131  1.00  0.00    -0.320 A  
HETATM   16  C   UNL     1     -11.976  13.562  64.989  1.00  0.00    -0.399 A  
HETATM   17  C   UNL     1     -11.317  14.784  65.030  1.00  0.00    -0.391 A  
BRANCH  13  18
HETATM   18  C   UNL     1      -9.542  14.618  68.379  1.00  0.00    -0.217 C  
HETATM   19  O   UNL     1      -8.323  14.462  68.348  1.00  0.00    -0.143 OA 
BRANCH  18  20
HETATM   20  C   UNL     1     -10.200  15.300  69.571  1.00  0.00    -0.265 C  
BRANCH  20  21
HETATM   21  C   UNL     1     -11.699  15.497  69.372  1.00  0.00    -0.382 C  
BRANCH  21  22
HETATM   22  C   UNL     1     -12.520  14.765  70.407  1.00  0.00    -0.405 A  
HETATM   23  C   UNL     1     -12.276  13.412  70.684  1.00  0.00    -0.427 A  
HETATM   24  C   UNL     1     -13.020  12.743  71.658  1.00  0.00    -0.402 A  
HETATM   25  C   UNL     1     -14.016  13.417  72.361  1.00  0.00    -0.605 A  
HETATM   26  C   UNL     1     -14.275  14.758  72.084  1.00  0.00    -0.608 A  
HETATM   27  C   UNL     1     -13.534  15.429  71.109  1.00  0.00    -0.565 A  
ENDBRANCH  21  22
ENDBRANCH  20  21
ENDBRANCH  18  20
ENDBRANCH  13  18
ENDBRANCH  11  12
ENDBRANCH  10  11
ENDBRANCH   7  10
ENDBRANCH   6   7
ENDBRANCH   4   6
ENDBRANCH   3   4
ENDBRANCH   2   3
TORSDOF 11
ENDMDL
MODEL      136
REMARK 921   NORMALIZED FREE ENERGY PREDICTED BY IDOCK:   -4.99 KCAL/MOL
REMARK 922        TOTAL FREE ENERGY PREDICTED BY IDOCK:   -9.21 KCAL/MOL
REMARK 923 INTER-LIGAND FREE ENERGY PREDICTED BY IDOCK:   -8.24 KCAL/MOL
REMARK 924 INTRA-LIGAND FREE ENERGY PREDICTED BY IDOCK:   -0.97 KCAL/MOL
REMARK 927      BINDING AFFINITY PREDICTED BY RF-SCORE:    0.00 PKD
ROOT
HETATM    1  C   UNL     1      -9.882   2.244  71.906  1.00  0.00    -0.225 C  
HETATM    2  C   UNL     1      -9.907   3.581  72.631  1.00  0.00    -0.211 C  
ENDROOT
BRANCH   2   3
HETATM    3  C   UNL     1     -11.298   3.882  73.187  1.00  0.00    -0.034 C  
BRANCH   3   4
HETATM    4  N   UNL     1     -11.510   5.328  73.226  1.00  0.00    -0.508 NA 
HETATM    5  H   UNL     1     -12.401   5.571  73.660  1.00  0.00     0.000 HD 
BRANCH   4   6
HETATM    6  C   UNL     1     -10.378   5.990  73.889  1.00  0.00    -0.284 C  
BRANCH   6   7
HETATM    7  C   UNL     1     -10.127   7.386  73.291  1.00  0.00    -0.316 C  
HETATM    8  O   UNL     1      -9.109   8.075  74.033  1.00  0.00    -0.365 OA 
HETATM    9  H   UNL     1      -8.954   8.937  73.663  1.00  0.00     0.000 HD 
BRANCH   7  10
HETATM   10  C   UNL     1      -9.703   7.284  71.821  1.00  0.00    -0.153 C  
BRANCH  10  11
HETATM   11  O   UNL     1     -10.868   7.367  70.977  1.00  0.00    -0.234 OA 
BRANCH  11  12
HETATM   12  C   UNL     1     -11.524   8.571  71.008  1.00  0.00    -0.273 A  
HETATM   13  C   UNL     1     -11.138   9.593  70.117  1.00  0.00    -0.314 A  
HETATM   14  C   UNL     1     -12.528   8.833  71.953  1.00  0.00    -0.434 A  
HETATM   15  C   UNL     1     -11.812  10.826  70.153  1.00  0.00    -0.427 A  
HETATM   16  C   UNL     1     -13.173  10.069  71.989  1.00  0.00    -0.545 A  
HETATM   17  C   UNL     1     -12.820  11.063  71.087  1.00  0.00    -0.491 A  
BRANCH  13  18
HETATM   18  C   UNL     1     -10.046   9.396  69.108  1.00  0.00    -0.195 C  
HETATM   19  O   UNL     1      -8.869   9.382  69.461  1.00  0.00    -0.141 OA 
BRANCH  18  20
HETATM   20  C   UNL     1     -10.417   9.132  67.654  1.00  0.00    -0.323 C  
BRANCH  20  21
HETATM   21  C   UNL     1      -9.611   9.990  66.685  1.00  0.00    -0.234 C  
BRANCH  21  22
HETATM   22  C   UNL     1     -10.482  10.924  65.879  1.00  0.00    -0.285 A  
HETATM   23  C   UNL     1     -11.366  11.804  66.519  1.00  0.00    -0.370 A  
HETATM   24  C   UNL     1     -12.154  12.684  65.774  1.00  0.00    -0.484 A  
HETATM   25  C   UNL     1     -12.069  12.689  64.384  1.00  0.00    -0.487 A  
HETATM   26  C   UNL     1     -11.204  11.809  63.737  1.00  0.00    -0.518 A  
HETATM   27  C   UNL     1     -10.416  10.927  64.480  1.00  0.00    -0.393 A  
ENDBRANCH  21  22
ENDBRANCH  20  21
ENDBRANCH  18  20
ENDBRANCH  13  18
ENDBRANCH  11  12
ENDBRANCH  10  11
ENDBRANCH   7  10
ENDBRANCH   6   7
ENDBRANCH   4   6
ENDBRANCH   3   4
ENDBRANCH   2   3
TORSDOF 11
ENDMDL
MODEL      137
REMARK 921   NORMALIZED FREE ENERGY PREDICTED BY IDOCK:   -4.98 KCAL/MOL
REMARK 922        TOTAL FREE ENERGY PREDICTED BY IDOCK:   -9.20 KCAL/MOL
REMARK 923 INTER-LIGAND FREE ENERGY PREDICTED BY IDOCK:   -7.46 KCAL/MOL
REMARK 924 INTRA-LIGAND FREE ENERGY PREDICTED BY IDOCK:   -1.74 KCAL/MOL
REMARK 927      BINDING AFFINITY PREDICTED BY RF-SCORE:    0.00 PKD
ROOT
HETATM    1  C   UNL     1     -12.409  12.837  64.830  1.00  0.00    -0.540 C  
HETATM    2  C   UNL     1     -11.963  12.074  63.592  1.00  0.00    -0.612 C  
ENDROOT
BRANCH   2   3
HETATM    3  C   UNL     1     -10.446  11.895  63.569  1.00  0.00    -0.459 C  
BRANCH   3   4
HETATM    4  N   UNL     1      -9.912  12.053  64.921  1.00  0.00    -0.330 NA 
HETATM    5  H   UNL     1     -10.495  12.667  65.491  1.00  0.00     0.000 HD 
BRANCH   4   6
HETATM    6  C   UNL     1      -9.722  10.739  65.549  1.00  0.00    -0.239 C  
BRANCH   6   7
HETATM    7  C   UNL     1      -8.381  10.676  66.303  1.00  0.00    -0.155 C  
HETATM    8  O   UNL     1      -7.345  11.314  65.540  1.00  0.00    -0.342 OA 
HETATM    9  H   UNL     1      -6.517  11.275  66.006  1.00  0.00     0.000 HD 
BRANCH   7  10
HETATM   10  C   UNL     1      -8.492  11.352  67.675  1.00  0.00    -0.130 C  
BRANCH  10  11
HETATM   11  O   UNL     1      -8.938  12.711  67.507  1.00  0.00    -0.170 OA 
BRANCH  11  12
HETATM   12  C   UNL     1      -8.189  13.655  68.162  1.00  0.00    -0.158 A  
HETATM   13  C   UNL     1      -8.790  14.873  68.543  1.00  0.00    -0.174 A  
HETATM   14  C   UNL     1      -6.820  13.465  68.402  1.00  0.00    -0.102 A  
HETATM   15  C   UNL     1      -8.018  15.839  69.212  1.00  0.00    -0.239 A  
HETATM   16  C   UNL     1      -6.064  14.441  69.050  1.00  0.00    -0.091 A  
HETATM   17  C   UNL     1      -6.662  15.625  69.459  1.00  0.00    -0.185 A  
BRANCH  13  18
HETATM   18  C   UNL     1     -10.238  15.160  68.282  1.00  0.00    -0.223 C  
HETATM   19  O   UNL     1     -11.041  15.204  69.211  1.00  0.00    -0.245 OA 
BRANCH  18  20
HETATM   20  C   UNL     1     -10.688  15.478  66.861  1.00  0.00    -0.317 C  
BRANCH  20  21
HETATM   21  C   UNL     1      -9.621  16.228  66.070  1.00  0.00    -0.371 C  
BRANCH  21  22
HETATM   22  C   UNL     1      -9.481  17.666  66.510  1.00  0.00    -0.294 A  
HETATM   23  C   UNL     1     -10.599  18.391  66.947  1.00  0.00    -0.381 A  
HETATM   24  C   UNL     1     -10.464  19.712  67.376  1.00  0.00    -0.596 A  
HETATM   25  C   UNL     1      -9.213  20.324  67.368  1.00  0.00    -0.507 A  
HETATM   26  C   UNL     1      -8.097  19.618  66.923  1.00  0.00    -0.315 A  
HETATM   27  C   UNL     1      -8.230  18.296  66.492  1.00  0.00    -0.290 A  
ENDBRANCH  21  22
ENDBRANCH  20  21
ENDBRANCH  18  20
ENDBRANCH  13  18
ENDBRANCH  11  12
ENDBRANCH  10  11
ENDBRANCH   7  10
ENDBRANCH   6   7
ENDBRANCH   4   6
ENDBRANCH   3   4
ENDBRANCH   2   3
TORSDOF 11
ENDMDL
MODEL      138
REMARK 921   NORMALIZED FREE ENERGY PREDICTED BY IDOCK:   -4.98 KCAL/MOL
REMARK 922        TOTAL FREE ENERGY PREDICTED BY IDOCK:   -9.19 KCAL/MOL
REMARK 923 INTER-LIGAND FREE ENERGY PREDICTED BY IDOCK:   -7.09 KCAL/MOL
REMARK 924 INTRA-LIGAND FREE ENERGY PREDICTED BY IDOCK:   -2.10 KCAL/MOL
REMARK 927      BINDING AFFINITY PREDICTED BY RF-SCORE:    0.00 PKD
ROOT
HETATM    1  C   UNL     1     -13.104   8.606  72.571  1.00  0.00    -0.339 C  
HETATM    2  C   UNL     1     -12.513   9.692  71.684  1.00  0.00    -0.494 C  
ENDROOT
BRANCH   2   3
HETATM    3  C   UNL     1     -13.399   9.954  70.467  1.00  0.00     0.105 C  
BRANCH   3   4
HETATM    4  N   UNL     1     -12.688  10.807  69.516  1.00  0.00    -0.566 NA 
HETATM    5  H   UNL     1     -13.329  11.328  68.918  1.00  0.00     0.000 HD 
BRANCH   4   6
HETATM    6  C   UNL     1     -11.758  11.695  70.227  1.00  0.00    -0.266 C  
BRANCH   6   7
HETATM    7  C   UNL     1     -12.166  13.170  70.062  1.00  0.00    -0.253 C  
HETATM    8  O   UNL     1     -11.556  13.978  71.079  1.00  0.00    -0.511 OA 
HETATM    9  H   UNL     1     -11.808  14.888  70.977  1.00  0.00     0.000 HD 
BRANCH   7  10
HETATM   10  C   UNL     1     -11.761  13.699  68.681  1.00  0.00    -0.354 C  
BRANCH  10  11
HETATM   11  O   UNL     1     -10.667  12.914  68.167  1.00  0.00    -0.226 OA 
BRANCH  11  12
HETATM   12  C   UNL     1     -10.813  12.489  66.871  1.00  0.00    -0.248 A  
HETATM   13  C   UNL     1      -9.714  11.911  66.204  1.00  0.00    -0.251 A  
HETATM   14  C   UNL     1     -12.013  12.679  66.170  1.00  0.00    -0.458 A  
HETATM   15  C   UNL     1      -9.867  11.479  64.876  1.00  0.00    -0.289 A  
HETATM   16  C   UNL     1     -12.143  12.262  64.846  1.00  0.00    -0.422 A  
HETATM   17  C   UNL     1     -11.073  11.658  64.200  1.00  0.00    -0.435 A  
BRANCH  13  18
HETATM   18  C   UNL     1      -8.389  11.715  66.879  1.00  0.00    -0.169 C  
HETATM   19  O   UNL     1      -7.644  12.672  67.076  1.00  0.00    -0.105 OA 
BRANCH  18  20
HETATM   20  C   UNL     1      -8.014  10.330  67.391  1.00  0.00    -0.107 C  
BRANCH  20  21
HETATM   21  C   UNL     1      -8.891   9.886  68.557  1.00  0.00    -0.122 C  
BRANCH  21  22
HETATM   22  C   UNL     1      -9.597   8.579  68.283  1.00  0.00    -0.156 A  
HETATM   23  C   UNL     1     -10.296   7.918  69.304  1.00  0.00    -0.222 A  
HETATM   24  C   UNL     1     -10.968   6.722  69.043  1.00  0.00    -0.281 A  
HETATM   25  C   UNL     1     -10.944   6.173  67.763  1.00  0.00    -0.400 A  
HETATM   26  C   UNL     1     -10.241   6.814  66.745  1.00  0.00    -0.273 A  
HETATM   27  C   UNL     1      -9.567   8.010  67.003  1.00  0.00    -0.252 A  
ENDBRANCH  21  22
ENDBRANCH  20  21
ENDBRANCH  18  20
ENDBRANCH  13  18
ENDBRANCH  11  12
ENDBRANCH  10  11
ENDBRANCH   7  10
ENDBRANCH   6   7
ENDBRANCH   4   6
ENDBRANCH   3   4
ENDBRANCH   2   3
TORSDOF 11
ENDMDL
MODEL      139
REMARK 921   NORMALIZED FREE ENERGY PREDICTED BY IDOCK:   -4.96 KCAL/MOL
REMARK 922        TOTAL FREE ENERGY PREDICTED BY IDOCK:   -9.17 KCAL/MOL
REMARK 923 INTER-LIGAND FREE ENERGY PREDICTED BY IDOCK:   -8.03 KCAL/MOL
REMARK 924 INTRA-LIGAND FREE ENERGY PREDICTED BY IDOCK:   -1.14 KCAL/MOL
REMARK 927      BINDING AFFINITY PREDICTED BY RF-SCORE:    0.00 PKD
ROOT
HETATM    1  C   UNL     1     -12.454  14.220  64.585  1.00  0.00    -0.371 C  
HETATM    2  C   UNL     1     -11.352  13.307  64.069  1.00  0.00    -0.403 C  
ENDROOT
BRANCH   2   3
HETATM    3  C   UNL     1     -11.919  11.974  63.586  1.00  0.00    -0.515 C  
BRANCH   3   4
HETATM    4  N   UNL     1     -10.827  11.032  63.348  1.00  0.00    -0.704 NA 
HETATM    5  H   UNL     1     -10.462  11.103  62.398  1.00  0.00     0.000 HD 
BRANCH   4   6
HETATM    6  C   UNL     1      -9.772  11.213  64.355  1.00  0.00    -0.268 C  
BRANCH   6   7
HETATM    7  C   UNL     1      -8.644  10.183  64.164  1.00  0.00    -0.187 C  
HETATM    8  O   UNL     1      -7.369  10.773  64.462  1.00  0.00    -0.350 OA 
HETATM    9  H   UNL     1      -6.673  10.138  64.344  1.00  0.00     0.000 HD 
BRANCH   7  10
HETATM   10  C   UNL     1      -8.860   8.961  65.064  1.00  0.00    -0.140 C  
BRANCH  10  11
HETATM   11  O   UNL     1      -9.361   9.388  66.346  1.00  0.00    -0.162 OA 
BRANCH  11  12
HETATM   12  C   UNL     1      -9.734   8.377  67.192  1.00  0.00    -0.190 A  
HETATM   13  C   UNL     1     -10.201   8.692  68.485  1.00  0.00    -0.221 A  
HETATM   14  C   UNL     1      -9.599   7.029  66.826  1.00  0.00    -0.221 A  
HETATM   15  C   UNL     1     -10.580   7.652  69.351  1.00  0.00    -0.217 A  
HETATM   16  C   UNL     1      -9.962   6.008  67.703  1.00  0.00    -0.154 A  
HETATM   17  C   UNL     1     -10.457   6.318  68.963  1.00  0.00    -0.287 A  
BRANCH  13  18
HETATM   18  C   UNL     1     -10.332  10.109  68.958  1.00  0.00    -0.212 C  
HETATM   19  O   UNL     1      -9.353  10.713  69.390  1.00  0.00    -0.163 OA 
BRANCH  18  20
HETATM   20  C   UNL     1     -11.673  10.817  68.819  1.00  0.00    -0.315 C  
BRANCH  20  21
HETATM   21  C   UNL     1     -12.470  10.809  70.120  1.00  0.00    -0.357 C  
BRANCH  21  22
HETATM   22  C   UNL     1     -12.661  12.195  70.688  1.00  0.00    -0.255 A  
HETATM   23  C   UNL     1     -13.367  12.384  71.885  1.00  0.00    -0.450 A  
HETATM   24  C   UNL     1     -13.522  13.663  72.422  1.00  0.00    -0.685 A  
HETATM   25  C   UNL     1     -12.978  14.766  71.768  1.00  0.00    -0.410 A  
HETATM   26  C   UNL     1     -12.286  14.591  70.571  1.00  0.00    -0.403 A  
HETATM   27  C   UNL     1     -12.131  13.312  70.030  1.00  0.00    -0.385 A  
ENDBRANCH  21  22
ENDBRANCH  20  21
ENDBRANCH  18  20
ENDBRANCH  13  18
ENDBRANCH  11  12
ENDBRANCH  10  11
ENDBRANCH   7  10
ENDBRANCH   6   7
ENDBRANCH   4   6
ENDBRANCH   3   4
ENDBRANCH   2   3
TORSDOF 11
ENDMDL
MODEL      140
REMARK 921   NORMALIZED FREE ENERGY PREDICTED BY IDOCK:   -4.96 KCAL/MOL
REMARK 922        TOTAL FREE ENERGY PREDICTED BY IDOCK:   -9.17 KCAL/MOL
REMARK 923 INTER-LIGAND FREE ENERGY PREDICTED BY IDOCK:   -7.56 KCAL/MOL
REMARK 924 INTRA-LIGAND FREE ENERGY PREDICTED BY IDOCK:   -1.61 KCAL/MOL
REMARK 927      BINDING AFFINITY PREDICTED BY RF-SCORE:    0.00 PKD
ROOT
HETATM    1  C   UNL     1      -8.479  10.646  62.362  1.00  0.00    -0.277 C  
HETATM    2  C   UNL     1      -8.665   9.289  63.024  1.00  0.00    -0.203 C  
ENDROOT
BRANCH   2   3
HETATM    3  C   UNL     1      -8.276   9.336  64.501  1.00  0.00    -0.151 C  
BRANCH   3   4
HETATM    4  N   UNL     1      -7.627  10.612  64.798  1.00  0.00    -0.353 NA 
HETATM    5  H   UNL     1      -8.304  11.339  65.031  1.00  0.00     0.000 HD 
BRANCH   4   6
HETATM    6  C   UNL     1      -6.623  10.437  65.857  1.00  0.00    -0.123 C  
BRANCH   6   7
HETATM    7  C   UNL     1      -7.162  10.923  67.214  1.00  0.00    -0.098 C  
HETATM    8  O   UNL     1      -6.088  11.398  68.041  1.00  0.00    -0.046 OA 
HETATM    9  H   UNL     1      -6.421  11.697  68.879  1.00  0.00     0.000 HD 
BRANCH   7  10
HETATM   10  C   UNL     1      -8.191  12.044  67.025  1.00  0.00    -0.169 C  
BRANCH  10  11
HETATM   11  O   UNL     1      -9.520  11.511  67.193  1.00  0.00    -0.175 OA 
BRANCH  11  12
HETATM   12  C   UNL     1     -10.514  12.216  66.564  1.00  0.00    -0.225 A  
HETATM   13  C   UNL     1     -11.257  13.166  67.294  1.00  0.00    -0.319 A  
HETATM   14  C   UNL     1     -10.855  11.965  65.226  1.00  0.00    -0.347 A  
HETATM   15  C   UNL     1     -12.276  13.885  66.647  1.00  0.00    -0.465 A  
HETATM   16  C   UNL     1     -11.882  12.673  64.604  1.00  0.00    -0.437 A  
HETATM   17  C   UNL     1     -12.589  13.636  65.311  1.00  0.00    -0.512 A  
BRANCH  13  18
HETATM   18  C   UNL     1     -10.974  13.456  68.738  1.00  0.00    -0.257 C  
HETATM   19  O   UNL     1     -10.093  14.253  69.051  1.00  0.00    -0.209 OA 
BRANCH  18  20
HETATM   20  C   UNL     1     -11.845  12.813  69.810  1.00  0.00    -0.380 C  
BRANCH  20  21
HETATM   21  C   UNL     1     -12.340  11.429  69.401  1.00  0.00    -0.184 C  
BRANCH  21  22
HETATM   22  C   UNL     1     -12.125  10.397  70.482  1.00  0.00    -0.423 A  
HETATM   23  C   UNL     1     -13.187   9.996  71.306  1.00  0.00    -0.469 A  
HETATM   24  C   UNL     1     -12.992   9.024  72.289  1.00  0.00    -0.490 A  
HETATM   25  C   UNL     1     -11.736   8.447  72.462  1.00  0.00    -0.429 A  
HETATM   26  C   UNL     1     -10.672   8.848  71.657  1.00  0.00    -0.418 A  
HETATM   27  C   UNL     1     -10.863   9.821  70.674  1.00  0.00    -0.396 A  
ENDBRANCH  21  22
ENDBRANCH  20  21
ENDBRANCH  18  20
ENDBRANCH  13  18
ENDBRANCH  11  12
ENDBRANCH  10  11
ENDBRANCH   7  10
ENDBRANCH   6   7
ENDBRANCH   4   6
ENDBRANCH   3   4
ENDBRANCH   2   3
TORSDOF 11
ENDMDL
MODEL      141
REMARK 921   NORMALIZED FREE ENERGY PREDICTED BY IDOCK:   -4.96 KCAL/MOL
REMARK 922        TOTAL FREE ENERGY PREDICTED BY IDOCK:   -9.16 KCAL/MOL
REMARK 923 INTER-LIGAND FREE ENERGY PREDICTED BY IDOCK:   -8.23 KCAL/MOL
REMARK 924 INTRA-LIGAND FREE ENERGY PREDICTED BY IDOCK:   -0.93 KCAL/MOL
REMARK 927      BINDING AFFINITY PREDICTED BY RF-SCORE:    0.00 PKD
ROOT
HETATM    1  C   UNL     1      -7.698   7.749  73.025  1.00  0.00    -0.149 C  
HETATM    2  C   UNL     1      -8.755   7.722  74.119  1.00  0.00    -0.293 C  
ENDROOT
BRANCH   2   3
HETATM    3  C   UNL     1     -10.119   7.320  73.560  1.00  0.00    -0.340 C  
BRANCH   3   4
HETATM    4  N   UNL     1     -10.239   7.782  72.179  1.00  0.00    -0.201 NA 
HETATM    5  H   UNL     1     -10.086   7.027  71.510  1.00  0.00     0.000 HD 
BRANCH   4   6
HETATM    6  C   UNL     1     -11.537   8.441  71.974  1.00  0.00    -0.351 C  
BRANCH   6   7
HETATM    7  C   UNL     1     -11.411   9.614  70.985  1.00  0.00    -0.374 C  
HETATM    8  O   UNL     1     -11.527   9.147  69.633  1.00  0.00    -0.438 OA 
HETATM    9  H   UNL     1     -11.449   9.872  69.023  1.00  0.00     0.000 HD 
BRANCH   7  10
HETATM   10  C   UNL     1     -12.488  10.673  71.252  1.00  0.00    -0.410 C  
BRANCH  10  11
HETATM   11  O   UNL     1     -12.313  11.777  70.343  1.00  0.00    -0.321 OA 
BRANCH  11  12
HETATM   12  C   UNL     1     -12.680  13.002  70.837  1.00  0.00    -0.217 A  
HETATM   13  C   UNL     1     -12.359  14.167  70.110  1.00  0.00    -0.413 A  
HETATM   14  C   UNL     1     -13.309  13.129  72.085  1.00  0.00    -0.621 A  
HETATM   15  C   UNL     1     -12.736  15.421  70.621  1.00  0.00    -0.490 A  
HETATM   16  C   UNL     1     -13.658  14.382  72.588  1.00  0.00    -0.589 A  
HETATM   17  C   UNL     1     -13.377  15.527  71.855  1.00  0.00    -0.569 A  
BRANCH  13  18
HETATM   18  C   UNL     1     -11.652  14.108  68.789  1.00  0.00    -0.327 C  
HETATM   19  O   UNL     1     -12.284  14.217  67.740  1.00  0.00    -0.334 OA 
BRANCH  18  20
HETATM   20  C   UNL     1     -10.133  13.996  68.764  1.00  0.00    -0.183 C  
BRANCH  20  21
HETATM   21  C   UNL     1      -9.450  15.253  69.292  1.00  0.00    -0.242 C  
BRANCH  21  22
HETATM   22  C   UNL     1      -8.700  15.999  68.214  1.00  0.00    -0.177 A  
HETATM   23  C   UNL     1      -7.336  15.756  67.996  1.00  0.00    -0.135 A  
HETATM   24  C   UNL     1      -6.649  16.428  66.983  1.00  0.00    -0.225 A  
HETATM   25  C   UNL     1      -7.316  17.352  66.183  1.00  0.00    -0.331 A  
HETATM   26  C   UNL     1      -8.668  17.611  66.400  1.00  0.00    -0.263 A  
HETATM   27  C   UNL     1      -9.357  16.941  67.413  1.00  0.00    -0.235 A  
ENDBRANCH  21  22
ENDBRANCH  20  21
ENDBRANCH  18  20
ENDBRANCH  13  18
ENDBRANCH  11  12
ENDBRANCH  10  11
ENDBRANCH   7  10
ENDBRANCH   6   7
ENDBRANCH   4   6
ENDBRANCH   3   4
ENDBRANCH   2   3
TORSDOF 11
ENDMDL
MODEL      142
REMARK 921   NORMALIZED FREE ENERGY PREDICTED BY IDOCK:   -4.95 KCAL/MOL
REMARK 922        TOTAL FREE ENERGY PREDICTED BY IDOCK:   -9.15 KCAL/MOL
REMARK 923 INTER-LIGAND FREE ENERGY PREDICTED BY IDOCK:   -7.37 KCAL/MOL
REMARK 924 INTRA-LIGAND FREE ENERGY PREDICTED BY IDOCK:   -1.78 KCAL/MOL
REMARK 927      BINDING AFFINITY PREDICTED BY RF-SCORE:    0.00 PKD
ROOT
HETATM    1  C   UNL     1      -9.398  16.092  65.995  1.00  0.00    -0.380 C  
HETATM    2  C   UNL     1     -10.050  15.335  67.142  1.00  0.00    -0.240 C  
ENDROOT
BRANCH   2   3
HETATM    3  C   UNL     1     -11.298  14.588  66.673  1.00  0.00    -0.356 C  
BRANCH   3   4
HETATM    4  N   UNL     1     -12.060  14.128  67.832  1.00  0.00    -0.545 NA 
HETATM    5  H   UNL     1     -13.040  14.405  67.778  1.00  0.00     0.000 HD 
BRANCH   4   6
HETATM    6  C   UNL     1     -11.909  12.676  67.996  1.00  0.00    -0.323 C  
BRANCH   6   7
HETATM    7  C   UNL     1     -11.426  12.327  69.415  1.00  0.00    -0.277 C  
HETATM    8  O   UNL     1     -11.681  13.416  70.316  1.00  0.00    -0.490 OA 
HETATM    9  H   UNL     1     -11.382  13.200  71.191  1.00  0.00     0.000 HD 
BRANCH   7  10
HETATM   10  C   UNL     1     -12.122  11.064  69.935  1.00  0.00    -0.361 C  
BRANCH  10  11
HETATM   11  O   UNL     1     -11.378  10.526  71.046  1.00  0.00    -0.257 OA 
BRANCH  11  12
HETATM   12  C   UNL     1     -11.642   9.214  71.343  1.00  0.00    -0.341 A  
HETATM   13  C   UNL     1     -10.569   8.321  71.546  1.00  0.00    -0.296 A  
HETATM   14  C   UNL     1     -12.955   8.723  71.384  1.00  0.00    -0.306 A  
HETATM   15  C   UNL     1     -10.844   6.976  71.848  1.00  0.00    -0.253 A  
HETATM   16  C   UNL     1     -13.210   7.381  71.667  1.00  0.00    -0.416 A  
HETATM   17  C   UNL     1     -12.157   6.509  71.904  1.00  0.00    -0.388 A  
BRANCH  13  18
HETATM   18  C   UNL     1      -9.139   8.768  71.476  1.00  0.00    -0.252 C  
HETATM   19  O   UNL     1      -8.529   9.058  72.502  1.00  0.00    -0.326 OA 
BRANCH  18  20
HETATM   20  C   UNL     1      -8.430   8.780  70.129  1.00  0.00    -0.139 C  
BRANCH  20  21
HETATM   21  C   UNL     1      -8.240  10.193  69.586  1.00  0.00    -0.176 C  
BRANCH  21  22
HETATM   22  C   UNL     1      -8.741  10.338  68.168  1.00  0.00    -0.123 A  
HETATM   23  C   UNL     1      -9.501   9.321  67.573  1.00  0.00    -0.160 A  
HETATM   24  C   UNL     1      -9.983   9.466  66.271  1.00  0.00    -0.353 A  
HETATM   25  C   UNL     1      -9.707  10.626  65.550  1.00  0.00    -0.291 A  
HETATM   26  C   UNL     1      -8.942  11.637  66.128  1.00  0.00    -0.180 A  
HETATM   27  C   UNL     1      -8.456  11.493  67.429  1.00  0.00    -0.147 A  
ENDBRANCH  21  22
ENDBRANCH  20  21
ENDBRANCH  18  20
ENDBRANCH  13  18
ENDBRANCH  11  12
ENDBRANCH  10  11
ENDBRANCH   7  10
ENDBRANCH   6   7
ENDBRANCH   4   6
ENDBRANCH   3   4
ENDBRANCH   2   3
TORSDOF 11
ENDMDL
MODEL      143
REMARK 921   NORMALIZED FREE ENERGY PREDICTED BY IDOCK:   -4.94 KCAL/MOL
REMARK 922        TOTAL FREE ENERGY PREDICTED BY IDOCK:   -9.13 KCAL/MOL
REMARK 923 INTER-LIGAND FREE ENERGY PREDICTED BY IDOCK:   -7.76 KCAL/MOL
REMARK 924 INTRA-LIGAND FREE ENERGY PREDICTED BY IDOCK:   -1.37 KCAL/MOL
REMARK 927      BINDING AFFINITY PREDICTED BY RF-SCORE:    0.00 PKD
ROOT
HETATM    1  C   UNL     1     -10.233   5.633  69.096  1.00  0.00    -0.305 C  
HETATM    2  C   UNL     1     -10.779   5.924  70.485  1.00  0.00    -0.363 C  
ENDROOT
BRANCH   2   3
HETATM    3  C   UNL     1     -11.656   7.175  70.484  1.00  0.00    -0.290 C  
BRANCH   3   4
HETATM    4  N   UNL     1     -11.060   8.192  69.620  1.00  0.00    -0.443 NA 
HETATM    5  H   UNL     1     -11.530   8.248  68.716  1.00  0.00     0.000 HD 
BRANCH   4   6
HETATM    6  C   UNL     1     -11.036   9.492  70.306  1.00  0.00    -0.269 C  
BRANCH   6   7
HETATM    7  C   UNL     1     -11.606  10.603  69.406  1.00  0.00    -0.280 C  
HETATM    8  O   UNL     1     -11.261  11.897  69.923  1.00  0.00    -0.474 OA 
HETATM    9  H   UNL     1     -11.613  12.582  69.367  1.00  0.00     0.000 HD 
BRANCH   7  10
HETATM   10  C   UNL     1     -11.077  10.471  67.972  1.00  0.00    -0.300 C  
BRANCH  10  11
HETATM   11  O   UNL     1     -10.474  11.714  67.566  1.00  0.00    -0.192 OA 
BRANCH  11  12
HETATM   12  C   UNL     1     -10.939  12.228  66.382  1.00  0.00    -0.287 A  
HETATM   13  C   UNL     1     -11.363  13.571  66.329  1.00  0.00    -0.327 A  
HETATM   14  C   UNL     1     -11.066  11.426  65.237  1.00  0.00    -0.198 A  
HETATM   15  C   UNL     1     -11.841  14.093  65.115  1.00  0.00    -0.372 A  
HETATM   16  C   UNL     1     -11.560  11.954  64.045  1.00  0.00    -0.476 A  
HETATM   17  C   UNL     1     -11.943  13.287  63.981  1.00  0.00    -0.525 A  
BRANCH  13  18
HETATM   18  C   UNL     1     -11.294  14.474  67.525  1.00  0.00    -0.340 C  
HETATM   19  O   UNL     1     -12.078  14.328  68.459  1.00  0.00    -0.329 OA 
BRANCH  18  20
HETATM   20  C   UNL     1     -10.188  15.518  67.604  1.00  0.00    -0.255 C  
BRANCH  20  21
HETATM   21  C   UNL     1      -8.801  14.910  67.418  1.00  0.00    -0.204 C  
BRANCH  21  22
HETATM   22  C   UNL     1      -7.763  15.942  67.049  1.00  0.00    -0.268 A  
HETATM   23  C   UNL     1      -8.115  17.068  66.290  1.00  0.00    -0.332 A  
HETATM   24  C   UNL     1      -7.159  18.034  65.971  1.00  0.00    -0.330 A  
HETATM   25  C   UNL     1      -5.843  17.883  66.401  1.00  0.00    -0.216 A  
HETATM   26  C   UNL     1      -5.480  16.762  67.145  1.00  0.00    -0.185 A  
HETATM   27  C   UNL     1      -6.434  15.793  67.465  1.00  0.00    -0.203 A  
ENDBRANCH  21  22
ENDBRANCH  20  21
ENDBRANCH  18  20
ENDBRANCH  13  18
ENDBRANCH  11  12
ENDBRANCH  10  11
ENDBRANCH   7  10
ENDBRANCH   6   7
ENDBRANCH   4   6
ENDBRANCH   3   4
ENDBRANCH   2   3
TORSDOF 11
ENDMDL
MODEL      144
REMARK 921   NORMALIZED FREE ENERGY PREDICTED BY IDOCK:   -4.94 KCAL/MOL
REMARK 922        TOTAL FREE ENERGY PREDICTED BY IDOCK:   -9.13 KCAL/MOL
REMARK 923 INTER-LIGAND FREE ENERGY PREDICTED BY IDOCK:   -7.53 KCAL/MOL
REMARK 924 INTRA-LIGAND FREE ENERGY PREDICTED BY IDOCK:   -1.60 KCAL/MOL
REMARK 927      BINDING AFFINITY PREDICTED BY RF-SCORE:    0.00 PKD
ROOT
HETATM    1  C   UNL     1     -10.874  12.196  63.249  1.00  0.00    -0.381 C  
HETATM    2  C   UNL     1     -12.217  12.715  63.738  1.00  0.00    -0.600 C  
ENDROOT
BRANCH   2   3
HETATM    3  C   UNL     1     -12.320  12.634  65.260  1.00  0.00    -0.466 C  
BRANCH   3   4
HETATM    4  N   UNL     1     -12.721  13.933  65.796  1.00  0.00    -0.499 NA 
HETATM    5  H   UNL     1     -13.736  14.032  65.837  1.00  0.00     0.000 HD 
BRANCH   4   6
HETATM    6  C   UNL     1     -12.094  14.159  67.105  1.00  0.00    -0.397 C  
BRANCH   6   7
HETATM    7  C   UNL     1     -11.432  12.872  67.630  1.00  0.00    -0.334 C  
HETATM    8  O   UNL     1     -10.037  13.092  67.887  1.00  0.00    -0.220 OA 
HETATM    9  H   UNL     1      -9.629  12.298  68.210  1.00  0.00     0.000 HD 
BRANCH   7  10
HETATM   10  C   UNL     1     -12.115  12.390  68.915  1.00  0.00    -0.123 C  
BRANCH  10  11
HETATM   11  O   UNL     1     -12.306  10.963  68.854  1.00  0.00    -0.486 OA 
BRANCH  11  12
HETATM   12  C   UNL     1     -12.205  10.309  70.055  1.00  0.00    -0.120 A  
HETATM   13  C   UNL     1     -11.020   9.612  70.367  1.00  0.00    -0.356 A  
HETATM   14  C   UNL     1     -13.282  10.261  70.954  1.00  0.00    -0.351 A  
HETATM   15  C   UNL     1     -10.922   8.941  71.598  1.00  0.00    -0.415 A  
HETATM   16  C   UNL     1     -13.175   9.575  72.163  1.00  0.00    -0.539 A  
HETATM   17  C   UNL     1     -11.995   8.919  72.488  1.00  0.00    -0.219 A  
BRANCH  13  18
HETATM   18  C   UNL     1      -9.845   9.586  69.435  1.00  0.00    -0.186 C  
HETATM   19  O   UNL     1      -9.237  10.621  69.173  1.00  0.00    -0.188 OA 
BRANCH  18  20
HETATM   20  C   UNL     1      -9.365   8.250  68.882  1.00  0.00    -0.147 C  
BRANCH  20  21
HETATM   21  C   UNL     1     -10.115   7.842  67.618  1.00  0.00    -0.262 C  
BRANCH  21  22
HETATM   22  C   UNL     1      -9.328   8.130  66.362  1.00  0.00    -0.269 A  
HETATM   23  C   UNL     1      -8.448   7.172  65.837  1.00  0.00    -0.151 A  
HETATM   24  C   UNL     1      -7.739   7.431  64.662  1.00  0.00    -0.118 A  
HETATM   25  C   UNL     1      -7.898   8.648  64.004  1.00  0.00    -0.146 A  
HETATM   26  C   UNL     1      -8.759   9.611  64.525  1.00  0.00    -0.227 A  
HETATM   27  C   UNL     1      -9.469   9.357  65.700  1.00  0.00    -0.328 A  
ENDBRANCH  21  22
ENDBRANCH  20  21
ENDBRANCH  18  20
ENDBRANCH  13  18
ENDBRANCH  11  12
ENDBRANCH  10  11
ENDBRANCH   7  10
ENDBRANCH   6   7
ENDBRANCH   4   6
ENDBRANCH   3   4
ENDBRANCH   2   3
TORSDOF 11
ENDMDL
MODEL      145
REMARK 921   NORMALIZED FREE ENERGY PREDICTED BY IDOCK:   -4.93 KCAL/MOL
REMARK 922        TOTAL FREE ENERGY PREDICTED BY IDOCK:   -9.12 KCAL/MOL
REMARK 923 INTER-LIGAND FREE ENERGY PREDICTED BY IDOCK:   -7.49 KCAL/MOL
REMARK 924 INTRA-LIGAND FREE ENERGY PREDICTED BY IDOCK:   -1.63 KCAL/MOL
REMARK 927      BINDING AFFINITY PREDICTED BY RF-SCORE:    0.00 PKD
ROOT
HETATM    1  C   UNL     1      -9.772   4.478  73.950  1.00  0.00    -0.153 C  
HETATM    2  C   UNL     1     -10.756   3.519  73.296  1.00  0.00    -0.291 C  
ENDROOT
BRANCH   2   3
HETATM    3  C   UNL     1     -10.122   2.805  72.103  1.00  0.00    -0.140 C  
BRANCH   3   4
HETATM    4  N   UNL     1      -9.202   3.712  71.420  1.00  0.00    -0.117 NA 
HETATM    5  H   UNL     1      -8.227   3.459  71.582  1.00  0.00     0.000 HD 
BRANCH   4   6
HETATM    6  C   UNL     1      -9.520   3.775  69.987  1.00  0.00    -0.193 C  
BRANCH   6   7
HETATM    7  C   UNL     1      -9.585   5.233  69.498  1.00  0.00    -0.152 C  
HETATM    8  O   UNL     1      -9.320   5.304  68.089  1.00  0.00    -0.111 OA 
HETATM    9  H   UNL     1      -9.361   6.205  67.788  1.00  0.00     0.000 HD 
BRANCH   7  10
HETATM   10  C   UNL     1     -10.960   5.847  69.789  1.00  0.00    -0.382 C  
BRANCH  10  11
HETATM   11  O   UNL     1     -10.983   6.361  71.135  1.00  0.00    -0.251 OA 
BRANCH  11  12
HETATM   12  C   UNL     1     -11.890   7.365  71.359  1.00  0.00    -0.300 A  
HETATM   13  C   UNL     1     -11.442   8.700  71.432  1.00  0.00    -0.352 A  
HETATM   14  C   UNL     1     -13.246   7.087  71.586  1.00  0.00    -0.368 A  
HETATM   15  C   UNL     1     -12.375   9.725  71.664  1.00  0.00    -0.495 A  
HETATM   16  C   UNL     1     -14.156   8.114  71.835  1.00  0.00    -0.493 A  
HETATM   17  C   UNL     1     -13.723   9.433  71.869  1.00  0.00    -0.440 A  
BRANCH  13  18
HETATM   18  C   UNL     1     -10.000   9.065  71.239  1.00  0.00    -0.311 C  
HETATM   19  O   UNL     1      -9.197   8.932  72.160  1.00  0.00    -0.364 OA 
BRANCH  18  20
HETATM   20  C   UNL     1      -9.527   9.525  69.866  1.00  0.00    -0.247 C  
BRANCH  20  21
HETATM   21  C   UNL     1     -10.504   9.144  68.759  1.00  0.00    -0.236 C  
BRANCH  21  22
HETATM   22  C   UNL     1     -10.760  10.281  67.798  1.00  0.00    -0.324 A  
HETATM   23  C   UNL     1     -10.252  10.237  66.491  1.00  0.00    -0.289 A  
HETATM   24  C   UNL     1     -10.510  11.278  65.596  1.00  0.00    -0.317 A  
HETATM   25  C   UNL     1     -11.271  12.373  65.999  1.00  0.00    -0.374 A  
HETATM   26  C   UNL     1     -11.768  12.432  67.300  1.00  0.00    -0.419 A  
HETATM   27  C   UNL     1     -11.511  11.393  68.197  1.00  0.00    -0.375 A  
ENDBRANCH  21  22
ENDBRANCH  20  21
ENDBRANCH  18  20
ENDBRANCH  13  18
ENDBRANCH  11  12
ENDBRANCH  10  11
ENDBRANCH   7  10
ENDBRANCH   6   7
ENDBRANCH   4   6
ENDBRANCH   3   4
ENDBRANCH   2   3
TORSDOF 11
ENDMDL
MODEL      146
REMARK 921   NORMALIZED FREE ENERGY PREDICTED BY IDOCK:   -4.93 KCAL/MOL
REMARK 922        TOTAL FREE ENERGY PREDICTED BY IDOCK:   -9.12 KCAL/MOL
REMARK 923 INTER-LIGAND FREE ENERGY PREDICTED BY IDOCK:   -7.98 KCAL/MOL
REMARK 924 INTRA-LIGAND FREE ENERGY PREDICTED BY IDOCK:   -1.14 KCAL/MOL
REMARK 927      BINDING AFFINITY PREDICTED BY RF-SCORE:    0.00 PKD
ROOT
HETATM    1  C   UNL     1      -6.593  20.971  67.438  1.00  0.00    -0.439 C  
HETATM    2  C   UNL     1      -7.985  20.360  67.420  1.00  0.00    -0.361 C  
ENDROOT
BRANCH   2   3
HETATM    3  C   UNL     1      -8.234  19.588  66.125  1.00  0.00    -0.326 C  
BRANCH   3   4
HETATM    4  N   UNL     1      -9.519  18.896  66.205  1.00  0.00    -0.471 NA 
HETATM    5  H   UNL     1      -9.449  17.925  65.900  1.00  0.00     0.000 HD 
BRANCH   4   6
HETATM    6  C   UNL     1     -10.073  19.007  67.562  1.00  0.00    -0.373 C  
BRANCH   6   7
HETATM    7  C   UNL     1     -10.782  17.705  67.977  1.00  0.00    -0.328 C  
HETATM    8  O   UNL     1     -10.430  16.635  67.086  1.00  0.00    -0.312 OA 
HETATM    9  H   UNL     1     -10.868  15.831  67.343  1.00  0.00     0.000 HD 
BRANCH   7  10
HETATM   10  C   UNL     1     -10.411  17.314  69.412  1.00  0.00    -0.158 C  
BRANCH  10  11
HETATM   11  O   UNL     1     -10.419  15.879  69.538  1.00  0.00    -0.238 OA 
BRANCH  11  12
HETATM   12  C   UNL     1     -11.339  15.376  70.421  1.00  0.00    -0.327 A  
HETATM   13  C   UNL     1     -12.090  14.237  70.066  1.00  0.00    -0.400 A  
HETATM   14  C   UNL     1     -11.599  16.010  71.646  1.00  0.00    -0.538 A  
HETATM   15  C   UNL     1     -13.034  13.726  70.974  1.00  0.00    -0.324 A  
HETATM   16  C   UNL     1     -12.552  15.502  72.528  1.00  0.00    -0.497 A  
HETATM   17  C   UNL     1     -13.266  14.358  72.195  1.00  0.00    -0.472 A  
BRANCH  13  18
HETATM   18  C   UNL     1     -11.894  13.533  68.756  1.00  0.00    -0.355 C  
HETATM   19  O   UNL     1     -12.321  14.027  67.715  1.00  0.00    -0.249 OA 
BRANCH  18  20
HETATM   20  C   UNL     1     -11.087  12.242  68.721  1.00  0.00    -0.295 C  
BRANCH  20  21
HETATM   21  C   UNL     1      -9.851  12.354  67.834  1.00  0.00    -0.202 C  
BRANCH  21  22
HETATM   22  C   UNL     1      -9.556  11.073  67.090  1.00  0.00    -0.189 A  
HETATM   23  C   UNL     1      -9.184   9.914  67.786  1.00  0.00    -0.141 A  
HETATM   24  C   UNL     1      -8.936   8.724  67.099  1.00  0.00    -0.146 A  
HETATM   25  C   UNL     1      -9.051   8.682  65.712  1.00  0.00    -0.242 A  
HETATM   26  C   UNL     1      -9.407   9.832  65.010  1.00  0.00    -0.325 A  
HETATM   27  C   UNL     1      -9.655  11.023  65.694  1.00  0.00    -0.265 A  
ENDBRANCH  21  22
ENDBRANCH  20  21
ENDBRANCH  18  20
ENDBRANCH  13  18
ENDBRANCH  11  12
ENDBRANCH  10  11
ENDBRANCH   7  10
ENDBRANCH   6   7
ENDBRANCH   4   6
ENDBRANCH   3   4
ENDBRANCH   2   3
TORSDOF 11
ENDMDL
MODEL      147
REMARK 921   NORMALIZED FREE ENERGY PREDICTED BY IDOCK:   -4.92 KCAL/MOL
REMARK 922        TOTAL FREE ENERGY PREDICTED BY IDOCK:   -9.10 KCAL/MOL
REMARK 923 INTER-LIGAND FREE ENERGY PREDICTED BY IDOCK:   -7.43 KCAL/MOL
REMARK 924 INTRA-LIGAND FREE ENERGY PREDICTED BY IDOCK:   -1.68 KCAL/MOL
REMARK 927      BINDING AFFINITY PREDICTED BY RF-SCORE:    0.00 PKD
ROOT
HETATM    1  C   UNL     1     -12.557  10.994  71.044  1.00  0.00    -0.512 C  
HETATM    2  C   UNL     1     -11.825  11.840  70.014  1.00  0.00    -0.422 C  
ENDROOT
BRANCH   2   3
HETATM    3  C   UNL     1     -11.647  11.080  68.700  1.00  0.00    -0.316 C  
BRANCH   3   4
HETATM    4  N   UNL     1     -11.829  11.995  67.575  1.00  0.00    -0.574 NA 
HETATM    5  H   UNL     1     -11.442  12.919  67.768  1.00  0.00     0.000 HD 
BRANCH   4   6
HETATM    6  C   UNL     1     -11.266  11.411  66.349  1.00  0.00    -0.183 C  
BRANCH   6   7
HETATM    7  C   UNL     1     -10.158  10.394  66.679  1.00  0.00    -0.224 C  
HETATM    8  O   UNL     1     -10.203   9.287  65.767  1.00  0.00    -0.344 OA 
HETATM    9  H   UNL     1      -9.519   8.660  65.972  1.00  0.00     0.000 HD 
BRANCH   7  10
HETATM   10  C   UNL     1      -8.775  11.052  66.612  1.00  0.00    -0.160 C  
BRANCH  10  11
HETATM   11  O   UNL     1      -8.922  12.485  66.621  1.00  0.00    -0.216 OA 
BRANCH  11  12
HETATM   12  C   UNL     1      -8.194  13.140  67.581  1.00  0.00    -0.175 A  
HETATM   13  C   UNL     1      -8.354  14.531  67.744  1.00  0.00    -0.173 A  
HETATM   14  C   UNL     1      -7.241  12.467  68.362  1.00  0.00    -0.111 A  
HETATM   15  C   UNL     1      -7.605  15.199  68.727  1.00  0.00    -0.136 A  
HETATM   16  C   UNL     1      -6.491  13.148  69.320  1.00  0.00    -0.107 A  
HETATM   17  C   UNL     1      -6.675  14.511  69.508  1.00  0.00    -0.151 A  
BRANCH  13  18
HETATM   18  C   UNL     1      -9.325  15.320  66.916  1.00  0.00    -0.237 C  
HETATM   19  O   UNL     1      -8.982  15.785  65.832  1.00  0.00    -0.321 OA 
BRANCH  18  20
HETATM   20  C   UNL     1     -10.763  15.469  67.398  1.00  0.00    -0.301 C  
BRANCH  20  21
HETATM   21  C   UNL     1     -10.913  16.569  68.443  1.00  0.00    -0.348 C  
BRANCH  21  22
HETATM   22  C   UNL     1     -10.302  17.876  67.997  1.00  0.00    -0.394 A  
HETATM   23  C   UNL     1     -10.804  18.551  66.874  1.00  0.00    -0.208 A  
HETATM   24  C   UNL     1     -10.255  19.771  66.477  1.00  0.00    -0.606 A  
HETATM   25  C   UNL     1      -9.197  20.327  67.193  1.00  0.00    -0.519 A  
HETATM   26  C   UNL     1      -8.682  19.658  68.302  1.00  0.00    -0.361 A  
HETATM   27  C   UNL     1      -9.229  18.436  68.701  1.00  0.00    -0.328 A  
ENDBRANCH  21  22
ENDBRANCH  20  21
ENDBRANCH  18  20
ENDBRANCH  13  18
ENDBRANCH  11  12
ENDBRANCH  10  11
ENDBRANCH   7  10
ENDBRANCH   6   7
ENDBRANCH   4   6
ENDBRANCH   3   4
ENDBRANCH   2   3
TORSDOF 11
ENDMDL
MODEL      148
REMARK 921   NORMALIZED FREE ENERGY PREDICTED BY IDOCK:   -4.92 KCAL/MOL
REMARK 922        TOTAL FREE ENERGY PREDICTED BY IDOCK:   -9.10 KCAL/MOL
REMARK 923 INTER-LIGAND FREE ENERGY PREDICTED BY IDOCK:   -7.90 KCAL/MOL
REMARK 924 INTRA-LIGAND FREE ENERGY PREDICTED BY IDOCK:   -1.20 KCAL/MOL
REMARK 927      BINDING AFFINITY PREDICTED BY RF-SCORE:    0.00 PKD
ROOT
HETATM    1  C   UNL     1      -6.417  17.827  69.160  1.00  0.00    -0.240 C  
HETATM    2  C   UNL     1      -6.141  19.286  68.830  1.00  0.00    -0.259 C  
ENDROOT
BRANCH   2   3
HETATM    3  C   UNL     1      -7.191  19.844  67.870  1.00  0.00    -0.282 C  
BRANCH   3   4
HETATM    4  N   UNL     1      -8.528  19.546  68.378  1.00  0.00    -0.352 NA 
HETATM    5  H   UNL     1      -8.794  20.169  69.142  1.00  0.00     0.000 HD 
BRANCH   4   6
HETATM    6  C   UNL     1      -9.507  19.575  67.282  1.00  0.00    -0.329 C  
BRANCH   6   7
HETATM    7  C   UNL     1      -9.926  18.151  66.877  1.00  0.00    -0.342 C  
HETATM    8  O   UNL     1      -9.104  17.671  65.802  1.00  0.00    -0.503 OA 
HETATM    9  H   UNL     1      -9.364  16.791  65.552  1.00  0.00     0.000 HD 
BRANCH   7  10
HETATM   10  C   UNL     1      -9.818  17.190  68.067  1.00  0.00    -0.283 C  
BRANCH  10  11
HETATM   11  O   UNL     1     -10.669  16.049  67.843  1.00  0.00    -0.297 OA 
BRANCH  11  12
HETATM   12  C   UNL     1     -11.154  15.452  68.978  1.00  0.00    -0.268 A  
HETATM   13  C   UNL     1     -11.762  14.183  68.888  1.00  0.00    -0.369 A  
HETATM   14  C   UNL     1     -11.121  16.105  70.219  1.00  0.00    -0.375 A  
HETATM   15  C   UNL     1     -12.260  13.575  70.053  1.00  0.00    -0.381 A  
HETATM   16  C   UNL     1     -11.637  15.497  71.363  1.00  0.00    -0.481 A  
HETATM   17  C   UNL     1     -12.201  14.232  71.283  1.00  0.00    -0.426 A  
BRANCH  13  18
HETATM   18  C   UNL     1     -11.869  13.444  67.587  1.00  0.00    -0.354 C  
HETATM   19  O   UNL     1     -12.505  13.923  66.651  1.00  0.00    -0.407 OA 
BRANCH  18  20
HETATM   20  C   UNL     1     -11.112  12.134  67.412  1.00  0.00    -0.330 C  
BRANCH  20  21
HETATM   21  C   UNL     1      -9.780  12.130  68.156  1.00  0.00    -0.208 C  
BRANCH  21  22
HETATM   22  C   UNL     1      -9.642  10.947  69.085  1.00  0.00    -0.125 A  
HETATM   23  C   UNL     1      -8.400  10.319  69.260  1.00  0.00    -0.167 A  
HETATM   24  C   UNL     1      -8.269   9.241  70.137  1.00  0.00    -0.176 A  
HETATM   25  C   UNL     1      -9.376   8.777  70.843  1.00  0.00    -0.266 A  
HETATM   26  C   UNL     1     -10.618   9.385  70.666  1.00  0.00    -0.354 A  
HETATM   27  C   UNL     1     -10.752  10.463  69.788  1.00  0.00    -0.325 A  
ENDBRANCH  21  22
ENDBRANCH  20  21
ENDBRANCH  18  20
ENDBRANCH  13  18
ENDBRANCH  11  12
ENDBRANCH  10  11
ENDBRANCH   7  10
ENDBRANCH   6   7
ENDBRANCH   4   6
ENDBRANCH   3   4
ENDBRANCH   2   3
TORSDOF 11
ENDMDL
MODEL      149
REMARK 921   NORMALIZED FREE ENERGY PREDICTED BY IDOCK:   -4.91 KCAL/MOL
REMARK 922        TOTAL FREE ENERGY PREDICTED BY IDOCK:   -9.09 KCAL/MOL
REMARK 923 INTER-LIGAND FREE ENERGY PREDICTED BY IDOCK:   -7.74 KCAL/MOL
REMARK 924 INTRA-LIGAND FREE ENERGY PREDICTED BY IDOCK:   -1.36 KCAL/MOL
REMARK 927      BINDING AFFINITY PREDICTED BY RF-SCORE:    0.00 PKD
ROOT
HETATM    1  C   UNL     1     -12.307  11.892  63.749  1.00  0.00    -0.541 C  
HETATM    2  C   UNL     1     -12.295  13.394  63.510  1.00  0.00    -0.398 C  
ENDROOT
BRANCH   2   3
HETATM    3  C   UNL     1     -11.520  14.122  64.608  1.00  0.00    -0.387 C  
BRANCH   3   4
HETATM    4  N   UNL     1     -12.321  14.162  65.830  1.00  0.00    -0.465 NA 
HETATM    5  H   UNL     1     -12.869  13.310  65.955  1.00  0.00     0.000 HD 
BRANCH   4   6
HETATM    6  C   UNL     1     -11.463  14.436  66.991  1.00  0.00    -0.361 C  
BRANCH   6   7
HETATM    7  C   UNL     1     -11.281  13.174  67.855  1.00  0.00    -0.270 C  
HETATM    8  O   UNL     1     -12.271  12.189  67.520  1.00  0.00    -0.474 OA 
HETATM    9  H   UNL     1     -12.158  11.411  68.053  1.00  0.00     0.000 HD 
BRANCH   7  10
HETATM   10  C   UNL     1      -9.883  12.576  67.663  1.00  0.00    -0.202 C  
BRANCH  10  11
HETATM   11  O   UNL     1      -9.932  11.155  67.892  1.00  0.00    -0.168 OA 
BRANCH  11  12
HETATM   12  C   UNL     1      -9.502  10.380  66.845  1.00  0.00    -0.168 A  
HETATM   13  C   UNL     1      -8.863   9.151  67.108  1.00  0.00    -0.130 A  
HETATM   14  C   UNL     1      -9.623  10.815  65.516  1.00  0.00    -0.269 A  
HETATM   15  C   UNL     1      -8.423   8.362  66.033  1.00  0.00    -0.142 A  
HETATM   16  C   UNL     1      -9.164  10.029  64.460  1.00  0.00    -0.313 A  
HETATM   17  C   UNL     1      -8.569   8.801  64.717  1.00  0.00    -0.161 A  
BRANCH  13  18
HETATM   18  C   UNL     1      -8.663   8.644  68.506  1.00  0.00    -0.139 C  
HETATM   19  O   UNL     1      -7.626   8.894  69.115  1.00  0.00    -0.078 OA 
BRANCH  18  20
HETATM   20  C   UNL     1      -9.794   7.886  69.190  1.00  0.00    -0.174 C  
BRANCH  20  21
HETATM   21  C   UNL     1      -9.850   8.158  70.689  1.00  0.00    -0.196 C  
BRANCH  21  22
HETATM   22  C   UNL     1     -11.057   8.976  71.083  1.00  0.00    -0.371 A  
HETATM   23  C   UNL     1     -12.043   8.434  71.921  1.00  0.00    -0.398 A  
HETATM   24  C   UNL     1     -13.146   9.200  72.303  1.00  0.00    -0.509 A  
HETATM   25  C   UNL     1     -13.278  10.510  71.849  1.00  0.00    -0.526 A  
HETATM   26  C   UNL     1     -12.311  11.053  71.006  1.00  0.00    -0.490 A  
HETATM   27  C   UNL     1     -11.207  10.289  70.620  1.00  0.00    -0.406 A  
ENDBRANCH  21  22
ENDBRANCH  20  21
ENDBRANCH  18  20
ENDBRANCH  13  18
ENDBRANCH  11  12
ENDBRANCH  10  11
ENDBRANCH   7  10
ENDBRANCH   6   7
ENDBRANCH   4   6
ENDBRANCH   3   4
ENDBRANCH   2   3
TORSDOF 11
ENDMDL
MODEL      150
REMARK 921   NORMALIZED FREE ENERGY PREDICTED BY IDOCK:   -4.91 KCAL/MOL
REMARK 922        TOTAL FREE ENERGY PREDICTED BY IDOCK:   -9.08 KCAL/MOL
REMARK 923 INTER-LIGAND FREE ENERGY PREDICTED BY IDOCK:   -8.15 KCAL/MOL
REMARK 924 INTRA-LIGAND FREE ENERGY PREDICTED BY IDOCK:   -0.93 KCAL/MOL
REMARK 927      BINDING AFFINITY PREDICTED BY RF-SCORE:    0.00 PKD
ROOT
HETATM    1  C   UNL     1      -6.576   8.560  64.472  1.00  0.00    -0.066 C  
HETATM    2  C   UNL     1      -7.678   9.604  64.370  1.00  0.00    -0.128 C  
ENDROOT
BRANCH   2   3
HETATM    3  C   UNL     1      -8.835   9.281  65.314  1.00  0.00    -0.198 C  
BRANCH   3   4
HETATM    4  N   UNL     1      -9.089   7.841  65.305  1.00  0.00    -0.365 NA 
HETATM    5  H   UNL     1      -8.395   7.335  64.754  1.00  0.00     0.000 HD 
BRANCH   4   6
HETATM    6  C   UNL     1      -9.174   7.332  66.681  1.00  0.00    -0.157 C  
BRANCH   6   7
HETATM    7  C   UNL     1     -10.549   7.641  67.301  1.00  0.00    -0.318 C  
HETATM    8  O   UNL     1     -11.529   6.695  66.847  1.00  0.00    -0.777 OA 
HETATM    9  H   UNL     1     -12.378   6.887  67.229  1.00  0.00     0.000 HD 
BRANCH   7  10
HETATM   10  C   UNL     1     -10.479   7.605  68.832  1.00  0.00    -0.199 C  
BRANCH  10  11
HETATM   11  O   UNL     1     -10.309   8.944  69.338  1.00  0.00    -0.204 OA 
BRANCH  11  12
HETATM   12  C   UNL     1     -11.250   9.345  70.251  1.00  0.00    -0.246 A  
HETATM   13  C   UNL     1     -11.915  10.575  70.066  1.00  0.00    -0.367 A  
HETATM   14  C   UNL     1     -11.518   8.592  71.404  1.00  0.00    -0.344 A  
HETATM   15  C   UNL     1     -12.876  10.984  71.006  1.00  0.00    -0.442 A  
HETATM   16  C   UNL     1     -12.461   9.021  72.337  1.00  0.00    -0.375 A  
HETATM   17  C   UNL     1     -13.144  10.213  72.137  1.00  0.00    -0.463 A  
BRANCH  13  18
HETATM   18  C   UNL     1     -11.648  11.451  68.878  1.00  0.00    -0.323 C  
HETATM   19  O   UNL     1     -11.994  11.095  67.754  1.00  0.00    -0.630 OA 
BRANCH  18  20
HETATM   20  C   UNL     1     -11.018  12.821  69.092  1.00  0.00    -0.185 C  
BRANCH  20  21
HETATM   21  C   UNL     1     -12.011  13.957  68.868  1.00  0.00    -0.393 C  
BRANCH  21  22
HETATM   22  C   UNL     1     -11.352  15.200  68.320  1.00  0.00    -0.338 A  
HETATM   23  C   UNL     1     -11.071  16.288  69.160  1.00  0.00    -0.322 A  
HETATM   24  C   UNL     1     -10.439  17.427  68.656  1.00  0.00    -0.355 A  
HETATM   25  C   UNL     1     -10.088  17.493  67.310  1.00  0.00    -0.327 A  
HETATM   26  C   UNL     1     -10.375  16.423  66.464  1.00  0.00    -0.306 A  
HETATM   27  C   UNL     1     -11.008  15.283  66.965  1.00  0.00    -0.324 A  
ENDBRANCH  21  22
ENDBRANCH  20  21
ENDBRANCH  18  20
ENDBRANCH  13  18
ENDBRANCH  11  12
ENDBRANCH  10  11
ENDBRANCH   7  10
ENDBRANCH   6   7
ENDBRANCH   4   6
ENDBRANCH   3   4
ENDBRANCH   2   3
TORSDOF 11
ENDMDL
MODEL      151
REMARK 921   NORMALIZED FREE ENERGY PREDICTED BY IDOCK:   -4.90 KCAL/MOL
REMARK 922        TOTAL FREE ENERGY PREDICTED BY IDOCK:   -9.07 KCAL/MOL
REMARK 923 INTER-LIGAND FREE ENERGY PREDICTED BY IDOCK:   -7.55 KCAL/MOL
REMARK 924 INTRA-LIGAND FREE ENERGY PREDICTED BY IDOCK:   -1.52 KCAL/MOL
REMARK 927      BINDING AFFINITY PREDICTED BY RF-SCORE:    0.00 PKD
ROOT
HETATM    1  C   UNL     1     -11.972  12.617  63.362  1.00  0.00    -0.613 C  
HETATM    2  C   UNL     1     -11.299  12.279  64.684  1.00  0.00    -0.375 C  
ENDROOT
BRANCH   2   3
HETATM    3  C   UNL     1     -11.995  12.974  65.853  1.00  0.00    -0.435 C  
BRANCH   3   4
HETATM    4  N   UNL     1     -12.027  12.080  67.008  1.00  0.00    -0.606 NA 
HETATM    5  H   UNL     1     -12.856  11.486  67.008  1.00  0.00     0.000 HD 
BRANCH   4   6
HETATM    6  C   UNL     1     -10.788  11.292  67.075  1.00  0.00    -0.280 C  
BRANCH   6   7
HETATM    7  C   UNL     1      -9.962  11.666  68.318  1.00  0.00    -0.201 C  
HETATM    8  O   UNL     1     -10.816  12.159  69.361  1.00  0.00    -0.436 OA 
HETATM    9  H   UNL     1     -10.306  12.390  70.128  1.00  0.00     0.000 HD 
BRANCH   7  10
HETATM   10  C   UNL     1      -9.175  10.456  68.836  1.00  0.00    -0.177 C  
BRANCH  10  11
HETATM   11  O   UNL     1     -10.024   9.655  69.681  1.00  0.00    -0.193 OA 
BRANCH  11  12
HETATM   12  C   UNL     1      -9.407   9.106  70.776  1.00  0.00    -0.264 A  
HETATM   13  C   UNL     1     -10.181   8.734  71.893  1.00  0.00    -0.415 A  
HETATM   14  C   UNL     1      -8.011   8.970  70.836  1.00  0.00    -0.194 A  
HETATM   15  C   UNL     1      -9.545   8.174  73.014  1.00  0.00    -0.336 A  
HETATM   16  C   UNL     1      -7.393   8.430  71.964  1.00  0.00    -0.122 A  
HETATM   17  C   UNL     1      -8.158   8.028  73.050  1.00  0.00    -0.222 A  
BRANCH  13  18
HETATM   18  C   UNL     1     -11.673   8.890  71.913  1.00  0.00    -0.369 C  
HETATM   19  O   UNL     1     -12.183   9.937  72.307  1.00  0.00    -0.133 OA 
BRANCH  18  20
HETATM   20  C   UNL     1     -12.545   7.769  71.363  1.00  0.00    -0.339 C  
BRANCH  20  21
HETATM   21  C   UNL     1     -11.864   6.407  71.456  1.00  0.00    -0.355 C  
BRANCH  21  22
HETATM   22  C   UNL     1     -10.971   6.125  70.271  1.00  0.00    -0.417 A  
HETATM   23  C   UNL     1     -11.282   6.643  69.005  1.00  0.00    -0.289 A  
HETATM   24  C   UNL     1     -10.443   6.402  67.916  1.00  0.00    -0.276 A  
HETATM   25  C   UNL     1      -9.289   5.639  68.079  1.00  0.00    -0.114 A  
HETATM   26  C   UNL     1      -8.978   5.109  69.330  1.00  0.00    -0.126 A  
HETATM   27  C   UNL     1      -9.816   5.347  70.421  1.00  0.00    -0.270 A  
ENDBRANCH  21  22
ENDBRANCH  20  21
ENDBRANCH  18  20
ENDBRANCH  13  18
ENDBRANCH  11  12
ENDBRANCH  10  11
ENDBRANCH   7  10
ENDBRANCH   6   7
ENDBRANCH   4   6
ENDBRANCH   3   4
ENDBRANCH   2   3
TORSDOF 11
ENDMDL
MODEL      152
REMARK 921   NORMALIZED FREE ENERGY PREDICTED BY IDOCK:   -4.89 KCAL/MOL
REMARK 922        TOTAL FREE ENERGY PREDICTED BY IDOCK:   -9.05 KCAL/MOL
REMARK 923 INTER-LIGAND FREE ENERGY PREDICTED BY IDOCK:   -7.90 KCAL/MOL
REMARK 924 INTRA-LIGAND FREE ENERGY PREDICTED BY IDOCK:   -1.15 KCAL/MOL
REMARK 927      BINDING AFFINITY PREDICTED BY RF-SCORE:    0.00 PKD
ROOT
HETATM    1  C   UNL     1      -9.617  20.668  67.173  1.00  0.00    -0.534 C  
HETATM    2  C   UNL     1     -10.047  19.457  67.986  1.00  0.00    -0.516 C  
ENDROOT
BRANCH   2   3
HETATM    3  C   UNL     1     -10.600  18.354  67.085  1.00  0.00    -0.383 C  
BRANCH   3   4
HETATM    4  N   UNL     1     -10.999  17.208  67.899  1.00  0.00    -0.293 NA 
HETATM    5  H   UNL     1     -10.896  16.327  67.394  1.00  0.00     0.000 HD 
BRANCH   4   6
HETATM    6  C   UNL     1     -10.256  17.202  69.167  1.00  0.00    -0.284 C  
BRANCH   6   7
HETATM    7  C   UNL     1      -9.538  15.858  69.382  1.00  0.00    -0.265 C  
HETATM    8  O   UNL     1     -10.207  15.086  70.392  1.00  0.00    -0.502 OA 
HETATM    9  H   UNL     1      -9.763  14.256  70.524  1.00  0.00     0.000 HD 
BRANCH   7  10
HETATM   10  C   UNL     1      -9.485  15.052  68.079  1.00  0.00    -0.193 C  
BRANCH  10  11
HETATM   11  O   UNL     1     -10.257  13.844  68.227  1.00  0.00    -0.234 OA 
BRANCH  11  12
HETATM   12  C   UNL     1     -10.905  13.424  67.094  1.00  0.00    -0.276 A  
HETATM   13  C   UNL     1     -10.498  12.229  66.466  1.00  0.00    -0.254 A  
HETATM   14  C   UNL     1     -11.923  14.191  66.507  1.00  0.00    -0.466 A  
HETATM   15  C   UNL     1     -11.163  11.803  65.304  1.00  0.00    -0.315 A  
HETATM   16  C   UNL     1     -12.561  13.764  65.343  1.00  0.00    -0.534 A  
HETATM   17  C   UNL     1     -12.186  12.569  64.744  1.00  0.00    -0.532 A  
BRANCH  13  18
HETATM   18  C   UNL     1      -9.390  11.381  67.016  1.00  0.00    -0.174 C  
HETATM   19  O   UNL     1      -8.327  11.277  66.409  1.00  0.00    -0.165 OA 
BRANCH  18  20
HETATM   20  C   UNL     1      -9.569  10.716  68.375  1.00  0.00    -0.170 C  
BRANCH  20  21
HETATM   21  C   UNL     1     -10.898   9.977  68.488  1.00  0.00    -0.270 C  
BRANCH  21  22
HETATM   22  C   UNL     1     -10.724   8.476  68.507  1.00  0.00    -0.080 A  
HETATM   23  C   UNL     1     -10.726   7.743  67.311  1.00  0.00    -0.326 A  
HETATM   24  C   UNL     1     -10.541   6.360  67.328  1.00  0.00    -0.382 A  
HETATM   25  C   UNL     1     -10.357   5.695  68.538  1.00  0.00    -0.265 A  
HETATM   26  C   UNL     1     -10.367   6.412  69.733  1.00  0.00    -0.246 A  
HETATM   27  C   UNL     1     -10.553   7.796  69.719  1.00  0.00    -0.241 A  
ENDBRANCH  21  22
ENDBRANCH  20  21
ENDBRANCH  18  20
ENDBRANCH  13  18
ENDBRANCH  11  12
ENDBRANCH  10  11
ENDBRANCH   7  10
ENDBRANCH   6   7
ENDBRANCH   4   6
ENDBRANCH   3   4
ENDBRANCH   2   3
TORSDOF 11
ENDMDL
MODEL      153
REMARK 921   NORMALIZED FREE ENERGY PREDICTED BY IDOCK:   -4.87 KCAL/MOL
REMARK 922        TOTAL FREE ENERGY PREDICTED BY IDOCK:   -9.02 KCAL/MOL
REMARK 923 INTER-LIGAND FREE ENERGY PREDICTED BY IDOCK:   -7.68 KCAL/MOL
REMARK 924 INTRA-LIGAND FREE ENERGY PREDICTED BY IDOCK:   -1.34 KCAL/MOL
REMARK 927      BINDING AFFINITY PREDICTED BY RF-SCORE:    0.00 PKD
ROOT
HETATM    1  C   UNL     1     -11.018   6.461  70.257  1.00  0.00    -0.378 C  
HETATM    2  C   UNL     1     -11.755   6.820  71.539  1.00  0.00    -0.361 C  
ENDROOT
BRANCH   2   3
HETATM    3  C   UNL     1     -12.522   8.132  71.387  1.00  0.00    -0.292 C  
BRANCH   3   4
HETATM    4  N   UNL     1     -11.876   8.965  70.375  1.00  0.00    -0.476 NA 
HETATM    5  H   UNL     1     -12.351   8.907  69.473  1.00  0.00     0.000 HD 
BRANCH   4   6
HETATM    6  C   UNL     1     -11.769  10.351  70.849  1.00  0.00    -0.360 C  
BRANCH   6   7
HETATM    7  C   UNL     1     -11.978  11.348  69.695  1.00  0.00    -0.348 C  
HETATM    8  O   UNL     1     -11.300  12.585  69.970  1.00  0.00    -0.509 OA 
HETATM    9  H   UNL     1     -11.429  13.200  69.257  1.00  0.00     0.000 HD 
BRANCH   7  10
HETATM   10  C   UNL     1     -11.463  10.770  68.372  1.00  0.00    -0.288 C  
BRANCH  10  11
HETATM   11  O   UNL     1     -10.701  11.772  67.672  1.00  0.00    -0.201 OA 
BRANCH  11  12
HETATM   12  C   UNL     1     -10.978  11.886  66.334  1.00  0.00    -0.292 A  
HETATM   13  C   UNL     1     -10.045  11.410  65.390  1.00  0.00    -0.308 A  
HETATM   14  C   UNL     1     -12.141  12.527  65.880  1.00  0.00    -0.420 A  
HETATM   15  C   UNL     1     -10.332  11.530  64.020  1.00  0.00    -0.406 A  
HETATM   16  C   UNL     1     -12.402  12.656  64.516  1.00  0.00    -0.537 A  
HETATM   17  C   UNL     1     -11.502  12.154  63.586  1.00  0.00    -0.566 A  
BRANCH  13  18
HETATM   18  C   UNL     1      -8.763  10.751  65.804  1.00  0.00    -0.186 C  
HETATM   19  O   UNL     1      -7.873  11.406  66.340  1.00  0.00    -0.145 OA 
BRANCH  18  20
HETATM   20  C   UNL     1      -8.611   9.245  65.627  1.00  0.00    -0.172 C  
BRANCH  20  21
HETATM   21  C   UNL     1      -9.550   8.457  66.534  1.00  0.00    -0.304 C  
BRANCH  21  22
HETATM   22  C   UNL     1      -9.472   6.968  66.291  1.00  0.00    -0.127 A  
HETATM   23  C   UNL     1      -8.318   6.397  65.735  1.00  0.00    -0.146 A  
HETATM   24  C   UNL     1      -8.237   5.017  65.533  1.00  0.00    -0.118 A  
HETATM   25  C   UNL     1      -9.309   4.198  65.880  1.00  0.00    -0.163 A  
HETATM   26  C   UNL     1     -10.465   4.758  66.421  1.00  0.00    -0.283 A  
HETATM   27  C   UNL     1     -10.549   6.137  66.622  1.00  0.00    -0.296 A  
ENDBRANCH  21  22
ENDBRANCH  20  21
ENDBRANCH  18  20
ENDBRANCH  13  18
ENDBRANCH  11  12
ENDBRANCH  10  11
ENDBRANCH   7  10
ENDBRANCH   6   7
ENDBRANCH   4   6
ENDBRANCH   3   4
ENDBRANCH   2   3
TORSDOF 11
ENDMDL
MODEL      154
REMARK 921   NORMALIZED FREE ENERGY PREDICTED BY IDOCK:   -4.87 KCAL/MOL
REMARK 922        TOTAL FREE ENERGY PREDICTED BY IDOCK:   -9.02 KCAL/MOL
REMARK 923 INTER-LIGAND FREE ENERGY PREDICTED BY IDOCK:   -8.33 KCAL/MOL
REMARK 924 INTRA-LIGAND FREE ENERGY PREDICTED BY IDOCK:   -0.69 KCAL/MOL
REMARK 927      BINDING AFFINITY PREDICTED BY RF-SCORE:    0.00 PKD
ROOT
HETATM    1  C   UNL     1      -6.521  17.283  69.429  1.00  0.00    -0.235 C  
HETATM    2  C   UNL     1      -5.859  18.581  68.994  1.00  0.00    -0.224 C  
ENDROOT
BRANCH   2   3
HETATM    3  C   UNL     1      -6.879  19.549  68.396  1.00  0.00    -0.290 C  
BRANCH   3   4
HETATM    4  N   UNL     1      -8.226  19.159  68.808  1.00  0.00    -0.363 NA 
HETATM    5  H   UNL     1      -8.349  19.223  69.819  1.00  0.00     0.000 HD 
BRANCH   4   6
HETATM    6  C   UNL     1      -9.229  19.950  68.081  1.00  0.00    -0.285 C  
BRANCH   6   7
HETATM    7  C   UNL     1      -9.959  19.090  67.034  1.00  0.00    -0.342 C  
HETATM    8  O   UNL     1      -9.543  19.451  65.708  1.00  0.00    -0.394 OA 
HETATM    9  H   UNL     1      -9.994  18.920  65.062  1.00  0.00     0.000 HD 
BRANCH   7  10
HETATM   10  C   UNL     1      -9.686  17.599  67.264  1.00  0.00    -0.284 C  
BRANCH  10  11
HETATM   11  O   UNL     1     -10.807  16.826  66.792  1.00  0.00    -0.172 OA 
BRANCH  11  12
HETATM   12  C   UNL     1     -11.117  15.725  67.550  1.00  0.00    -0.258 A  
HETATM   13  C   UNL     1     -11.583  14.556  66.915  1.00  0.00    -0.399 A  
HETATM   14  C   UNL     1     -11.044  15.758  68.951  1.00  0.00    -0.298 A  
HETATM   15  C   UNL     1     -11.901  13.431  67.695  1.00  0.00    -0.394 A  
HETATM   16  C   UNL     1     -11.381  14.639  69.712  1.00  0.00    -0.315 A  
HETATM   17  C   UNL     1     -11.804  13.475  69.086  1.00  0.00    -0.386 A  
BRANCH  13  18
HETATM   18  C   UNL     1     -11.724  14.465  65.424  1.00  0.00    -0.362 C  
HETATM   19  O   UNL     1     -11.391  15.407  64.710  1.00  0.00    -0.412 OA 
BRANCH  18  20
HETATM   20  C   UNL     1     -12.208  13.161  64.803  1.00  0.00    -0.477 C  
BRANCH  20  21
HETATM   21  C   UNL     1     -11.370  12.747  63.598  1.00  0.00    -0.514 C  
BRANCH  21  22
HETATM   22  C   UNL     1     -10.480  11.563  63.894  1.00  0.00    -0.439 A  
HETATM   23  C   UNL     1      -9.773  10.926  62.863  1.00  0.00    -0.349 A  
HETATM   24  C   UNL     1      -8.933   9.847  63.142  1.00  0.00    -0.275 A  
HETATM   25  C   UNL     1      -8.794   9.390  64.450  1.00  0.00    -0.225 A  
HETATM   26  C   UNL     1      -9.502  10.007  65.480  1.00  0.00    -0.296 A  
HETATM   27  C   UNL     1     -10.345  11.085  65.204  1.00  0.00    -0.346 A  
ENDBRANCH  21  22
ENDBRANCH  20  21
ENDBRANCH  18  20
ENDBRANCH  13  18
ENDBRANCH  11  12
ENDBRANCH  10  11
ENDBRANCH   7  10
ENDBRANCH   6   7
ENDBRANCH   4   6
ENDBRANCH   3   4
ENDBRANCH   2   3
TORSDOF 11
ENDMDL
MODEL      155
REMARK 921   NORMALIZED FREE ENERGY PREDICTED BY IDOCK:   -4.86 KCAL/MOL
REMARK 922        TOTAL FREE ENERGY PREDICTED BY IDOCK:   -9.00 KCAL/MOL
REMARK 923 INTER-LIGAND FREE ENERGY PREDICTED BY IDOCK:   -7.34 KCAL/MOL
REMARK 924 INTRA-LIGAND FREE ENERGY PREDICTED BY IDOCK:   -1.67 KCAL/MOL
REMARK 927      BINDING AFFINITY PREDICTED BY RF-SCORE:    0.00 PKD
ROOT
HETATM    1  C   UNL     1      -6.351   9.994  64.612  1.00  0.00    -0.125 C  
HETATM    2  C   UNL     1      -6.973   9.754  65.980  1.00  0.00    -0.099 C  
ENDROOT
BRANCH   2   3
HETATM    3  C   UNL     1      -7.232  11.071  66.708  1.00  0.00    -0.139 C  
BRANCH   3   4
HETATM    4  N   UNL     1      -6.094  11.968  66.521  1.00  0.00    -0.492 NA 
HETATM    5  H   UNL     1      -6.287  12.689  65.825  1.00  0.00     0.000 HD 
BRANCH   4   6
HETATM    6  C   UNL     1      -5.684  12.546  67.809  1.00  0.00    -0.116 C  
BRANCH   6   7
HETATM    7  C   UNL     1      -6.909  12.908  68.666  1.00  0.00    -0.099 C  
HETATM    8  O   UNL     1      -6.639  12.670  70.056  1.00  0.00    -0.356 OA 
HETATM    9  H   UNL     1      -7.396  12.894  70.585  1.00  0.00     0.000 HD 
BRANCH   7  10
HETATM   10  C   UNL     1      -7.299  14.378  68.470  1.00  0.00    -0.122 C  
BRANCH  10  11
HETATM   11  O   UNL     1      -8.483  14.457  67.652  1.00  0.00    -0.162 OA 
BRANCH  11  12
HETATM   12  C   UNL     1      -8.978  15.722  67.463  1.00  0.00    -0.194 A  
HETATM   13  C   UNL     1     -10.139  16.122  68.157  1.00  0.00    -0.237 A  
HETATM   14  C   UNL     1      -8.394  16.606  66.543  1.00  0.00    -0.322 A  
HETATM   15  C   UNL     1     -10.644  17.418  67.959  1.00  0.00    -0.389 A  
HETATM   16  C   UNL     1      -8.919  17.882  66.344  1.00  0.00    -0.247 A  
HETATM   17  C   UNL     1     -10.040  18.291  67.054  1.00  0.00    -0.370 A  
BRANCH  13  18
HETATM   18  C   UNL     1     -10.838  15.214  69.125  1.00  0.00    -0.251 C  
HETATM   19  O   UNL     1     -10.505  15.192  70.307  1.00  0.00    -0.227 OA 
BRANCH  18  20
HETATM   20  C   UNL     1     -12.019  14.382  68.642  1.00  0.00    -0.332 C  
BRANCH  20  21
HETATM   21  C   UNL     1     -11.578  13.085  67.971  1.00  0.00    -0.383 C  
BRANCH  21  22
HETATM   22  C   UNL     1     -11.716  13.136  66.468  1.00  0.00    -0.433 A  
HETATM   23  C   UNL     1     -11.525  11.982  65.694  1.00  0.00    -0.372 A  
HETATM   24  C   UNL     1     -11.677  12.025  64.307  1.00  0.00    -0.425 A  
HETATM   25  C   UNL     1     -12.016  13.222  63.679  1.00  0.00    -0.547 A  
HETATM   26  C   UNL     1     -12.195  14.377  64.438  1.00  0.00    -0.481 A  
HETATM   27  C   UNL     1     -12.042  14.337  65.825  1.00  0.00    -0.414 A  
ENDBRANCH  21  22
ENDBRANCH  20  21
ENDBRANCH  18  20
ENDBRANCH  13  18
ENDBRANCH  11  12
ENDBRANCH  10  11
ENDBRANCH   7  10
ENDBRANCH   6   7
ENDBRANCH   4   6
ENDBRANCH   3   4
ENDBRANCH   2   3
TORSDOF 11
ENDMDL
MODEL      156
REMARK 921   NORMALIZED FREE ENERGY PREDICTED BY IDOCK:   -4.85 KCAL/MOL
REMARK 922        TOTAL FREE ENERGY PREDICTED BY IDOCK:   -8.99 KCAL/MOL
REMARK 923 INTER-LIGAND FREE ENERGY PREDICTED BY IDOCK:   -7.95 KCAL/MOL
REMARK 924 INTRA-LIGAND FREE ENERGY PREDICTED BY IDOCK:   -1.04 KCAL/MOL
REMARK 927      BINDING AFFINITY PREDICTED BY RF-SCORE:    0.00 PKD
ROOT
HETATM    1  C   UNL     1     -10.822   6.206  67.445  1.00  0.00    -0.431 C  
HETATM    2  C   UNL     1     -10.303   7.177  68.494  1.00  0.00    -0.203 C  
ENDROOT
BRANCH   2   3
HETATM    3  C   UNL     1      -8.792   7.042  68.673  1.00  0.00    -0.128 C  
BRANCH   3   4
HETATM    4  N   UNL     1      -8.104   7.888  67.699  1.00  0.00    -0.123 NA 
HETATM    5  H   UNL     1      -8.643   7.993  66.839  1.00  0.00     0.000 HD 
BRANCH   4   6
HETATM    6  C   UNL     1      -7.770   9.186  68.300  1.00  0.00    -0.091 C  
BRANCH   6   7
HETATM    7  C   UNL     1      -8.089  10.341  67.332  1.00  0.00    -0.110 C  
HETATM    8  O   UNL     1      -7.764   9.971  65.983  1.00  0.00    -0.102 OA 
HETATM    9  H   UNL     1      -7.960  10.684  65.387  1.00  0.00     0.000 HD 
BRANCH   7  10
HETATM   10  C   UNL     1      -9.570  10.727  67.411  1.00  0.00    -0.159 C  
BRANCH  10  11
HETATM   11  O   UNL     1      -9.716  12.135  67.143  1.00  0.00    -0.195 OA 
BRANCH  11  12
HETATM   12  C   UNL     1     -10.464  12.443  66.035  1.00  0.00    -0.254 A  
HETATM   13  C   UNL     1     -11.019  13.734  65.912  1.00  0.00    -0.283 A  
HETATM   14  C   UNL     1     -10.747  11.482  65.053  1.00  0.00    -0.350 A  
HETATM   15  C   UNL     1     -11.786  14.045  64.777  1.00  0.00    -0.415 A  
HETATM   16  C   UNL     1     -11.527  11.801  63.942  1.00  0.00    -0.481 A  
HETATM   17  C   UNL     1     -12.042  13.082  63.800  1.00  0.00    -0.574 A  
BRANCH  13  18
HETATM   18  C   UNL     1     -10.791  14.798  66.944  1.00  0.00    -0.316 C  
HETATM   19  O   UNL     1      -9.769  15.480  66.918  1.00  0.00    -0.225 OA 
BRANCH  18  20
HETATM   20  C   UNL     1     -11.879  15.079  67.973  1.00  0.00    -0.266 C  
BRANCH  20  21
HETATM   21  C   UNL     1     -11.312  15.618  69.282  1.00  0.00    -0.348 C  
BRANCH  21  22
HETATM   22  C   UNL     1     -12.051  15.093  70.490  1.00  0.00    -0.390 A  
HETATM   23  C   UNL     1     -12.442  13.747  70.557  1.00  0.00    -0.409 A  
HETATM   24  C   UNL     1     -13.104  13.257  71.684  1.00  0.00    -0.453 A  
HETATM   25  C   UNL     1     -13.385  14.105  72.752  1.00  0.00    -0.618 A  
HETATM   26  C   UNL     1     -13.013  15.447  72.690  1.00  0.00    -0.521 A  
HETATM   27  C   UNL     1     -12.352  15.940  71.563  1.00  0.00    -0.503 A  
ENDBRANCH  21  22
ENDBRANCH  20  21
ENDBRANCH  18  20
ENDBRANCH  13  18
ENDBRANCH  11  12
ENDBRANCH  10  11
ENDBRANCH   7  10
ENDBRANCH   6   7
ENDBRANCH   4   6
ENDBRANCH   3   4
ENDBRANCH   2   3
TORSDOF 11
ENDMDL
MODEL      157
REMARK 921   NORMALIZED FREE ENERGY PREDICTED BY IDOCK:   -4.83 KCAL/MOL
REMARK 922        TOTAL FREE ENERGY PREDICTED BY IDOCK:   -8.94 KCAL/MOL
REMARK 923 INTER-LIGAND FREE ENERGY PREDICTED BY IDOCK:   -7.39 KCAL/MOL
REMARK 924 INTRA-LIGAND FREE ENERGY PREDICTED BY IDOCK:   -1.55 KCAL/MOL
REMARK 927      BINDING AFFINITY PREDICTED BY RF-SCORE:    0.00 PKD
ROOT
HETATM    1  C   UNL     1      -5.236   6.776  65.871  1.00  0.00    -0.022 C  
HETATM    2  C   UNL     1      -6.226   7.665  66.608  1.00  0.00    -0.045 C  
ENDROOT
BRANCH   2   3
HETATM    3  C   UNL     1      -7.072   8.479  65.630  1.00  0.00    -0.079 C  
BRANCH   3   4
HETATM    4  N   UNL     1      -7.340   9.800  66.193  1.00  0.00    -0.098 NA 
HETATM    5  H   UNL     1      -6.483  10.337  66.330  1.00  0.00     0.000 HD 
BRANCH   4   6
HETATM    6  C   UNL     1      -8.311  10.521  65.359  1.00  0.00    -0.165 C  
BRANCH   6   7
HETATM    7  C   UNL     1      -9.201  11.440  66.216  1.00  0.00    -0.208 C  
HETATM    8  O   UNL     1      -9.826  12.441  65.398  1.00  0.00    -0.331 OA 
HETATM    9  H   UNL     1     -10.375  13.008  65.927  1.00  0.00     0.000 HD 
BRANCH   7  10
HETATM   10  C   UNL     1     -10.281  10.632  66.944  1.00  0.00    -0.223 C  
BRANCH  10  11
HETATM   11  O   UNL     1      -9.702   9.975  68.088  1.00  0.00    -0.139 OA 
BRANCH  11  12
HETATM   12  C   UNL     1     -10.177   8.712  68.337  1.00  0.00    -0.200 A  
HETATM   13  C   UNL     1     -10.533   8.354  69.653  1.00  0.00    -0.221 A  
HETATM   14  C   UNL     1     -10.253   7.746  67.322  1.00  0.00    -0.343 A  
HETATM   15  C   UNL     1     -11.017   7.058  69.905  1.00  0.00    -0.296 A  
HETATM   16  C   UNL     1     -10.717   6.459  67.592  1.00  0.00    -0.387 A  
HETATM   17  C   UNL     1     -11.104   6.116  68.880  1.00  0.00    -0.417 A  
BRANCH  13  18
HETATM   18  C   UNL     1     -10.438   9.323  70.794  1.00  0.00    -0.276 C  
HETATM   19  O   UNL     1      -9.349   9.583  71.299  1.00  0.00    -0.229 OA 
BRANCH  18  20
HETATM   20  C   UNL     1     -11.696  10.043  71.263  1.00  0.00    -0.452 C  
BRANCH  20  21
HETATM   21  C   UNL     1     -12.227  11.022  70.221  1.00  0.00    -0.447 C  
BRANCH  21  22
HETATM   22  C   UNL     1     -12.509  12.387  70.802  1.00  0.00    -0.356 A  
HETATM   23  C   UNL     1     -12.101  13.547  70.127  1.00  0.00    -0.425 A  
HETATM   24  C   UNL     1     -12.383  14.809  70.653  1.00  0.00    -0.401 A  
HETATM   25  C   UNL     1     -13.069  14.925  71.860  1.00  0.00    -0.425 A  
HETATM   26  C   UNL     1     -13.467  13.778  72.545  1.00  0.00    -0.682 A  
HETATM   27  C   UNL     1     -13.185  12.515  72.022  1.00  0.00    -0.524 A  
ENDBRANCH  21  22
ENDBRANCH  20  21
ENDBRANCH  18  20
ENDBRANCH  13  18
ENDBRANCH  11  12
ENDBRANCH  10  11
ENDBRANCH   7  10
ENDBRANCH   6   7
ENDBRANCH   4   6
ENDBRANCH   3   4
ENDBRANCH   2   3
TORSDOF 11
ENDMDL
MODEL      158
REMARK 921   NORMALIZED FREE ENERGY PREDICTED BY IDOCK:   -4.82 KCAL/MOL
REMARK 922        TOTAL FREE ENERGY PREDICTED BY IDOCK:   -8.94 KCAL/MOL
REMARK 923 INTER-LIGAND FREE ENERGY PREDICTED BY IDOCK:   -7.19 KCAL/MOL
REMARK 924 INTRA-LIGAND FREE ENERGY PREDICTED BY IDOCK:   -1.75 KCAL/MOL
REMARK 927      BINDING AFFINITY PREDICTED BY RF-SCORE:    0.00 PKD
ROOT
HETATM    1  C   UNL     1     -13.295  11.837  71.899  1.00  0.00    -0.401 C  
HETATM    2  C   UNL     1     -12.812  10.509  71.334  1.00  0.00    -0.551 C  
ENDROOT
BRANCH   2   3
HETATM    3  C   UNL     1     -11.851  10.722  70.166  1.00  0.00    -0.343 C  
BRANCH   3   4
HETATM    4  N   UNL     1     -11.538   9.436  69.546  1.00  0.00    -0.418 NA 
HETATM    5  H   UNL     1     -12.151   9.235  68.755  1.00  0.00     0.000 HD 
BRANCH   4   6
HETATM    6  C   UNL     1     -10.119   9.385  69.168  1.00  0.00    -0.195 C  
BRANCH   6   7
HETATM    7  C   UNL     1      -9.862   8.273  68.136  1.00  0.00    -0.172 C  
HETATM    8  O   UNL     1     -10.331   7.009  68.630  1.00  0.00    -0.173 OA 
HETATM    9  H   UNL     1     -10.172   6.323  67.992  1.00  0.00     0.000 HD 
BRANCH   7  10
HETATM   10  C   UNL     1     -10.557   8.589  66.806  1.00  0.00    -0.157 C  
BRANCH  10  11
HETATM   11  O   UNL     1     -10.565  10.014  66.594  1.00  0.00    -0.198 OA 
BRANCH  11  12
HETATM   12  C   UNL     1     -10.154  10.420  65.350  1.00  0.00    -0.284 A  
HETATM   13  C   UNL     1     -10.731  11.568  64.770  1.00  0.00    -0.366 A  
HETATM   14  C   UNL     1      -9.219   9.679  64.611  1.00  0.00    -0.293 A  
HETATM   15  C   UNL     1     -10.309  11.979  63.494  1.00  0.00    -0.492 A  
HETATM   16  C   UNL     1      -8.824  10.090  63.338  1.00  0.00    -0.249 A  
HETATM   17  C   UNL     1      -9.364  11.241  62.781  1.00  0.00    -0.362 A  
BRANCH  13  18
HETATM   18  C   UNL     1     -11.766  12.384  65.485  1.00  0.00    -0.407 C  
HETATM   19  O   UNL     1     -12.952  12.291  65.178  1.00  0.00    -0.464 OA 
BRANCH  18  20
HETATM   20  C   UNL     1     -11.340  13.266  66.652  1.00  0.00    -0.353 C  
BRANCH  20  21
HETATM   21  C   UNL     1     -10.205  14.214  66.277  1.00  0.00    -0.301 C  
BRANCH  21  22
HETATM   22  C   UNL     1      -8.977  14.009  67.131  1.00  0.00    -0.241 A  
HETATM   23  C   UNL     1      -8.817  12.833  67.880  1.00  0.00    -0.186 A  
HETATM   24  C   UNL     1      -7.669  12.635  68.650  1.00  0.00    -0.066 A  
HETATM   25  C   UNL     1      -6.674  13.609  68.684  1.00  0.00    -0.100 A  
HETATM   26  C   UNL     1      -6.830  14.786  67.955  1.00  0.00    -0.174 A  
HETATM   27  C   UNL     1      -7.977  14.988  67.185  1.00  0.00    -0.238 A  
ENDBRANCH  21  22
ENDBRANCH  20  21
ENDBRANCH  18  20
ENDBRANCH  13  18
ENDBRANCH  11  12
ENDBRANCH  10  11
ENDBRANCH   7  10
ENDBRANCH   6   7
ENDBRANCH   4   6
ENDBRANCH   3   4
ENDBRANCH   2   3
TORSDOF 11
ENDMDL
MODEL      159
REMARK 921   NORMALIZED FREE ENERGY PREDICTED BY IDOCK:   -4.80 KCAL/MOL
REMARK 922        TOTAL FREE ENERGY PREDICTED BY IDOCK:   -8.91 KCAL/MOL
REMARK 923 INTER-LIGAND FREE ENERGY PREDICTED BY IDOCK:   -7.83 KCAL/MOL
REMARK 924 INTRA-LIGAND FREE ENERGY PREDICTED BY IDOCK:   -1.08 KCAL/MOL
REMARK 927      BINDING AFFINITY PREDICTED BY RF-SCORE:    0.00 PKD
ROOT
HETATM    1  C   UNL     1      -5.553  12.802  69.598  1.00  0.00    -0.096 C  
HETATM    2  C   UNL     1      -5.335  12.141  68.245  1.00  0.00    -0.053 C  
ENDROOT
BRANCH   2   3
HETATM    3  C   UNL     1      -5.939  10.738  68.212  1.00  0.00    -0.046 C  
BRANCH   3   4
HETATM    4  N   UNL     1      -7.301  10.801  67.686  1.00  0.00    -0.092 NA 
HETATM    5  H   UNL     1      -7.833  11.568  68.097  1.00  0.00     0.000 HD 
BRANCH   4   6
HETATM    6  C   UNL     1      -7.276  10.877  66.218  1.00  0.00    -0.126 C  
BRANCH   6   7
HETATM    7  C   UNL     1      -8.235   9.848  65.595  1.00  0.00    -0.138 C  
HETATM    8  O   UNL     1      -8.952   9.143  66.620  1.00  0.00    -0.130 OA 
HETATM    9  H   UNL     1      -9.544   8.508  66.235  1.00  0.00     0.000 HD 
BRANCH   7  10
HETATM   10  C   UNL     1      -9.235  10.531  64.654  1.00  0.00    -0.235 C  
BRANCH  10  11
HETATM   11  O   UNL     1     -10.490  10.716  65.337  1.00  0.00    -0.258 OA 
BRANCH  11  12
HETATM   12  C   UNL     1     -11.138  11.891  65.055  1.00  0.00    -0.305 A  
HETATM   13  C   UNL     1     -11.498  12.754  66.111  1.00  0.00    -0.399 A  
HETATM   14  C   UNL     1     -11.513  12.224  63.745  1.00  0.00    -0.545 A  
HETATM   15  C   UNL     1     -12.165  13.956  65.819  1.00  0.00    -0.488 A  
HETATM   16  C   UNL     1     -12.191  13.412  63.473  1.00  0.00    -0.468 A  
HETATM   17  C   UNL     1     -12.513  14.280  64.508  1.00  0.00    -0.357 A  
BRANCH  13  18
HETATM   18  C   UNL     1     -11.166  12.441  67.540  1.00  0.00    -0.294 C  
HETATM   19  O   UNL     1     -10.192  11.744  67.813  1.00  0.00    -0.185 OA 
BRANCH  18  20
HETATM   20  C   UNL     1     -12.001  13.066  68.651  1.00  0.00    -0.298 C  
BRANCH  20  21
HETATM   21  C   UNL     1     -11.293  14.242  69.316  1.00  0.00    -0.322 C  
BRANCH  21  22
HETATM   22  C   UNL     1     -12.027  14.739  70.540  1.00  0.00    -0.373 A  
HETATM   23  C   UNL     1     -11.440  15.695  71.383  1.00  0.00    -0.488 A  
HETATM   24  C   UNL     1     -12.129  16.171  72.500  1.00  0.00    -0.644 A  
HETATM   25  C   UNL     1     -13.405  15.694  72.789  1.00  0.00    -0.640 A  
HETATM   26  C   UNL     1     -13.991  14.734  71.965  1.00  0.00    -0.582 A  
HETATM   27  C   UNL     1     -13.304  14.255  70.848  1.00  0.00    -0.266 A  
ENDBRANCH  21  22
ENDBRANCH  20  21
ENDBRANCH  18  20
ENDBRANCH  13  18
ENDBRANCH  11  12
ENDBRANCH  10  11
ENDBRANCH   7  10
ENDBRANCH   6   7
ENDBRANCH   4   6
ENDBRANCH   3   4
ENDBRANCH   2   3
TORSDOF 11
ENDMDL
MODEL      160
REMARK 921   NORMALIZED FREE ENERGY PREDICTED BY IDOCK:   -4.80 KCAL/MOL
REMARK 922        TOTAL FREE ENERGY PREDICTED BY IDOCK:   -8.90 KCAL/MOL
REMARK 923 INTER-LIGAND FREE ENERGY PREDICTED BY IDOCK:   -8.04 KCAL/MOL
REMARK 924 INTRA-LIGAND FREE ENERGY PREDICTED BY IDOCK:   -0.86 KCAL/MOL
REMARK 927      BINDING AFFINITY PREDICTED BY RF-SCORE:    0.00 PKD
ROOT
HETATM    1  C   UNL     1      -8.111   9.971  63.146  1.00  0.00    -0.156 C  
HETATM    2  C   UNL     1      -9.445  10.687  63.295  1.00  0.00    -0.360 C  
ENDROOT
BRANCH   2   3
HETATM    3  C   UNL     1     -10.007  10.520  64.706  1.00  0.00    -0.345 C  
BRANCH   3   4
HETATM    4  N   UNL     1      -9.639   9.206  65.230  1.00  0.00    -0.459 NA 
HETATM    5  H   UNL     1      -8.857   8.797  64.718  1.00  0.00     0.000 HD 
BRANCH   4   6
HETATM    6  C   UNL     1      -9.365   9.292  66.671  1.00  0.00    -0.170 C  
BRANCH   6   7
HETATM    7  C   UNL     1     -10.661   9.149  67.490  1.00  0.00    -0.249 C  
HETATM    8  O   UNL     1     -10.947   7.764  67.741  1.00  0.00    -0.489 OA 
HETATM    9  H   UNL     1     -11.746   7.676  68.246  1.00  0.00     0.000 HD 
BRANCH   7  10
HETATM   10  C   UNL     1     -10.550   9.895  68.825  1.00  0.00    -0.222 C  
BRANCH  10  11
HETATM   11  O   UNL     1     -11.142  11.202  68.696  1.00  0.00    -0.200 OA 
BRANCH  11  12
HETATM   12  C   UNL     1     -11.894  11.609  69.768  1.00  0.00    -0.357 A  
HETATM   13  C   UNL     1     -12.202  12.977  69.919  1.00  0.00    -0.271 A  
HETATM   14  C   UNL     1     -12.308  10.704  70.757  1.00  0.00    -0.472 A  
HETATM   15  C   UNL     1     -12.972  13.391  71.020  1.00  0.00    -0.260 A  
HETATM   16  C   UNL     1     -13.055  11.133  71.854  1.00  0.00    -0.513 A  
HETATM   17  C   UNL     1     -13.391  12.474  71.984  1.00  0.00    -0.528 A  
BRANCH  13  18
HETATM   18  C   UNL     1     -11.758  14.005  68.922  1.00  0.00    -0.340 C  
HETATM   19  O   UNL     1     -12.138  13.945  67.755  1.00  0.00    -0.371 OA 
BRANCH  18  20
HETATM   20  C   UNL     1     -10.896  15.171  69.391  1.00  0.00    -0.265 C  
BRANCH  20  21
HETATM   21  C   UNL     1     -11.396  16.511  68.861  1.00  0.00    -0.206 C  
BRANCH  21  22
HETATM   22  C   UNL     1     -10.355  17.229  68.035  1.00  0.00    -0.353 A  
HETATM   23  C   UNL     1      -9.000  16.885  68.140  1.00  0.00    -0.227 A  
HETATM   24  C   UNL     1      -8.042  17.532  67.358  1.00  0.00    -0.213 A  
HETATM   25  C   UNL     1      -8.427  18.532  66.468  1.00  0.00    -0.291 A  
HETATM   26  C   UNL     1      -9.770  18.891  66.366  1.00  0.00    -0.395 A  
HETATM   27  C   UNL     1     -10.730  18.246  67.148  1.00  0.00    -0.334 A  
ENDBRANCH  21  22
ENDBRANCH  20  21
ENDBRANCH  18  20
ENDBRANCH  13  18
ENDBRANCH  11  12
ENDBRANCH  10  11
ENDBRANCH   7  10
ENDBRANCH   6   7
ENDBRANCH   4   6
ENDBRANCH   3   4
ENDBRANCH   2   3
TORSDOF 11
ENDMDL
MODEL      161
REMARK 921   NORMALIZED FREE ENERGY PREDICTED BY IDOCK:   -4.79 KCAL/MOL
REMARK 922        TOTAL FREE ENERGY PREDICTED BY IDOCK:   -8.89 KCAL/MOL
REMARK 923 INTER-LIGAND FREE ENERGY PREDICTED BY IDOCK:   -8.59 KCAL/MOL
REMARK 924 INTRA-LIGAND FREE ENERGY PREDICTED BY IDOCK:   -0.30 KCAL/MOL
REMARK 927      BINDING AFFINITY PREDICTED BY RF-SCORE:    0.00 PKD
ROOT
HETATM    1  C   UNL     1     -12.791  15.171  73.990  1.00  0.00    -0.338 C  
HETATM    2  C   UNL     1     -11.941  16.274  73.377  1.00  0.00    -0.500 C  
ENDROOT
BRANCH   2   3
HETATM    3  C   UNL     1     -11.834  16.112  71.862  1.00  0.00    -0.525 C  
BRANCH   3   4
HETATM    4  N   UNL     1     -12.943  15.294  71.375  1.00  0.00    -0.394 NA 
HETATM    5  H   UNL     1     -13.457  15.756  70.624  1.00  0.00     0.000 HD 
BRANCH   4   6
HETATM    6  C   UNL     1     -12.458  13.967  70.972  1.00  0.00    -0.371 C  
BRANCH   6   7
HETATM    7  C   UNL     1     -12.203  13.909  69.455  1.00  0.00    -0.292 C  
HETATM    8  O   UNL     1     -12.595  15.142  68.831  1.00  0.00    -0.501 OA 
HETATM    9  H   UNL     1     -12.438  15.106  67.895  1.00  0.00     0.000 HD 
BRANCH   7  10
HETATM   10  C   UNL     1     -10.724  13.637  69.158  1.00  0.00    -0.104 C  
BRANCH  10  11
HETATM   11  O   UNL     1     -10.612  12.525  68.249  1.00  0.00    -0.217 OA 
BRANCH  11  12
HETATM   12  C   UNL     1     -10.923  12.805  66.943  1.00  0.00    -0.260 A  
HETATM   13  C   UNL     1     -10.070  13.638  66.191  1.00  0.00    -0.311 A  
HETATM   14  C   UNL     1     -12.110  12.337  66.358  1.00  0.00    -0.123 A  
HETATM   15  C   UNL     1     -10.393  13.925  64.854  1.00  0.00    -0.430 A  
HETATM   16  C   UNL     1     -12.426  12.646  65.036  1.00  0.00    -0.556 A  
HETATM   17  C   UNL     1     -11.568  13.435  64.282  1.00  0.00    -0.442 A  
BRANCH  13  18
HETATM   18  C   UNL     1      -8.806  14.206  66.766  1.00  0.00    -0.167 C  
HETATM   19  O   UNL     1      -7.904  13.462  67.142  1.00  0.00    -0.128 OA 
BRANCH  18  20
HETATM   20  C   UNL     1      -8.622  15.718  66.803  1.00  0.00    -0.306 C  
BRANCH  20  21
HETATM   21  C   UNL     1      -9.835  16.436  67.385  1.00  0.00    -0.244 C  
BRANCH  21  22
HETATM   22  C   UNL     1      -9.688  17.939  67.349  1.00  0.00    -0.288 A  
HETATM   23  C   UNL     1     -10.339  18.695  66.363  1.00  0.00    -0.472 A  
HETATM   24  C   UNL     1     -10.222  20.086  66.346  1.00  0.00    -0.598 A  
HETATM   25  C   UNL     1      -9.450  20.735  67.307  1.00  0.00    -0.467 A  
HETATM   26  C   UNL     1      -8.789  19.991  68.283  1.00  0.00    -0.201 A  
HETATM   27  C   UNL     1      -8.903  18.600  68.303  1.00  0.00    -0.353 A  
ENDBRANCH  21  22
ENDBRANCH  20  21
ENDBRANCH  18  20
ENDBRANCH  13  18
ENDBRANCH  11  12
ENDBRANCH  10  11
ENDBRANCH   7  10
ENDBRANCH   6   7
ENDBRANCH   4   6
ENDBRANCH   3   4
ENDBRANCH   2   3
TORSDOF 11
ENDMDL
MODEL      162
REMARK 921   NORMALIZED FREE ENERGY PREDICTED BY IDOCK:   -4.76 KCAL/MOL
REMARK 922        TOTAL FREE ENERGY PREDICTED BY IDOCK:   -8.84 KCAL/MOL
REMARK 923 INTER-LIGAND FREE ENERGY PREDICTED BY IDOCK:   -6.90 KCAL/MOL
REMARK 924 INTRA-LIGAND FREE ENERGY PREDICTED BY IDOCK:   -1.94 KCAL/MOL
REMARK 927      BINDING AFFINITY PREDICTED BY RF-SCORE:    0.00 PKD
ROOT
HETATM    1  C   UNL     1     -11.659  14.992  71.239  1.00  0.00    -0.384 C  
HETATM    2  C   UNL     1     -12.878  14.087  71.149  1.00  0.00    -0.427 C  
ENDROOT
BRANCH   2   3
HETATM    3  C   UNL     1     -12.470  12.623  70.998  1.00  0.00    -0.260 C  
BRANCH   3   4
HETATM    4  N   UNL     1     -13.059  11.835  72.079  1.00  0.00    -0.432 NA 
HETATM    5  H   UNL     1     -13.739  12.373  72.616  1.00  0.00     0.000 HD 
BRANCH   4   6
HETATM    6  C   UNL     1     -13.641  10.595  71.545  1.00  0.00     0.037 C  
BRANCH   6   7
HETATM    7  C   UNL     1     -13.228   9.380  72.396  1.00  0.00    -0.403 C  
HETATM    8  O   UNL     1     -14.383   8.761  72.983  1.00  0.00    -1.089 OA 
HETATM    9  H   UNL     1     -14.127   8.011  73.507  1.00  0.00     0.000 HD 
BRANCH   7  10
HETATM   10  C   UNL     1     -12.473   8.349  71.548  1.00  0.00    -0.312 C  
BRANCH  10  11
HETATM   11  O   UNL     1     -11.105   8.269  71.992  1.00  0.00    -0.267 OA 
BRANCH  11  12
HETATM   12  C   UNL     1     -10.421   7.156  71.574  1.00  0.00    -0.203 A  
HETATM   13  C   UNL     1      -9.016   7.208  71.464  1.00  0.00    -0.135 A  
HETATM   14  C   UNL     1     -11.093   5.987  71.187  1.00  0.00    -0.336 A  
HETATM   15  C   UNL     1      -8.319   6.066  71.033  1.00  0.00    -0.124 A  
HETATM   16  C   UNL     1     -10.388   4.869  70.743  1.00  0.00    -0.228 A  
HETATM   17  C   UNL     1      -9.002   4.906  70.670  1.00  0.00    -0.163 A  
BRANCH  13  18
HETATM   18  C   UNL     1      -8.236   8.438  71.822  1.00  0.00    -0.152 C  
HETATM   19  O   UNL     1      -7.975   8.688  72.996  1.00  0.00    -0.387 OA 
BRANCH  18  20
HETATM   20  C   UNL     1      -7.702   9.329  70.707  1.00  0.00    -0.164 C  
BRANCH  20  21
HETATM   21  C   UNL     1      -8.799   9.772  69.744  1.00  0.00    -0.241 C  
BRANCH  21  22
HETATM   22  C   UNL     1      -9.054   8.758  68.655  1.00  0.00    -0.141 A  
HETATM   23  C   UNL     1      -7.984   8.131  67.999  1.00  0.00    -0.127 A  
HETATM   24  C   UNL     1      -8.222   7.175  67.009  1.00  0.00    -0.117 A  
HETATM   25  C   UNL     1      -9.529   6.841  66.661  1.00  0.00    -0.205 A  
HETATM   26  C   UNL     1     -10.599   7.469  67.296  1.00  0.00    -0.394 A  
HETATM   27  C   UNL     1     -10.364   8.425  68.286  1.00  0.00    -0.244 A  
ENDBRANCH  21  22
ENDBRANCH  20  21
ENDBRANCH  18  20
ENDBRANCH  13  18
ENDBRANCH  11  12
ENDBRANCH  10  11
ENDBRANCH   7  10
ENDBRANCH   6   7
ENDBRANCH   4   6
ENDBRANCH   3   4
ENDBRANCH   2   3
TORSDOF 11
ENDMDL
MODEL      163
REMARK 921   NORMALIZED FREE ENERGY PREDICTED BY IDOCK:   -4.76 KCAL/MOL
REMARK 922        TOTAL FREE ENERGY PREDICTED BY IDOCK:   -8.84 KCAL/MOL
REMARK 923 INTER-LIGAND FREE ENERGY PREDICTED BY IDOCK:   -7.32 KCAL/MOL
REMARK 924 INTRA-LIGAND FREE ENERGY PREDICTED BY IDOCK:   -1.52 KCAL/MOL
REMARK 927      BINDING AFFINITY PREDICTED BY RF-SCORE:    0.00 PKD
ROOT
HETATM    1  C   UNL     1      -9.622   6.652  68.356  1.00  0.00    -0.123 C  
HETATM    2  C   UNL     1     -10.155   6.994  66.973  1.00  0.00    -0.298 C  
ENDROOT
BRANCH   2   3
HETATM    3  C   UNL     1      -9.283   8.046  66.288  1.00  0.00    -0.184 C  
BRANCH   3   4
HETATM    4  N   UNL     1     -10.106   9.191  65.904  1.00  0.00    -0.387 NA 
HETATM    5  H   UNL     1     -10.262   9.828  66.685  1.00  0.00     0.000 HD 
BRANCH   4   6
HETATM    6  C   UNL     1      -9.513   9.877  64.747  1.00  0.00    -0.291 C  
BRANCH   6   7
HETATM    7  C   UNL     1      -9.871  11.374  64.750  1.00  0.00    -0.259 C  
HETATM    8  O   UNL     1     -11.214  11.572  64.280  1.00  0.00    -0.338 OA 
HETATM    9  H   UNL     1     -11.434  12.496  64.282  1.00  0.00     0.000 HD 
BRANCH   7  10
HETATM   10  C   UNL     1      -9.733  11.968  66.157  1.00  0.00    -0.238 C  
BRANCH  10  11
HETATM   11  O   UNL     1      -9.809  13.405  66.083  1.00  0.00    -0.284 OA 
BRANCH  11  12
HETATM   12  C   UNL     1     -10.357  14.016  67.182  1.00  0.00    -0.265 A  
HETATM   13  C   UNL     1      -9.512  14.670  68.103  1.00  0.00    -0.212 A  
HETATM   14  C   UNL     1     -11.733  13.949  67.447  1.00  0.00    -0.422 A  
HETATM   15  C   UNL     1     -10.077  15.293  69.229  1.00  0.00    -0.252 A  
HETATM   16  C   UNL     1     -12.275  14.556  68.579  1.00  0.00    -0.164 A  
HETATM   17  C   UNL     1     -11.450  15.232  69.467  1.00  0.00    -0.318 A  
BRANCH  13  18
HETATM   18  C   UNL     1      -8.028  14.745  67.905  1.00  0.00    -0.140 C  
HETATM   19  O   UNL     1      -7.318  13.773  68.151  1.00  0.00    -0.097 OA 
BRANCH  18  20
HETATM   20  C   UNL     1      -7.421  16.012  67.316  1.00  0.00    -0.236 C  
BRANCH  20  21
HETATM   21  C   UNL     1      -8.287  16.613  66.214  1.00  0.00    -0.360 C  
BRANCH  21  22
HETATM   22  C   UNL     1      -8.876  17.947  66.605  1.00  0.00    -0.285 A  
HETATM   23  C   UNL     1     -10.258  18.088  66.797  1.00  0.00    -0.367 A  
HETATM   24  C   UNL     1     -10.798  19.317  67.182  1.00  0.00    -0.543 A  
HETATM   25  C   UNL     1      -9.965  20.416  67.374  1.00  0.00    -0.556 A  
HETATM   26  C   UNL     1      -8.592  20.290  67.172  1.00  0.00    -0.417 A  
HETATM   27  C   UNL     1      -8.049  19.063  66.785  1.00  0.00    -0.279 A  
ENDBRANCH  21  22
ENDBRANCH  20  21
ENDBRANCH  18  20
ENDBRANCH  13  18
ENDBRANCH  11  12
ENDBRANCH  10  11
ENDBRANCH   7  10
ENDBRANCH   6   7
ENDBRANCH   4   6
ENDBRANCH   3   4
ENDBRANCH   2   3
TORSDOF 11
ENDMDL
MODEL      164
REMARK 921   NORMALIZED FREE ENERGY PREDICTED BY IDOCK:   -4.75 KCAL/MOL
REMARK 922        TOTAL FREE ENERGY PREDICTED BY IDOCK:   -8.83 KCAL/MOL
REMARK 923 INTER-LIGAND FREE ENERGY PREDICTED BY IDOCK:   -6.98 KCAL/MOL
REMARK 924 INTRA-LIGAND FREE ENERGY PREDICTED BY IDOCK:   -1.84 KCAL/MOL
REMARK 927      BINDING AFFINITY PREDICTED BY RF-SCORE:    0.00 PKD
ROOT
HETATM    1  C   UNL     1      -7.051  15.043  69.588  1.00  0.00    -0.193 C  
HETATM    2  C   UNL     1      -6.513  16.398  69.154  1.00  0.00    -0.187 C  
ENDROOT
BRANCH   2   3
HETATM    3  C   UNL     1      -7.614  17.259  68.537  1.00  0.00    -0.251 C  
BRANCH   3   4
HETATM    4  N   UNL     1      -8.912  16.619  68.744  1.00  0.00    -0.248 NA 
HETATM    5  H   UNL     1      -9.060  16.366  69.722  1.00  0.00     0.000 HD 
BRANCH   4   6
HETATM    6  C   UNL     1      -9.989  17.477  68.231  1.00  0.00    -0.330 C  
BRANCH   6   7
HETATM    7  C   UNL     1     -10.534  16.939  66.896  1.00  0.00    -0.271 C  
HETATM    8  O   UNL     1      -9.831  17.528  65.791  1.00  0.00    -0.537 OA 
HETATM    9  H   UNL     1     -10.168  17.196  64.967  1.00  0.00     0.000 HD 
BRANCH   7  10
HETATM   10  C   UNL     1     -10.404  15.413  66.826  1.00  0.00    -0.279 C  
BRANCH  10  11
HETATM   11  O   UNL     1     -11.696  14.810  67.028  1.00  0.00    -0.368 OA 
BRANCH  11  12
HETATM   12  C   UNL     1     -11.757  13.888  68.042  1.00  0.00    -0.352 A  
HETATM   13  C   UNL     1     -11.748  12.513  67.729  1.00  0.00    -0.419 A  
HETATM   14  C   UNL     1     -11.896  14.283  69.381  1.00  0.00    -0.372 A  
HETATM   15  C   UNL     1     -11.813  11.572  68.771  1.00  0.00    -0.394 A  
HETATM   16  C   UNL     1     -11.978  13.336  70.402  1.00  0.00    -0.350 A  
HETATM   17  C   UNL     1     -11.932  11.982  70.099  1.00  0.00    -0.401 A  
BRANCH  13  18
HETATM   18  C   UNL     1     -11.643  12.021  66.316  1.00  0.00    -0.310 C  
HETATM   19  O   UNL     1     -12.504  12.314  65.490  1.00  0.00    -0.597 OA 
BRANCH  18  20
HETATM   20  C   UNL     1     -10.415  11.223  65.897  1.00  0.00    -0.314 C  
BRANCH  20  21
HETATM   21  C   UNL     1      -9.113  11.941  66.237  1.00  0.00    -0.188 C  
BRANCH  21  22
HETATM   22  C   UNL     1      -8.342  11.251  67.337  1.00  0.00    -0.137 A  
HETATM   23  C   UNL     1      -7.442  11.970  68.137  1.00  0.00    -0.112 A  
HETATM   24  C   UNL     1      -6.749  11.336  69.169  1.00  0.00    -0.099 A  
HETATM   25  C   UNL     1      -6.943   9.977  69.409  1.00  0.00    -0.069 A  
HETATM   26  C   UNL     1      -7.825   9.251  68.611  1.00  0.00    -0.089 A  
HETATM   27  C   UNL     1      -8.519   9.882  67.577  1.00  0.00    -0.115 A  
ENDBRANCH  21  22
ENDBRANCH  20  21
ENDBRANCH  18  20
ENDBRANCH  13  18
ENDBRANCH  11  12
ENDBRANCH  10  11
ENDBRANCH   7  10
ENDBRANCH   6   7
ENDBRANCH   4   6
ENDBRANCH   3   4
ENDBRANCH   2   3
TORSDOF 11
ENDMDL
MODEL      165
REMARK 921   NORMALIZED FREE ENERGY PREDICTED BY IDOCK:   -4.75 KCAL/MOL
REMARK 922        TOTAL FREE ENERGY PREDICTED BY IDOCK:   -8.82 KCAL/MOL
REMARK 923 INTER-LIGAND FREE ENERGY PREDICTED BY IDOCK:   -7.35 KCAL/MOL
REMARK 924 INTRA-LIGAND FREE ENERGY PREDICTED BY IDOCK:   -1.47 KCAL/MOL
REMARK 927      BINDING AFFINITY PREDICTED BY RF-SCORE:    0.00 PKD
ROOT
HETATM    1  C   UNL     1      -6.102   8.594  73.262  1.00  0.00    -0.101 C  
HETATM    2  C   UNL     1      -7.092   7.440  73.229  1.00  0.00    -0.081 C  
ENDROOT
BRANCH   2   3
HETATM    3  C   UNL     1      -8.358   7.774  74.016  1.00  0.00    -0.234 C  
BRANCH   3   4
HETATM    4  N   UNL     1      -9.474   7.969  73.093  1.00  0.00    -0.280 NA 
HETATM    5  H   UNL     1      -9.212   8.549  72.296  1.00  0.00     0.000 HD 
BRANCH   4   6
HETATM    6  C   UNL     1     -10.017   6.670  72.671  1.00  0.00    -0.171 C  
BRANCH   6   7
HETATM    7  C   UNL     1     -11.548   6.733  72.526  1.00  0.00    -0.197 C  
HETATM    8  O   UNL     1     -12.067   7.907  73.169  1.00  0.00    -0.655 OA 
HETATM    9  H   UNL     1     -13.012   7.945  73.079  1.00  0.00     0.000 HD 
BRANCH   7  10
HETATM   10  C   UNL     1     -11.958   6.739  71.048  1.00  0.00    -0.379 C  
BRANCH  10  11
HETATM   11  O   UNL     1     -11.258   7.793  70.359  1.00  0.00    -0.266 OA 
BRANCH  11  12
HETATM   12  C   UNL     1     -10.795   7.466  69.110  1.00  0.00    -0.111 A  
HETATM   13  C   UNL     1     -10.069   8.421  68.369  1.00  0.00    -0.224 A  
HETATM   14  C   UNL     1     -11.086   6.225  68.525  1.00  0.00    -0.397 A  
HETATM   15  C   UNL     1      -9.598   8.082  67.089  1.00  0.00    -0.227 A  
HETATM   16  C   UNL     1     -10.628   5.911  67.245  1.00  0.00    -0.365 A  
HETATM   17  C   UNL     1      -9.880   6.836  66.529  1.00  0.00    -0.167 A  
BRANCH  13  18
HETATM   18  C   UNL     1      -9.757   9.782  68.917  1.00  0.00    -0.171 C  
HETATM   19  O   UNL     1      -8.704   9.983  69.517  1.00  0.00    -0.170 OA 
BRANCH  18  20
HETATM   20  C   UNL     1     -10.722  10.929  68.649  1.00  0.00    -0.238 C  
BRANCH  20  21
HETATM   21  C   UNL     1     -10.118  11.995  67.740  1.00  0.00    -0.199 C  
BRANCH  21  22
HETATM   22  C   UNL     1     -10.826  12.087  66.409  1.00  0.00    -0.314 A  
HETATM   23  C   UNL     1     -10.327  11.406  65.289  1.00  0.00    -0.336 A  
HETATM   24  C   UNL     1     -10.995  11.472  64.065  1.00  0.00    -0.454 A  
HETATM   25  C   UNL     1     -12.163  12.222  63.946  1.00  0.00    -0.608 A  
HETATM   26  C   UNL     1     -12.659  12.912  65.050  1.00  0.00    -0.538 A  
HETATM   27  C   UNL     1     -11.992  12.849  66.276  1.00  0.00    -0.472 A  
ENDBRANCH  21  22
ENDBRANCH  20  21
ENDBRANCH  18  20
ENDBRANCH  13  18
ENDBRANCH  11  12
ENDBRANCH  10  11
ENDBRANCH   7  10
ENDBRANCH   6   7
ENDBRANCH   4   6
ENDBRANCH   3   4
ENDBRANCH   2   3
TORSDOF 11
ENDMDL
MODEL      166
REMARK 921   NORMALIZED FREE ENERGY PREDICTED BY IDOCK:   -4.75 KCAL/MOL
REMARK 922        TOTAL FREE ENERGY PREDICTED BY IDOCK:   -8.82 KCAL/MOL
REMARK 923 INTER-LIGAND FREE ENERGY PREDICTED BY IDOCK:   -7.78 KCAL/MOL
REMARK 924 INTRA-LIGAND FREE ENERGY PREDICTED BY IDOCK:   -1.03 KCAL/MOL
REMARK 927      BINDING AFFINITY PREDICTED BY RF-SCORE:    0.00 PKD
ROOT
HETATM    1  C   UNL     1      -7.453   4.006  72.086  1.00  0.00    -0.066 C  
HETATM    2  C   UNL     1      -6.975   5.334  71.520  1.00  0.00    -0.065 C  
ENDROOT
BRANCH   2   3
HETATM    3  C   UNL     1      -7.770   6.502  72.102  1.00  0.00    -0.097 C  
BRANCH   3   4
HETATM    4  N   UNL     1      -7.841   7.585  71.123  1.00  0.00    -0.090 NA 
HETATM    5  H   UNL     1      -7.990   7.234  70.177  1.00  0.00     0.000 HD 
BRANCH   4   6
HETATM    6  C   UNL     1      -8.871   8.558  71.515  1.00  0.00    -0.199 C  
BRANCH   6   7
HETATM    7  C   UNL     1     -10.034   8.567  70.508  1.00  0.00    -0.188 C  
HETATM    8  O   UNL     1     -11.048   9.497  70.918  1.00  0.00    -0.279 OA 
HETATM    9  H   UNL     1     -11.766   9.503  70.296  1.00  0.00     0.000 HD 
BRANCH   7  10
HETATM   10  C   UNL     1      -9.541   8.940  69.105  1.00  0.00    -0.162 C  
BRANCH  10  11
HETATM   11  O   UNL     1     -10.666   9.055  68.213  1.00  0.00    -0.191 OA 
BRANCH  11  12
HETATM   12  C   UNL     1     -10.471   9.874  67.130  1.00  0.00    -0.242 A  
HETATM   13  C   UNL     1     -10.917  11.210  67.182  1.00  0.00    -0.350 A  
HETATM   14  C   UNL     1      -9.896   9.392  65.944  1.00  0.00    -0.362 A  
HETATM   15  C   UNL     1     -10.717  12.045  66.070  1.00  0.00    -0.317 A  
HETATM   16  C   UNL     1      -9.721  10.228  64.842  1.00  0.00    -0.385 A  
HETATM   17  C   UNL     1     -10.126  11.555  64.905  1.00  0.00    -0.314 A  
BRANCH  13  18
HETATM   18  C   UNL     1     -11.577  11.779  68.403  1.00  0.00    -0.318 C  
HETATM   19  O   UNL     1     -12.530  11.202  68.921  1.00  0.00    -0.460 OA 
BRANCH  18  20
HETATM   20  C   UNL     1     -10.999  13.036  69.041  1.00  0.00    -0.242 C  
BRANCH  20  21
HETATM   21  C   UNL     1     -12.021  14.166  69.124  1.00  0.00    -0.388 C  
BRANCH  21  22
HETATM   22  C   UNL     1     -12.377  14.518  70.549  1.00  0.00    -0.403 A  
HETATM   23  C   UNL     1     -13.190  13.666  71.312  1.00  0.00    -0.308 A  
HETATM   24  C   UNL     1     -13.499  13.980  72.636  1.00  0.00    -0.650 A  
HETATM   25  C   UNL     1     -13.005  15.149  73.210  1.00  0.00    -0.645 A  
HETATM   26  C   UNL     1     -12.208  16.009  72.457  1.00  0.00    -0.612 A  
HETATM   27  C   UNL     1     -11.898  15.698  71.131  1.00  0.00    -0.454 A  
ENDBRANCH  21  22
ENDBRANCH  20  21
ENDBRANCH  18  20
ENDBRANCH  13  18
ENDBRANCH  11  12
ENDBRANCH  10  11
ENDBRANCH   7  10
ENDBRANCH   6   7
ENDBRANCH   4   6
ENDBRANCH   3   4
ENDBRANCH   2   3
TORSDOF 11
ENDMDL
MODEL      167
REMARK 921   NORMALIZED FREE ENERGY PREDICTED BY IDOCK:   -4.73 KCAL/MOL
REMARK 922        TOTAL FREE ENERGY PREDICTED BY IDOCK:   -8.79 KCAL/MOL
REMARK 923 INTER-LIGAND FREE ENERGY PREDICTED BY IDOCK:   -6.85 KCAL/MOL
REMARK 924 INTRA-LIGAND FREE ENERGY PREDICTED BY IDOCK:   -1.93 KCAL/MOL
REMARK 927      BINDING AFFINITY PREDICTED BY RF-SCORE:    0.00 PKD
ROOT
HETATM    1  C   UNL     1      -9.092  15.380  69.145  1.00  0.00    -0.243 C  
HETATM    2  C   UNL     1      -9.041  14.700  67.786  1.00  0.00    -0.191 C  
ENDROOT
BRANCH   2   3
HETATM    3  C   UNL     1      -7.935  13.646  67.736  1.00  0.00    -0.172 C  
BRANCH   3   4
HETATM    4  N   UNL     1      -8.231  12.579  68.690  1.00  0.00    -0.335 NA 
HETATM    5  H   UNL     1      -9.234  12.407  68.770  1.00  0.00     0.000 HD 
BRANCH   4   6
HETATM    6  C   UNL     1      -7.493  11.359  68.332  1.00  0.00    -0.111 C  
BRANCH   6   7
HETATM    7  C   UNL     1      -6.800  10.752  69.565  1.00  0.00    -0.116 C  
HETATM    8  O   UNL     1      -6.595  11.754  70.572  1.00  0.00    -0.498 OA 
HETATM    9  H   UNL     1      -6.167  11.379  71.333  1.00  0.00     0.000 HD 
BRANCH   7  10
HETATM   10  C   UNL     1      -7.631   9.605  70.151  1.00  0.00    -0.158 C  
BRANCH  10  11
HETATM   11  O   UNL     1      -9.032   9.866  69.935  1.00  0.00    -0.211 OA 
BRANCH  11  12
HETATM   12  C   UNL     1      -9.837   8.756  69.929  1.00  0.00    -0.184 A  
HETATM   13  C   UNL     1     -10.053   8.065  68.719  1.00  0.00    -0.206 A  
HETATM   14  C   UNL     1     -10.507   8.332  71.086  1.00  0.00    -0.254 A  
HETATM   15  C   UNL     1     -10.881   6.929  68.716  1.00  0.00    -0.238 A  
HETATM   16  C   UNL     1     -11.340   7.214  71.062  1.00  0.00    -0.310 A  
HETATM   17  C   UNL     1     -11.524   6.510  69.880  1.00  0.00    -0.467 A  
BRANCH  13  18
HETATM   18  C   UNL     1      -9.402   8.487  67.436  1.00  0.00    -0.148 C  
HETATM   19  O   UNL     1      -8.316   8.017  67.106  1.00  0.00    -0.118 OA 
BRANCH  18  20
HETATM   20  C   UNL     1     -10.142   9.443  66.507  1.00  0.00    -0.332 C  
BRANCH  20  21
HETATM   21  C   UNL     1     -10.900  10.523  67.272  1.00  0.00    -0.338 C  
BRANCH  21  22
HETATM   22  C   UNL     1     -11.141  11.759  66.437  1.00  0.00    -0.360 A  
HETATM   23  C   UNL     1     -12.038  12.747  66.870  1.00  0.00    -0.267 A  
HETATM   24  C   UNL     1     -12.242  13.900  66.109  1.00  0.00    -0.498 A  
HETATM   25  C   UNL     1     -11.557  14.075  64.909  1.00  0.00    -0.369 A  
HETATM   26  C   UNL     1     -10.673  13.093  64.464  1.00  0.00    -0.416 A  
HETATM   27  C   UNL     1     -10.469  11.938  65.222  1.00  0.00    -0.317 A  
ENDBRANCH  21  22
ENDBRANCH  20  21
ENDBRANCH  18  20
ENDBRANCH  13  18
ENDBRANCH  11  12
ENDBRANCH  10  11
ENDBRANCH   7  10
ENDBRANCH   6   7
ENDBRANCH   4   6
ENDBRANCH   3   4
ENDBRANCH   2   3
TORSDOF 11
ENDMDL
MODEL      168
REMARK 921   NORMALIZED FREE ENERGY PREDICTED BY IDOCK:   -4.72 KCAL/MOL
REMARK 922        TOTAL FREE ENERGY PREDICTED BY IDOCK:   -8.78 KCAL/MOL
REMARK 923 INTER-LIGAND FREE ENERGY PREDICTED BY IDOCK:   -7.66 KCAL/MOL
REMARK 924 INTRA-LIGAND FREE ENERGY PREDICTED BY IDOCK:   -1.12 KCAL/MOL
REMARK 927      BINDING AFFINITY PREDICTED BY RF-SCORE:    0.00 PKD
ROOT
HETATM    1  C   UNL     1      -5.992  20.282  70.146  1.00  0.00    -0.386 C  
HETATM    2  C   UNL     1      -6.204  19.691  68.761  1.00  0.00    -0.292 C  
ENDROOT
BRANCH   2   3
HETATM    3  C   UNL     1      -7.635  19.182  68.590  1.00  0.00    -0.346 C  
BRANCH   3   4
HETATM    4  N   UNL     1      -7.705  17.775  68.978  1.00  0.00    -0.187 NA 
HETATM    5  H   UNL     1      -8.559  17.565  69.497  1.00  0.00     0.000 HD 
BRANCH   4   6
HETATM    6  C   UNL     1      -7.556  16.914  67.797  1.00  0.00    -0.169 C  
BRANCH   6   7
HETATM    7  C   UNL     1      -8.390  17.444  66.617  1.00  0.00    -0.263 C  
HETATM    8  O   UNL     1      -7.558  17.653  65.466  1.00  0.00    -0.440 OA 
HETATM    9  H   UNL     1      -8.073  17.980  64.738  1.00  0.00     0.000 HD 
BRANCH   7  10
HETATM   10  C   UNL     1      -9.516  16.466  66.260  1.00  0.00    -0.317 C  
BRANCH  10  11
HETATM   11  O   UNL     1      -9.318  15.226  66.965  1.00  0.00    -0.208 OA 
BRANCH  11  12
HETATM   12  C   UNL     1     -10.232  14.966  67.955  1.00  0.00    -0.228 A  
HETATM   13  C   UNL     1     -10.246  13.696  68.568  1.00  0.00    -0.234 A  
HETATM   14  C   UNL     1     -11.198  15.914  68.325  1.00  0.00    -0.354 A  
HETATM   15  C   UNL     1     -11.185  13.433  69.580  1.00  0.00    -0.181 A  
HETATM   16  C   UNL     1     -12.135  15.631  69.318  1.00  0.00    -0.263 A  
HETATM   17  C   UNL     1     -12.127  14.394  69.949  1.00  0.00    -0.398 A  
BRANCH  13  18
HETATM   18  C   UNL     1      -9.270  12.622  68.192  1.00  0.00    -0.209 C  
HETATM   19  O   UNL     1      -8.083  12.728  68.493  1.00  0.00    -0.142 OA 
BRANCH  18  20
HETATM   20  C   UNL     1      -9.780  11.361  67.507  1.00  0.00    -0.191 C  
BRANCH  20  21
HETATM   21  C   UNL     1     -11.263  11.448  67.161  1.00  0.00    -0.363 C  
BRANCH  21  22
HETATM   22  C   UNL     1     -11.502  12.052  65.798  1.00  0.00    -0.377 A  
HETATM   23  C   UNL     1     -12.296  13.200  65.656  1.00  0.00    -0.519 A  
HETATM   24  C   UNL     1     -12.497  13.771  64.398  1.00  0.00    -0.317 A  
HETATM   25  C   UNL     1     -11.912  13.199  63.270  1.00  0.00    -0.445 A  
HETATM   26  C   UNL     1     -11.133  12.051  63.399  1.00  0.00    -0.476 A  
HETATM   27  C   UNL     1     -10.932  11.477  64.656  1.00  0.00    -0.353 A  
ENDBRANCH  21  22
ENDBRANCH  20  21
ENDBRANCH  18  20
ENDBRANCH  13  18
ENDBRANCH  11  12
ENDBRANCH  10  11
ENDBRANCH   7  10
ENDBRANCH   6   7
ENDBRANCH   4   6
ENDBRANCH   3   4
ENDBRANCH   2   3
TORSDOF 11
ENDMDL
MODEL      169
REMARK 921   NORMALIZED FREE ENERGY PREDICTED BY IDOCK:   -4.72 KCAL/MOL
REMARK 922        TOTAL FREE ENERGY PREDICTED BY IDOCK:   -8.77 KCAL/MOL
REMARK 923 INTER-LIGAND FREE ENERGY PREDICTED BY IDOCK:   -7.25 KCAL/MOL
REMARK 924 INTRA-LIGAND FREE ENERGY PREDICTED BY IDOCK:   -1.52 KCAL/MOL
REMARK 927      BINDING AFFINITY PREDICTED BY RF-SCORE:    0.00 PKD
ROOT
HETATM    1  C   UNL     1      -5.937  20.040  69.550  1.00  0.00    -0.351 C  
HETATM    2  C   UNL     1      -7.231  19.432  69.031  1.00  0.00    -0.397 C  
ENDROOT
BRANCH   2   3
HETATM    3  C   UNL     1      -7.162  19.190  67.524  1.00  0.00    -0.217 C  
BRANCH   3   4
HETATM    4  N   UNL     1      -8.317  18.400  67.100  1.00  0.00    -0.242 NA 
HETATM    5  H   UNL     1      -8.053  17.450  66.838  1.00  0.00     0.000 HD 
BRANCH   4   6
HETATM    6  C   UNL     1      -9.353  18.414  68.142  1.00  0.00    -0.317 C  
BRANCH   6   7
HETATM    7  C   UNL     1      -9.939  17.008  68.358  1.00  0.00    -0.289 C  
HETATM    8  O   UNL     1     -11.017  17.052  69.305  1.00  0.00    -0.311 OA 
HETATM    9  H   UNL     1     -11.378  16.183  69.438  1.00  0.00     0.000 HD 
BRANCH   7  10
HETATM   10  C   UNL     1     -10.446  16.417  67.037  1.00  0.00    -0.291 C  
BRANCH  10  11
HETATM   11  O   UNL     1     -10.045  15.037  66.941  1.00  0.00    -0.243 OA 
BRANCH  11  12
HETATM   12  C   UNL     1     -10.808  14.265  66.103  1.00  0.00    -0.310 A  
HETATM   13  C   UNL     1     -11.730  13.349  66.651  1.00  0.00    -0.428 A  
HETATM   14  C   UNL     1     -10.645  14.317  64.710  1.00  0.00    -0.434 A  
HETATM   15  C   UNL     1     -12.508  12.559  65.789  1.00  0.00    -0.040 A  
HETATM   16  C   UNL     1     -11.413  13.513  63.868  1.00  0.00    -0.289 A  
HETATM   17  C   UNL     1     -12.347  12.637  64.406  1.00  0.00    -0.523 A  
BRANCH  13  18
HETATM   18  C   UNL     1     -11.926  13.211  68.132  1.00  0.00    -0.294 C  
HETATM   19  O   UNL     1     -12.242  14.186  68.810  1.00  0.00    -0.319 OA 
BRANCH  18  20
HETATM   20  C   UNL     1     -11.810  11.833  68.771  1.00  0.00    -0.380 C  
BRANCH  20  21
HETATM   21  C   UNL     1     -10.361  11.376  68.904  1.00  0.00    -0.203 C  
BRANCH  21  22
HETATM   22  C   UNL     1     -10.037  10.214  67.996  1.00  0.00    -0.186 A  
HETATM   23  C   UNL     1     -10.164   8.894  68.454  1.00  0.00    -0.231 A  
HETATM   24  C   UNL     1      -9.887   7.821  67.606  1.00  0.00    -0.208 A  
HETATM   25  C   UNL     1      -9.476   8.054  66.295  1.00  0.00    -0.241 A  
HETATM   26  C   UNL     1      -9.334   9.361  65.835  1.00  0.00    -0.290 A  
HETATM   27  C   UNL     1      -9.608  10.437  66.681  1.00  0.00    -0.219 A  
ENDBRANCH  21  22
ENDBRANCH  20  21
ENDBRANCH  18  20
ENDBRANCH  13  18
ENDBRANCH  11  12
ENDBRANCH  10  11
ENDBRANCH   7  10
ENDBRANCH   6   7
ENDBRANCH   4   6
ENDBRANCH   3   4
ENDBRANCH   2   3
TORSDOF 11
ENDMDL
MODEL      170
REMARK 921   NORMALIZED FREE ENERGY PREDICTED BY IDOCK:   -4.72 KCAL/MOL
REMARK 922        TOTAL FREE ENERGY PREDICTED BY IDOCK:   -8.77 KCAL/MOL
REMARK 923 INTER-LIGAND FREE ENERGY PREDICTED BY IDOCK:   -7.31 KCAL/MOL
REMARK 924 INTRA-LIGAND FREE ENERGY PREDICTED BY IDOCK:   -1.46 KCAL/MOL
REMARK 927      BINDING AFFINITY PREDICTED BY RF-SCORE:    0.00 PKD
ROOT
HETATM    1  C   UNL     1     -13.597  12.852  72.160  1.00  0.00    -0.589 C  
HETATM    2  C   UNL     1     -12.744  11.834  71.418  1.00  0.00    -0.413 C  
ENDROOT
BRANCH   2   3
HETATM    3  C   UNL     1     -13.338  10.430  71.526  1.00  0.00    -0.310 C  
BRANCH   3   4
HETATM    4  N   UNL     1     -12.416   9.460  70.938  1.00  0.00    -0.469 NA 
HETATM    5  H   UNL     1     -11.642   9.915  70.454  1.00  0.00     0.000 HD 
BRANCH   4   6
HETATM    6  C   UNL     1     -11.944   8.521  71.965  1.00  0.00    -0.361 C  
BRANCH   6   7
HETATM    7  C   UNL     1     -12.243   7.066  71.563  1.00  0.00    -0.368 C  
HETATM    8  O   UNL     1     -13.256   7.023  70.546  1.00  0.00    -0.461 OA 
HETATM    9  H   UNL     1     -13.440   6.124  70.298  1.00  0.00     0.000 HD 
BRANCH   7  10
HETATM   10  C   UNL     1     -10.978   6.369  71.050  1.00  0.00    -0.274 C  
BRANCH  10  11
HETATM   11  O   UNL     1     -10.435   7.112  69.941  1.00  0.00    -0.211 OA 
BRANCH  11  12
HETATM   12  C   UNL     1      -9.968   6.349  68.901  1.00  0.00    -0.147 A  
HETATM   13  C   UNL     1      -9.482   6.985  67.740  1.00  0.00    -0.132 A  
HETATM   14  C   UNL     1     -10.027   4.948  68.938  1.00  0.00    -0.220 A  
HETATM   15  C   UNL     1      -9.007   6.200  66.676  1.00  0.00    -0.133 A  
HETATM   16  C   UNL     1      -9.569   4.183  67.866  1.00  0.00    -0.203 A  
HETATM   17  C   UNL     1      -9.055   4.807  66.737  1.00  0.00    -0.117 A  
BRANCH  13  18
HETATM   18  C   UNL     1      -9.428   8.478  67.616  1.00  0.00    -0.145 C  
HETATM   19  O   UNL     1      -8.364   9.076  67.757  1.00  0.00    -0.116 OA 
BRANCH  18  20
HETATM   20  C   UNL     1     -10.692   9.237  67.231  1.00  0.00    -0.244 C  
BRANCH  20  21
HETATM   21  C   UNL     1     -10.447  10.239  66.107  1.00  0.00    -0.200 C  
BRANCH  21  22
HETATM   22  C   UNL     1     -11.113  11.570  66.366  1.00  0.00    -0.328 A  
HETATM   23  C   UNL     1     -11.502  12.392  65.298  1.00  0.00    -0.389 A  
HETATM   24  C   UNL     1     -12.138  13.611  65.537  1.00  0.00    -0.440 A  
HETATM   25  C   UNL     1     -12.388  14.023  66.844  1.00  0.00    -0.321 A  
HETATM   26  C   UNL     1     -11.993  13.220  67.913  1.00  0.00    -0.349 A  
HETATM   27  C   UNL     1     -11.355  12.001  67.676  1.00  0.00    -0.375 A  
ENDBRANCH  21  22
ENDBRANCH  20  21
ENDBRANCH  18  20
ENDBRANCH  13  18
ENDBRANCH  11  12
ENDBRANCH  10  11
ENDBRANCH   7  10
ENDBRANCH   6   7
ENDBRANCH   4   6
ENDBRANCH   3   4
ENDBRANCH   2   3
TORSDOF 11
ENDMDL
MODEL      171
REMARK 921   NORMALIZED FREE ENERGY PREDICTED BY IDOCK:   -4.72 KCAL/MOL
REMARK 922        TOTAL FREE ENERGY PREDICTED BY IDOCK:   -8.77 KCAL/MOL
REMARK 923 INTER-LIGAND FREE ENERGY PREDICTED BY IDOCK:   -7.47 KCAL/MOL
REMARK 924 INTRA-LIGAND FREE ENERGY PREDICTED BY IDOCK:   -1.30 KCAL/MOL
REMARK 927      BINDING AFFINITY PREDICTED BY RF-SCORE:    0.00 PKD
ROOT
HETATM    1  C   UNL     1      -6.496   9.855  64.458  1.00  0.00    -0.120 C  
HETATM    2  C   UNL     1      -7.047   9.239  65.734  1.00  0.00    -0.086 C  
ENDROOT
BRANCH   2   3
HETATM    3  C   UNL     1      -7.525  10.316  66.707  1.00  0.00    -0.107 C  
BRANCH   3   4
HETATM    4  N   UNL     1      -7.254  11.639  66.147  1.00  0.00    -0.348 NA 
HETATM    5  H   UNL     1      -8.014  11.962  65.547  1.00  0.00     0.000 HD 
BRANCH   4   6
HETATM    6  C   UNL     1      -6.960  12.595  67.222  1.00  0.00    -0.100 C  
BRANCH   6   7
HETATM    7  C   UNL     1      -8.207  13.424  67.581  1.00  0.00    -0.177 C  
HETATM    8  O   UNL     1      -8.447  13.385  68.996  1.00  0.00    -0.352 OA 
HETATM    9  H   UNL     1      -9.216  13.896  69.217  1.00  0.00     0.000 HD 
BRANCH   7  10
HETATM   10  C   UNL     1      -8.042  14.882  67.134  1.00  0.00    -0.209 C  
BRANCH  10  11
HETATM   11  O   UNL     1      -9.336  15.444  66.839  1.00  0.00    -0.216 OA 
BRANCH  11  12
HETATM   12  C   UNL     1      -9.484  16.768  67.165  1.00  0.00    -0.232 A  
HETATM   13  C   UNL     1     -10.074  17.115  68.398  1.00  0.00    -0.314 A  
HETATM   14  C   UNL     1      -9.122  17.786  66.270  1.00  0.00    -0.198 A  
HETATM   15  C   UNL     1     -10.226  18.473  68.727  1.00  0.00    -0.326 A  
HETATM   16  C   UNL     1      -9.297  19.128  66.604  1.00  0.00    -0.375 A  
HETATM   17  C   UNL     1      -9.844  19.473  67.833  1.00  0.00    -0.485 A  
BRANCH  13  18
HETATM   18  C   UNL     1     -10.522  16.078  69.384  1.00  0.00    -0.271 C  
HETATM   19  O   UNL     1      -9.732  15.623  70.208  1.00  0.00    -0.058 OA 
BRANCH  18  20
HETATM   20  C   UNL     1     -11.986  15.657  69.407  1.00  0.00    -0.349 C  
BRANCH  20  21
HETATM   21  C   UNL     1     -12.470  15.319  70.813  1.00  0.00    -0.457 C  
BRANCH  21  22
HETATM   22  C   UNL     1     -12.632  13.833  71.026  1.00  0.00    -0.446 A  
HETATM   23  C   UNL     1     -12.017  12.918  70.159  1.00  0.00    -0.373 A  
HETATM   24  C   UNL     1     -12.147  11.544  70.371  1.00  0.00    -0.471 A  
HETATM   25  C   UNL     1     -12.896  11.071  71.446  1.00  0.00    -0.548 A  
HETATM   26  C   UNL     1     -13.522  11.972  72.306  1.00  0.00    -0.239 A  
HETATM   27  C   UNL     1     -13.394  13.347  72.095  1.00  0.00    -0.613 A  
ENDBRANCH  21  22
ENDBRANCH  20  21
ENDBRANCH  18  20
ENDBRANCH  13  18
ENDBRANCH  11  12
ENDBRANCH  10  11
ENDBRANCH   7  10
ENDBRANCH   6   7
ENDBRANCH   4   6
ENDBRANCH   3   4
ENDBRANCH   2   3
TORSDOF 11
ENDMDL
MODEL      172
REMARK 921   NORMALIZED FREE ENERGY PREDICTED BY IDOCK:   -4.72 KCAL/MOL
REMARK 922        TOTAL FREE ENERGY PREDICTED BY IDOCK:   -8.77 KCAL/MOL
REMARK 923 INTER-LIGAND FREE ENERGY PREDICTED BY IDOCK:   -7.25 KCAL/MOL
REMARK 924 INTRA-LIGAND FREE ENERGY PREDICTED BY IDOCK:   -1.51 KCAL/MOL
REMARK 927      BINDING AFFINITY PREDICTED BY RF-SCORE:    0.00 PKD
ROOT
HETATM    1  C   UNL     1     -12.078  14.155  71.061  1.00  0.00    -0.411 C  
HETATM    2  C   UNL     1     -12.208  14.488  69.582  1.00  0.00    -0.336 C  
ENDROOT
BRANCH   2   3
HETATM    3  C   UNL     1     -11.467  15.779  69.239  1.00  0.00    -0.365 C  
BRANCH   3   4
HETATM    4  N   UNL     1     -11.051  15.750  67.838  1.00  0.00    -0.333 NA 
HETATM    5  H   UNL     1     -11.559  16.433  67.275  1.00  0.00     0.000 HD 
BRANCH   4   6
HETATM    6  C   UNL     1      -9.596  15.929  67.736  1.00  0.00    -0.218 C  
BRANCH   6   7
HETATM    7  C   UNL     1      -9.036  15.204  66.499  1.00  0.00    -0.291 C  
HETATM    8  O   UNL     1      -7.622  14.997  66.634  1.00  0.00    -0.250 OA 
HETATM    9  H   UNL     1      -7.276  14.549  65.871  1.00  0.00     0.000 HD 
BRANCH   7  10
HETATM   10  C   UNL     1      -9.731  13.852  66.295  1.00  0.00    -0.289 C  
BRANCH  10  11
HETATM   11  O   UNL     1      -9.095  12.856  67.118  1.00  0.00    -0.204 OA 
BRANCH  11  12
HETATM   12  C   UNL     1      -9.063  11.593  66.584  1.00  0.00    -0.194 A  
HETATM   13  C   UNL     1      -9.896  10.591  67.124  1.00  0.00    -0.213 A  
HETATM   14  C   UNL     1      -8.170  11.256  65.555  1.00  0.00     0.199 A  
HETATM   15  C   UNL     1      -9.859   9.298  66.576  1.00  0.00    -0.331 A  
HETATM   16  C   UNL     1      -8.132   9.963  65.035  1.00  0.00    -0.140 A  
HETATM   17  C   UNL     1      -8.979   8.985  65.540  1.00  0.00    -0.252 A  
BRANCH  13  18
HETATM   18  C   UNL     1     -10.845  10.871  68.252  1.00  0.00    -0.225 C  
HETATM   19  O   UNL     1     -12.041  11.046  68.029  1.00  0.00    -0.615 OA 
BRANCH  18  20
HETATM   20  C   UNL     1     -10.323  10.854  69.683  1.00  0.00    -0.080 C  
BRANCH  20  21
HETATM   21  C   UNL     1     -10.247   9.442  70.255  1.00  0.00    -0.295 C  
BRANCH  21  22
HETATM   22  C   UNL     1     -11.537   9.017  70.915  1.00  0.00    -0.344 A  
HETATM   23  C   UNL     1     -11.823   7.657  71.112  1.00  0.00    -0.314 A  
HETATM   24  C   UNL     1     -13.005   7.266  71.744  1.00  0.00    -0.368 A  
HETATM   25  C   UNL     1     -13.914   8.227  72.180  1.00  0.00    -0.384 A  
HETATM   26  C   UNL     1     -13.646   9.580  71.978  1.00  0.00    -0.492 A  
HETATM   27  C   UNL     1     -12.465   9.974  71.344  1.00  0.00    -0.510 A  
ENDBRANCH  21  22
ENDBRANCH  20  21
ENDBRANCH  18  20
ENDBRANCH  13  18
ENDBRANCH  11  12
ENDBRANCH  10  11
ENDBRANCH   7  10
ENDBRANCH   6   7
ENDBRANCH   4   6
ENDBRANCH   3   4
ENDBRANCH   2   3
TORSDOF 11
ENDMDL
MODEL      173
REMARK 921   NORMALIZED FREE ENERGY PREDICTED BY IDOCK:   -4.72 KCAL/MOL
REMARK 922        TOTAL FREE ENERGY PREDICTED BY IDOCK:   -8.76 KCAL/MOL
REMARK 923 INTER-LIGAND FREE ENERGY PREDICTED BY IDOCK:   -7.65 KCAL/MOL
REMARK 924 INTRA-LIGAND FREE ENERGY PREDICTED BY IDOCK:   -1.12 KCAL/MOL
REMARK 927      BINDING AFFINITY PREDICTED BY RF-SCORE:    0.00 PKD
ROOT
HETATM    1  C   UNL     1     -12.069  12.022  63.886  1.00  0.00    -0.557 C  
HETATM    2  C   UNL     1     -12.150  13.523  63.654  1.00  0.00    -0.459 C  
ENDROOT
BRANCH   2   3
HETATM    3  C   UNL     1     -11.731  14.299  64.902  1.00  0.00    -0.397 C  
BRANCH   3   4
HETATM    4  N   UNL     1     -12.326  13.683  66.087  1.00  0.00    -0.436 NA 
HETATM    5  H   UNL     1     -12.188  12.672  66.101  1.00  0.00     0.000 HD 
BRANCH   4   6
HETATM    6  C   UNL     1     -11.813  14.324  67.305  1.00  0.00    -0.413 C  
BRANCH   6   7
HETATM    7  C   UNL     1     -11.212  13.282  68.266  1.00  0.00    -0.277 C  
HETATM    8  O   UNL     1     -11.228  13.774  69.615  1.00  0.00    -0.398 OA 
HETATM    9  H   UNL     1     -10.857  13.131  70.208  1.00  0.00     0.000 HD 
BRANCH   7  10
HETATM   10  C   UNL     1     -11.989  11.962  68.198  1.00  0.00    -0.152 C  
BRANCH  10  11
HETATM   11  O   UNL     1     -11.342  10.979  69.029  1.00  0.00    -0.228 OA 
BRANCH  11  12
HETATM   12  C   UNL     1     -10.785   9.922  68.355  1.00  0.00    -0.232 A  
HETATM   13  C   UNL     1     -10.334   8.799  69.079  1.00  0.00    -0.227 A  
HETATM   14  C   UNL     1     -10.592   9.960  66.965  1.00  0.00    -0.272 A  
HETATM   15  C   UNL     1      -9.763   7.719  68.385  1.00  0.00    -0.167 A  
HETATM   16  C   UNL     1     -10.006   8.888  66.294  1.00  0.00    -0.337 A  
HETATM   17  C   UNL     1      -9.596   7.766  67.001  1.00  0.00    -0.238 A  
BRANCH  13  18
HETATM   18  C   UNL     1     -10.472   8.708  70.570  1.00  0.00    -0.206 C  
HETATM   19  O   UNL     1      -9.712   9.337  71.303  1.00  0.00    -0.282 OA 
BRANCH  18  20
HETATM   20  C   UNL     1     -11.615   7.894  71.162  1.00  0.00    -0.302 C  
BRANCH  20  21
HETATM   21  C   UNL     1     -11.251   7.280  72.510  1.00  0.00    -0.342 C  
BRANCH  21  22
HETATM   22  C   UNL     1     -10.855   5.827  72.395  1.00  0.00    -0.294 A  
HETATM   23  C   UNL     1     -10.071   5.386  71.318  1.00  0.00    -0.270 A  
HETATM   24  C   UNL     1      -9.685   4.047  71.225  1.00  0.00    -0.255 A  
HETATM   25  C   UNL     1     -10.081   3.137  72.202  1.00  0.00    -0.200 A  
HETATM   26  C   UNL     1     -10.871   3.563  73.269  1.00  0.00    -0.288 A  
HETATM   27  C   UNL     1     -11.260   4.901  73.364  1.00  0.00    -0.415 A  
ENDBRANCH  21  22
ENDBRANCH  20  21
ENDBRANCH  18  20
ENDBRANCH  13  18
ENDBRANCH  11  12
ENDBRANCH  10  11
ENDBRANCH   7  10
ENDBRANCH   6   7
ENDBRANCH   4   6
ENDBRANCH   3   4
ENDBRANCH   2   3
TORSDOF 11
ENDMDL
MODEL      174
REMARK 921   NORMALIZED FREE ENERGY PREDICTED BY IDOCK:   -4.71 KCAL/MOL
REMARK 922        TOTAL FREE ENERGY PREDICTED BY IDOCK:   -8.76 KCAL/MOL
REMARK 923 INTER-LIGAND FREE ENERGY PREDICTED BY IDOCK:   -7.50 KCAL/MOL
REMARK 924 INTRA-LIGAND FREE ENERGY PREDICTED BY IDOCK:   -1.25 KCAL/MOL
REMARK 927      BINDING AFFINITY PREDICTED BY RF-SCORE:    0.00 PKD
ROOT
HETATM    1  C   UNL     1      -7.686  19.147  68.748  1.00  0.00    -0.390 C  
HETATM    2  C   UNL     1      -8.946  18.312  68.579  1.00  0.00    -0.329 C  
ENDROOT
BRANCH   2   3
HETATM    3  C   UNL     1      -9.364  18.232  67.112  1.00  0.00    -0.264 C  
BRANCH   3   4
HETATM    4  N   UNL     1     -10.469  17.287  66.966  1.00  0.00    -0.314 NA 
HETATM    5  H   UNL     1     -10.202  16.469  66.417  1.00  0.00     0.000 HD 
BRANCH   4   6
HETATM    6  C   UNL     1     -10.995  16.913  68.286  1.00  0.00    -0.298 C  
BRANCH   6   7
HETATM    7  C   UNL     1     -11.399  15.427  68.320  1.00  0.00    -0.348 C  
HETATM    8  O   UNL     1     -12.660  15.263  68.987  1.00  0.00    -0.544 OA 
HETATM    9  H   UNL     1     -12.908  14.346  69.007  1.00  0.00     0.000 HD 
BRANCH   7  10
HETATM   10  C   UNL     1     -11.496  14.855  66.901  1.00  0.00    -0.313 C  
BRANCH  10  11
HETATM   11  O   UNL     1     -10.277  14.157  66.578  1.00  0.00    -0.267 OA 
BRANCH  11  12
HETATM   12  C   UNL     1     -10.409  13.147  65.660  1.00  0.00    -0.284 A  
HETATM   13  C   UNL     1      -9.695  11.946  65.845  1.00  0.00    -0.258 A  
HETATM   14  C   UNL     1     -11.187  13.307  64.504  1.00  0.00    -0.387 A  
HETATM   15  C   UNL     1      -9.831  10.914  64.900  1.00  0.00    -0.339 A  
HETATM   16  C   UNL     1     -11.297  12.281  63.566  1.00  0.00    -0.549 A  
HETATM   17  C   UNL     1     -10.624  11.083  63.766  1.00  0.00    -0.365 A  
BRANCH  13  18
HETATM   18  C   UNL     1      -8.812  11.722  67.037  1.00  0.00    -0.182 C  
HETATM   19  O   UNL     1      -7.683  12.205  67.073  1.00  0.00    -0.160 OA 
BRANCH  18  20
HETATM   20  C   UNL     1      -9.362  10.958  68.235  1.00  0.00    -0.168 C  
BRANCH  20  21
HETATM   21  C   UNL     1      -8.698   9.596  68.408  1.00  0.00    -0.120 C  
BRANCH  21  22
HETATM   22  C   UNL     1      -9.655   8.549  68.928  1.00  0.00    -0.160 A  
HETATM   23  C   UNL     1     -10.269   8.704  70.180  1.00  0.00    -0.204 A  
HETATM   24  C   UNL     1     -11.171   7.748  70.649  1.00  0.00    -0.278 A  
HETATM   25  C   UNL     1     -11.465   6.627  69.876  1.00  0.00    -0.414 A  
HETATM   26  C   UNL     1     -10.850   6.457  68.637  1.00  0.00    -0.379 A  
HETATM   27  C   UNL     1      -9.946   7.411  68.166  1.00  0.00    -0.190 A  
ENDBRANCH  21  22
ENDBRANCH  20  21
ENDBRANCH  18  20
ENDBRANCH  13  18
ENDBRANCH  11  12
ENDBRANCH  10  11
ENDBRANCH   7  10
ENDBRANCH   6   7
ENDBRANCH   4   6
ENDBRANCH   3   4
ENDBRANCH   2   3
TORSDOF 11
ENDMDL
MODEL      175
REMARK 921   NORMALIZED FREE ENERGY PREDICTED BY IDOCK:   -4.70 KCAL/MOL
REMARK 922        TOTAL FREE ENERGY PREDICTED BY IDOCK:   -8.74 KCAL/MOL
REMARK 923 INTER-LIGAND FREE ENERGY PREDICTED BY IDOCK:   -7.23 KCAL/MOL
REMARK 924 INTRA-LIGAND FREE ENERGY PREDICTED BY IDOCK:   -1.52 KCAL/MOL
REMARK 927      BINDING AFFINITY PREDICTED BY RF-SCORE:    0.00 PKD
ROOT
HETATM    1  C   UNL     1     -11.996   6.878  71.814  1.00  0.00    -0.372 C  
HETATM    2  C   UNL     1     -12.898   8.099  71.904  1.00  0.00    -0.360 C  
ENDROOT
BRANCH   2   3
HETATM    3  C   UNL     1     -12.098   9.354  72.251  1.00  0.00    -0.112 C  
BRANCH   3   4
HETATM    4  N   UNL     1     -12.996  10.505  72.323  1.00  0.00    -0.445 NA 
HETATM    5  H   UNL     1     -12.911  11.000  73.211  1.00  0.00     0.000 HD 
BRANCH   4   6
HETATM    6  C   UNL     1     -12.772  11.396  71.176  1.00  0.00    -0.377 C  
BRANCH   6   7
HETATM    7  C   UNL     1     -13.214  12.835  71.499  1.00  0.00    -0.239 C  
HETATM    8  O   UNL     1     -13.361  13.009  72.917  1.00  0.00    -0.545 OA 
HETATM    9  H   UNL     1     -13.634  13.897  73.116  1.00  0.00     0.000 HD 
BRANCH   7  10
HETATM   10  C   UNL     1     -12.199  13.852  70.965  1.00  0.00    -0.342 C  
BRANCH  10  11
HETATM   11  O   UNL     1     -12.685  14.414  69.730  1.00  0.00    -0.217 OA 
BRANCH  11  12
HETATM   12  C   UNL     1     -11.785  15.196  69.052  1.00  0.00    -0.335 A  
HETATM   13  C   UNL     1     -11.484  14.897  67.707  1.00  0.00    -0.353 A  
HETATM   14  C   UNL     1     -11.106  16.247  69.686  1.00  0.00    -0.333 A  
HETATM   15  C   UNL     1     -10.560  15.699  67.016  1.00  0.00    -0.311 A  
HETATM   16  C   UNL     1     -10.177  17.022  68.991  1.00  0.00    -0.313 A  
HETATM   17  C   UNL     1      -9.907  16.752  67.656  1.00  0.00    -0.261 A  
BRANCH  13  18
HETATM   18  C   UNL     1     -12.143  13.763  66.979  1.00  0.00    -0.397 C  
HETATM   19  O   UNL     1     -13.204  13.938  66.386  1.00  0.00     0.140 OA 
BRANCH  18  20
HETATM   20  C   UNL     1     -11.439  12.413  66.915  1.00  0.00    -0.423 C  
BRANCH  20  21
HETATM   21  C   UNL     1     -10.519  12.182  68.109  1.00  0.00    -0.225 C  
BRANCH  21  22
HETATM   22  C   UNL     1     -10.270  10.715  68.371  1.00  0.00    -0.191 A  
HETATM   23  C   UNL     1      -9.715  10.292  69.587  1.00  0.00    -0.216 A  
HETATM   24  C   UNL     1      -9.508   8.934  69.837  1.00  0.00    -0.177 A  
HETATM   25  C   UNL     1      -9.849   7.987  68.874  1.00  0.00    -0.176 A  
HETATM   26  C   UNL     1     -10.388   8.398  67.657  1.00  0.00    -0.317 A  
HETATM   27  C   UNL     1     -10.595   9.756  67.403  1.00  0.00    -0.330 A  
ENDBRANCH  21  22
ENDBRANCH  20  21
ENDBRANCH  18  20
ENDBRANCH  13  18
ENDBRANCH  11  12
ENDBRANCH  10  11
ENDBRANCH   7  10
ENDBRANCH   6   7
ENDBRANCH   4   6
ENDBRANCH   3   4
ENDBRANCH   2   3
TORSDOF 11
ENDMDL
MODEL      176
REMARK 921   NORMALIZED FREE ENERGY PREDICTED BY IDOCK:   -4.69 KCAL/MOL
REMARK 922        TOTAL FREE ENERGY PREDICTED BY IDOCK:   -8.71 KCAL/MOL
REMARK 923 INTER-LIGAND FREE ENERGY PREDICTED BY IDOCK:   -6.62 KCAL/MOL
REMARK 924 INTRA-LIGAND FREE ENERGY PREDICTED BY IDOCK:   -2.09 KCAL/MOL
REMARK 927      BINDING AFFINITY PREDICTED BY RF-SCORE:    0.00 PKD
ROOT
HETATM    1  C   UNL     1      -9.272   5.480  67.425  1.00  0.00    -0.110 C  
HETATM    2  C   UNL     1      -8.144   6.364  67.934  1.00  0.00    -0.115 C  
ENDROOT
BRANCH   2   3
HETATM    3  C   UNL     1      -8.125   7.710  67.210  1.00  0.00    -0.119 C  
BRANCH   3   4
HETATM    4  N   UNL     1      -9.339   7.853  66.408  1.00  0.00    -0.212 NA 
HETATM    5  H   UNL     1     -10.073   8.352  66.913  1.00  0.00     0.000 HD 
BRANCH   4   6
HETATM    6  C   UNL     1      -9.027   8.492  65.123  1.00  0.00    -0.006 C  
BRANCH   6   7
HETATM    7  C   UNL     1      -8.057   9.672  65.313  1.00  0.00    -0.125 C  
HETATM    8  O   UNL     1      -7.179   9.789  64.183  1.00  0.00    -0.118 OA 
HETATM    9  H   UNL     1      -6.580  10.517  64.301  1.00  0.00     0.000 HD 
BRANCH   7  10
HETATM   10  C   UNL     1      -8.823  10.986  65.499  1.00  0.00    -0.169 C  
BRANCH  10  11
HETATM   11  O   UNL     1     -10.208  10.701  65.777  1.00  0.00    -0.253 OA 
BRANCH  11  12
HETATM   12  C   UNL     1     -10.733  11.360  66.860  1.00  0.00    -0.265 A  
HETATM   13  C   UNL     1     -11.563  12.481  66.652  1.00  0.00    -0.442 A  
HETATM   14  C   UNL     1     -10.408  10.985  68.172  1.00  0.00    -0.204 A  
HETATM   15  C   UNL     1     -12.097  13.155  67.764  1.00  0.00    -0.262 A  
HETATM   16  C   UNL     1     -10.931  11.676  69.265  1.00  0.00    -0.246 A  
HETATM   17  C   UNL     1     -11.778  12.757  69.062  1.00  0.00    -0.371 A  
BRANCH  13  18
HETATM   18  C   UNL     1     -11.919  12.961  65.277  1.00  0.00    -0.419 C  
HETATM   19  O   UNL     1     -13.022  12.711  64.797  1.00  0.00    -0.816 OA 
BRANCH  18  20
HETATM   20  C   UNL     1     -10.928  13.833  64.515  1.00  0.00    -0.399 C  
BRANCH  20  21
HETATM   21  C   UNL     1     -11.048  15.307  64.886  1.00  0.00    -0.435 C  
BRANCH  21  22
HETATM   22  C   UNL     1     -10.228  15.665  66.103  1.00  0.00    -0.327 A  
HETATM   23  C   UNL     1      -9.026  14.996  66.374  1.00  0.00    -0.286 A  
HETATM   24  C   UNL     1      -8.257  15.344  67.487  1.00  0.00    -0.187 A  
HETATM   25  C   UNL     1      -8.684  16.358  68.341  1.00  0.00    -0.213 A  
HETATM   26  C   UNL     1      -9.885  17.019  68.088  1.00  0.00    -0.273 A  
HETATM   27  C   UNL     1     -10.656  16.672  66.977  1.00  0.00    -0.247 A  
ENDBRANCH  21  22
ENDBRANCH  20  21
ENDBRANCH  18  20
ENDBRANCH  13  18
ENDBRANCH  11  12
ENDBRANCH  10  11
ENDBRANCH   7  10
ENDBRANCH   6   7
ENDBRANCH   4   6
ENDBRANCH   3   4
ENDBRANCH   2   3
TORSDOF 11
ENDMDL
MODEL      177
REMARK 921   NORMALIZED FREE ENERGY PREDICTED BY IDOCK:   -4.68 KCAL/MOL
REMARK 922        TOTAL FREE ENERGY PREDICTED BY IDOCK:   -8.70 KCAL/MOL
REMARK 923 INTER-LIGAND FREE ENERGY PREDICTED BY IDOCK:   -7.01 KCAL/MOL
REMARK 924 INTRA-LIGAND FREE ENERGY PREDICTED BY IDOCK:   -1.69 KCAL/MOL
REMARK 927      BINDING AFFINITY PREDICTED BY RF-SCORE:    0.00 PKD
ROOT
HETATM    1  C   UNL     1      -8.493  13.092  68.071  1.00  0.00    -0.181 C  
HETATM    2  C   UNL     1      -7.906  11.697  67.921  1.00  0.00    -0.129 C  
ENDROOT
BRANCH   2   3
HETATM    3  C   UNL     1      -6.816  11.441  68.961  1.00  0.00    -0.102 C  
BRANCH   3   4
HETATM    4  N   UNL     1      -7.400  10.803  70.139  1.00  0.00    -0.446 NA 
HETATM    5  H   UNL     1      -8.194  11.329  70.503  1.00  0.00     0.000 HD 
BRANCH   4   6
HETATM    6  C   UNL     1      -7.759   9.410  69.837  1.00  0.00    -0.114 C  
BRANCH   6   7
HETATM    7  C   UNL     1      -7.167   8.448  70.882  1.00  0.00    -0.059 C  
HETATM    8  O   UNL     1      -7.072   9.091  72.162  1.00  0.00    -0.320 OA 
HETATM    9  H   UNL     1      -6.707   8.497  72.807  1.00  0.00     0.000 HD 
BRANCH   7  10
HETATM   10  C   UNL     1      -8.026   7.184  71.012  1.00  0.00    -0.103 C  
BRANCH  10  11
HETATM   11  O   UNL     1      -9.220   7.488  71.758  1.00  0.00    -0.139 OA 
BRANCH  11  12
HETATM   12  C   UNL     1      -9.714   6.456  72.514  1.00  0.00    -0.162 A  
HETATM   13  C   UNL     1     -11.005   5.956  72.246  1.00  0.00    -0.313 A  
HETATM   14  C   UNL     1      -8.989   5.929  73.594  1.00  0.00    -0.127 A  
HETATM   15  C   UNL     1     -11.508   4.900  73.024  1.00  0.00    -0.327 A  
HETATM   16  C   UNL     1      -9.510   4.893  74.369  1.00  0.00    -0.138 A  
HETATM   17  C   UNL     1     -10.766   4.375  74.082  1.00  0.00    -0.313 A  
BRANCH  13  18
HETATM   18  C   UNL     1     -11.851   6.500  71.134  1.00  0.00    -0.325 C  
HETATM   19  O   UNL     1     -11.658   6.142  69.974  1.00  0.00    -0.392 OA 
BRANCH  18  20
HETATM   20  C   UNL     1     -13.004   7.438  71.468  1.00  0.00    -0.421 C  
BRANCH  20  21
HETATM   21  C   UNL     1     -12.570   8.597  72.358  1.00  0.00    -0.426 C  
BRANCH  21  22
HETATM   22  C   UNL     1     -12.333   9.868  71.577  1.00  0.00    -0.504 A  
HETATM   23  C   UNL     1     -11.366   9.910  70.562  1.00  0.00    -0.399 A  
HETATM   24  C   UNL     1     -11.164  11.078  69.824  1.00  0.00    -0.339 A  
HETATM   25  C   UNL     1     -11.922  12.215  70.095  1.00  0.00    -0.394 A  
HETATM   26  C   UNL     1     -12.876  12.187  71.111  1.00  0.00    -0.313 A  
HETATM   27  C   UNL     1     -13.079  11.021  71.852  1.00  0.00    -0.525 A  
ENDBRANCH  21  22
ENDBRANCH  20  21
ENDBRANCH  18  20
ENDBRANCH  13  18
ENDBRANCH  11  12
ENDBRANCH  10  11
ENDBRANCH   7  10
ENDBRANCH   6   7
ENDBRANCH   4   6
ENDBRANCH   3   4
ENDBRANCH   2   3
TORSDOF 11
ENDMDL
MODEL      178
REMARK 921   NORMALIZED FREE ENERGY PREDICTED BY IDOCK:   -4.68 KCAL/MOL
REMARK 922        TOTAL FREE ENERGY PREDICTED BY IDOCK:   -8.70 KCAL/MOL
REMARK 923 INTER-LIGAND FREE ENERGY PREDICTED BY IDOCK:   -7.41 KCAL/MOL
REMARK 924 INTRA-LIGAND FREE ENERGY PREDICTED BY IDOCK:   -1.29 KCAL/MOL
REMARK 927      BINDING AFFINITY PREDICTED BY RF-SCORE:    0.00 PKD
ROOT
HETATM    1  C   UNL     1      -7.927   8.213  74.478  1.00  0.00    -0.293 C  
HETATM    2  C   UNL     1      -8.988   7.889  73.437  1.00  0.00    -0.339 C  
ENDROOT
BRANCH   2   3
HETATM    3  C   UNL     1      -9.991   6.866  73.970  1.00  0.00    -0.336 C  
BRANCH   3   4
HETATM    4  N   UNL     1     -11.348   7.276  73.612  1.00  0.00    -0.436 NA 
HETATM    5  H   UNL     1     -11.871   7.611  74.422  1.00  0.00     0.000 HD 
BRANCH   4   6
HETATM    6  C   UNL     1     -11.310   8.273  72.533  1.00  0.00    -0.385 C  
BRANCH   6   7
HETATM    7  C   UNL     1     -12.382   7.977  71.469  1.00  0.00    -0.308 C  
HETATM    8  O   UNL     1     -12.632   9.142  70.668  1.00  0.00    -0.497 OA 
HETATM    9  H   UNL     1     -13.294   8.959  70.012  1.00  0.00     0.000 HD 
BRANCH   7  10
HETATM   10  C   UNL     1     -11.948   6.820  70.562  1.00  0.00    -0.328 C  
BRANCH  10  11
HETATM   11  O   UNL     1     -10.509   6.760  70.513  1.00  0.00    -0.202 OA 
BRANCH  11  12
HETATM   12  C   UNL     1      -9.992   6.000  69.495  1.00  0.00    -0.178 A  
HETATM   13  C   UNL     1      -9.519   6.636  68.329  1.00  0.00    -0.123 A  
HETATM   14  C   UNL     1      -9.984   4.599  69.559  1.00  0.00    -0.266 A  
HETATM   15  C   UNL     1      -8.991   5.854  67.287  1.00  0.00    -0.108 A  
HETATM   16  C   UNL     1      -9.475   3.836  68.509  1.00  0.00    -0.211 A  
HETATM   17  C   UNL     1      -8.974   4.462  67.375  1.00  0.00    -0.129 A  
BRANCH  13  18
HETATM   18  C   UNL     1      -9.534   8.128  68.175  1.00  0.00    -0.141 C  
HETATM   19  O   UNL     1      -8.754   8.826  68.817  1.00  0.00    -0.135 OA 
BRANCH  18  20
HETATM   20  C   UNL     1     -10.472   8.759  67.154  1.00  0.00    -0.354 C  
BRANCH  20  21
HETATM   21  C   UNL     1      -9.757   9.119  65.855  1.00  0.00    -0.336 C  
BRANCH  21  22
HETATM   22  C   UNL     1     -10.172  10.471  65.324  1.00  0.00    -0.352 A  
HETATM   23  C   UNL     1     -10.731  11.432  66.179  1.00  0.00    -0.320 A  
HETATM   24  C   UNL     1     -11.093  12.689  65.691  1.00  0.00    -0.327 A  
HETATM   25  C   UNL     1     -10.904  12.996  64.345  1.00  0.00    -0.409 A  
HETATM   26  C   UNL     1     -10.362  12.043  63.485  1.00  0.00    -0.492 A  
HETATM   27  C   UNL     1     -10.001  10.785  63.970  1.00  0.00    -0.403 A  
ENDBRANCH  21  22
ENDBRANCH  20  21
ENDBRANCH  18  20
ENDBRANCH  13  18
ENDBRANCH  11  12
ENDBRANCH  10  11
ENDBRANCH   7  10
ENDBRANCH   6   7
ENDBRANCH   4   6
ENDBRANCH   3   4
ENDBRANCH   2   3
TORSDOF 11
ENDMDL
MODEL      179
REMARK 921   NORMALIZED FREE ENERGY PREDICTED BY IDOCK:   -4.68 KCAL/MOL
REMARK 922        TOTAL FREE ENERGY PREDICTED BY IDOCK:   -8.70 KCAL/MOL
REMARK 923 INTER-LIGAND FREE ENERGY PREDICTED BY IDOCK:   -7.10 KCAL/MOL
REMARK 924 INTRA-LIGAND FREE ENERGY PREDICTED BY IDOCK:   -1.59 KCAL/MOL
REMARK 927      BINDING AFFINITY PREDICTED BY RF-SCORE:    0.00 PKD
ROOT
HETATM    1  C   UNL     1      -5.607  17.291  69.623  1.00  0.00    -0.212 C  
HETATM    2  C   UNL     1      -6.527  16.126  69.953  1.00  0.00    -0.103 C  
ENDROOT
BRANCH   2   3
HETATM    3  C   UNL     1      -6.227  14.917  69.068  1.00  0.00    -0.097 C  
BRANCH   3   4
HETATM    4  N   UNL     1      -7.271  13.909  69.243  1.00  0.00    -0.279 NA 
HETATM    5  H   UNL     1      -8.043  14.255  69.814  1.00  0.00     0.000 HD 
BRANCH   4   6
HETATM    6  C   UNL     1      -7.733  13.423  67.935  1.00  0.00    -0.153 C  
BRANCH   6   7
HETATM    7  C   UNL     1      -8.056  11.919  67.987  1.00  0.00    -0.151 C  
HETATM    8  O   UNL     1      -8.839  11.612  69.150  1.00  0.00    -0.370 OA 
HETATM    9  H   UNL     1      -9.038  10.683  69.182  1.00  0.00     0.000 HD 
BRANCH   7  10
HETATM   10  C   UNL     1      -8.817  11.478  66.731  1.00  0.00    -0.183 C  
BRANCH  10  11
HETATM   11  O   UNL     1     -10.212  11.805  66.874  1.00  0.00    -0.205 OA 
BRANCH  11  12
HETATM   12  C   UNL     1     -10.834  12.222  65.725  1.00  0.00    -0.278 A  
HETATM   13  C   UNL     1     -11.353  13.531  65.654  1.00  0.00    -0.312 A  
HETATM   14  C   UNL     1     -11.026  11.353  64.641  1.00  0.00    -0.324 A  
HETATM   15  C   UNL     1     -11.992  13.954  64.476  1.00  0.00    -0.464 A  
HETATM   16  C   UNL     1     -11.679  11.782  63.485  1.00  0.00    -0.485 A  
HETATM   17  C   UNL     1     -12.157  13.082  63.400  1.00  0.00    -0.591 A  
BRANCH  13  18
HETATM   18  C   UNL     1     -11.221  14.501  66.791  1.00  0.00    -0.334 C  
HETATM   19  O   UNL     1     -12.051  14.514  67.697  1.00  0.00    -0.343 OA 
BRANCH  18  20
HETATM   20  C   UNL     1     -10.001  15.411  66.852  1.00  0.00    -0.247 C  
BRANCH  20  21
HETATM   21  C   UNL     1     -10.142  16.500  67.911  1.00  0.00    -0.256 C  
BRANCH  21  22
HETATM   22  C   UNL     1      -9.240  17.682  67.646  1.00  0.00    -0.245 A  
HETATM   23  C   UNL     1      -9.062  18.675  68.621  1.00  0.00    -0.344 A  
HETATM   24  C   UNL     1      -8.210  19.755  68.385  1.00  0.00    -0.296 A  
HETATM   25  C   UNL     1      -7.532  19.857  67.172  1.00  0.00    -0.292 A  
HETATM   26  C   UNL     1      -7.713  18.883  66.192  1.00  0.00    -0.281 A  
HETATM   27  C   UNL     1      -8.566  17.803  66.425  1.00  0.00    -0.260 A  
ENDBRANCH  21  22
ENDBRANCH  20  21
ENDBRANCH  18  20
ENDBRANCH  13  18
ENDBRANCH  11  12
ENDBRANCH  10  11
ENDBRANCH   7  10
ENDBRANCH   6   7
ENDBRANCH   4   6
ENDBRANCH   3   4
ENDBRANCH   2   3
TORSDOF 11
ENDMDL
MODEL      180
REMARK 921   NORMALIZED FREE ENERGY PREDICTED BY IDOCK:   -4.67 KCAL/MOL
REMARK 922        TOTAL FREE ENERGY PREDICTED BY IDOCK:   -8.69 KCAL/MOL
REMARK 923 INTER-LIGAND FREE ENERGY PREDICTED BY IDOCK:   -7.07 KCAL/MOL
REMARK 924 INTRA-LIGAND FREE ENERGY PREDICTED BY IDOCK:   -1.63 KCAL/MOL
REMARK 927      BINDING AFFINITY PREDICTED BY RF-SCORE:    0.00 PKD
ROOT
HETATM    1  C   UNL     1     -10.837  11.674  63.412  1.00  0.00    -0.453 C  
HETATM    2  C   UNL     1     -11.687  12.905  63.688  1.00  0.00    -0.572 C  
ENDROOT
BRANCH   2   3
HETATM    3  C   UNL     1     -12.600  12.688  64.894  1.00  0.00    -0.450 C  
BRANCH   3   4
HETATM    4  N   UNL     1     -12.613  13.892  65.723  1.00  0.00    -0.504 NA 
HETATM    5  H   UNL     1     -13.153  13.759  66.578  1.00  0.00     0.000 HD 
BRANCH   4   6
HETATM    6  C   UNL     1     -11.239  14.330  66.005  1.00  0.00    -0.324 C  
BRANCH   6   7
HETATM    7  C   UNL     1     -11.062  14.671  67.495  1.00  0.00    -0.313 C  
HETATM    8  O   UNL     1     -12.341  14.810  68.135  1.00  0.00    -0.593 OA 
HETATM    9  H   UNL     1     -12.231  15.021  69.054  1.00  0.00     0.000 HD 
BRANCH   7  10
HETATM   10  C   UNL     1     -10.251  13.585  68.213  1.00  0.00    -0.250 C  
BRANCH  10  11
HETATM   11  O   UNL     1     -10.799  12.290  67.901  1.00  0.00    -0.205 OA 
BRANCH  11  12
HETATM   12  C   UNL     1     -10.984  11.460  68.977  1.00  0.00    -0.236 A  
HETATM   13  C   UNL     1     -10.028  10.462  69.255  1.00  0.00    -0.246 A  
HETATM   14  C   UNL     1     -12.139  11.539  69.771  1.00  0.00    -0.374 A  
HETATM   15  C   UNL     1     -10.222   9.613  70.358  1.00  0.00    -0.348 A  
HETATM   16  C   UNL     1     -12.326  10.676  70.850  1.00  0.00    -0.502 A  
HETATM   17  C   UNL     1     -11.367   9.717  71.148  1.00  0.00    -0.459 A  
BRANCH  13  18
HETATM   18  C   UNL     1      -8.790  10.295  68.424  1.00  0.00    -0.129 C  
HETATM   19  O   UNL     1      -7.710  10.719  68.826  1.00  0.00    -0.104 OA 
BRANCH  18  20
HETATM   20  C   UNL     1      -8.874   9.521  67.114  1.00  0.00    -0.141 C  
BRANCH  20  21
HETATM   21  C   UNL     1      -8.633  10.410  65.899  1.00  0.00    -0.165 C  
BRANCH  21  22
HETATM   22  C   UNL     1      -7.805   9.725  64.838  1.00  0.00    -0.133 A  
HETATM   23  C   UNL     1      -8.378   8.755  64.002  1.00  0.00    -0.146 A  
HETATM   24  C   UNL     1      -7.618   8.140  63.006  1.00  0.00    -0.127 A  
HETATM   25  C   UNL     1      -6.278   8.482  62.839  1.00  0.00    -0.087 A  
HETATM   26  C   UNL     1      -5.695   9.434  63.673  1.00  0.00    -0.083 A  
HETATM   27  C   UNL     1      -6.453  10.050  64.671  1.00  0.00    -0.125 A  
ENDBRANCH  21  22
ENDBRANCH  20  21
ENDBRANCH  18  20
ENDBRANCH  13  18
ENDBRANCH  11  12
ENDBRANCH  10  11
ENDBRANCH   7  10
ENDBRANCH   6   7
ENDBRANCH   4   6
ENDBRANCH   3   4
ENDBRANCH   2   3
TORSDOF 11
ENDMDL
MODEL      181
REMARK 921   NORMALIZED FREE ENERGY PREDICTED BY IDOCK:   -4.67 KCAL/MOL
REMARK 922        TOTAL FREE ENERGY PREDICTED BY IDOCK:   -8.69 KCAL/MOL
REMARK 923 INTER-LIGAND FREE ENERGY PREDICTED BY IDOCK:   -7.24 KCAL/MOL
REMARK 924 INTRA-LIGAND FREE ENERGY PREDICTED BY IDOCK:   -1.44 KCAL/MOL
REMARK 927      BINDING AFFINITY PREDICTED BY RF-SCORE:    0.00 PKD
ROOT
HETATM    1  C   UNL     1     -12.174  10.602  70.976  1.00  0.00    -0.498 C  
HETATM    2  C   UNL     1     -11.124  10.297  69.919  1.00  0.00    -0.362 C  
ENDROOT
BRANCH   2   3
HETATM    3  C   UNL     1     -11.444  11.004  68.602  1.00  0.00    -0.308 C  
BRANCH   3   4
HETATM    4  N   UNL     1     -11.651  12.430  68.848  1.00  0.00    -0.293 NA 
HETATM    5  H   UNL     1     -10.813  12.878  69.220  1.00  0.00     0.000 HD 
BRANCH   4   6
HETATM    6  C   UNL     1     -12.129  13.092  67.626  1.00  0.00    -0.232 C  
BRANCH   6   7
HETATM    7  C   UNL     1     -11.588  12.388  66.368  1.00  0.00    -0.384 C  
HETATM    8  O   UNL     1     -12.554  12.439  65.308  1.00  0.00    -0.636 OA 
HETATM    9  H   UNL     1     -12.220  12.005  64.532  1.00  0.00     0.000 HD 
BRANCH   7  10
HETATM   10  C   UNL     1     -10.282  13.039  65.896  1.00  0.00    -0.292 C  
BRANCH  10  11
HETATM   11  O   UNL     1      -9.811  13.957  66.901  1.00  0.00    -0.253 OA 
BRANCH  11  12
HETATM   12  C   UNL     1     -10.032  15.283  66.628  1.00  0.00    -0.254 A  
HETATM   13  C   UNL     1      -9.891  16.235  67.659  1.00  0.00    -0.238 A  
HETATM   14  C   UNL     1     -10.461  15.707  65.362  1.00  0.00    -0.435 A  
HETATM   15  C   UNL     1     -10.120  17.592  67.375  1.00  0.00    -0.331 A  
HETATM   16  C   UNL     1     -10.703  17.055  65.101  1.00  0.00    -0.066 A  
HETATM   17  C   UNL     1     -10.529  17.999  66.105  1.00  0.00    -0.336 A  
BRANCH  13  18
HETATM   18  C   UNL     1      -9.475  15.848  69.047  1.00  0.00    -0.247 C  
HETATM   19  O   UNL     1     -10.320  15.656  69.918  1.00  0.00    -0.289 OA 
BRANCH  18  20
HETATM   20  C   UNL     1      -7.998  15.614  69.341  1.00  0.00    -0.226 C  
BRANCH  20  21
HETATM   21  C   UNL     1      -7.101  16.049  68.187  1.00  0.00    -0.128 C  
BRANCH  21  22
HETATM   22  C   UNL     1      -6.763  17.521  68.242  1.00  0.00    -0.197 A  
HETATM   23  C   UNL     1      -6.602  18.259  67.061  1.00  0.00    -0.203 A  
HETATM   24  C   UNL     1      -6.313  19.624  67.113  1.00  0.00    -0.203 A  
HETATM   25  C   UNL     1      -6.178  20.263  68.343  1.00  0.00    -0.329 A  
HETATM   26  C   UNL     1      -6.323  19.535  69.523  1.00  0.00    -0.355 A  
HETATM   27  C   UNL     1      -6.610  18.169  69.474  1.00  0.00    -0.149 A  
ENDBRANCH  21  22
ENDBRANCH  20  21
ENDBRANCH  18  20
ENDBRANCH  13  18
ENDBRANCH  11  12
ENDBRANCH  10  11
ENDBRANCH   7  10
ENDBRANCH   6   7
ENDBRANCH   4   6
ENDBRANCH   3   4
ENDBRANCH   2   3
TORSDOF 11
ENDMDL
MODEL      182
REMARK 921   NORMALIZED FREE ENERGY PREDICTED BY IDOCK:   -4.67 KCAL/MOL
REMARK 922        TOTAL FREE ENERGY PREDICTED BY IDOCK:   -8.68 KCAL/MOL
REMARK 923 INTER-LIGAND FREE ENERGY PREDICTED BY IDOCK:   -7.47 KCAL/MOL
REMARK 924 INTRA-LIGAND FREE ENERGY PREDICTED BY IDOCK:   -1.21 KCAL/MOL
REMARK 927      BINDING AFFINITY PREDICTED BY RF-SCORE:    0.00 PKD
ROOT
HETATM    1  C   UNL     1     -10.258   4.622  65.513  1.00  0.00    -0.219 C  
HETATM    2  C   UNL     1      -8.926   4.957  66.168  1.00  0.00    -0.125 C  
ENDROOT
BRANCH   2   3
HETATM    3  C   UNL     1      -8.861   6.431  66.565  1.00  0.00    -0.136 C  
BRANCH   3   4
HETATM    4  N   UNL     1      -9.936   6.733  67.508  1.00  0.00    -0.133 NA 
HETATM    5  H   UNL     1      -9.593   6.806  68.467  1.00  0.00     0.000 HD 
BRANCH   4   6
HETATM    6  C   UNL     1     -10.654   7.945  67.090  1.00  0.00    -0.313 C  
BRANCH   6   7
HETATM    7  C   UNL     1      -9.675   9.023  66.592  1.00  0.00    -0.230 C  
HETATM    8  O   UNL     1     -10.009   9.429  65.255  1.00  0.00    -0.434 OA 
HETATM    9  H   UNL     1      -9.405  10.094  64.949  1.00  0.00     0.000 HD 
BRANCH   7  10
HETATM   10  C   UNL     1      -9.694  10.248  67.514  1.00  0.00    -0.169 C  
BRANCH  10  11
HETATM   11  O   UNL     1     -10.868  11.037  67.242  1.00  0.00    -0.248 OA 
BRANCH  11  12
HETATM   12  C   UNL     1     -11.383  11.707  68.323  1.00  0.00    -0.285 A  
HETATM   13  C   UNL     1     -11.701  13.075  68.202  1.00  0.00    -0.391 A  
HETATM   14  C   UNL     1     -11.537  11.078  69.568  1.00  0.00    -0.384 A  
HETATM   15  C   UNL     1     -12.226  13.758  69.312  1.00  0.00    -0.307 A  
HETATM   16  C   UNL     1     -12.041  11.775  70.665  1.00  0.00    -0.407 A  
HETATM   17  C   UNL     1     -12.391  13.112  70.538  1.00  0.00    -0.380 A  
BRANCH  13  18
HETATM   18  C   UNL     1     -11.524  13.821  66.913  1.00  0.00    -0.347 C  
HETATM   19  O   UNL     1     -12.501  14.147  66.244  1.00  0.00    -0.466 OA 
BRANCH  18  20
HETATM   20  C   UNL     1     -10.123  14.241  66.486  1.00  0.00    -0.283 C  
BRANCH  20  21
HETATM   21  C   UNL     1      -9.394  15.021  67.575  1.00  0.00    -0.195 C  
BRANCH  21  22
HETATM   22  C   UNL     1      -9.477  16.515  67.370  1.00  0.00    -0.228 A  
HETATM   23  C   UNL     1      -8.485  17.191  66.644  1.00  0.00    -0.284 A  
HETATM   24  C   UNL     1      -8.575  18.568  66.434  1.00  0.00    -0.272 A  
HETATM   25  C   UNL     1      -9.653  19.284  66.951  1.00  0.00    -0.398 A  
HETATM   26  C   UNL     1     -10.636  18.624  67.685  1.00  0.00    -0.458 A  
HETATM   27  C   UNL     1     -10.548  17.246  67.897  1.00  0.00    -0.384 A  
ENDBRANCH  21  22
ENDBRANCH  20  21
ENDBRANCH  18  20
ENDBRANCH  13  18
ENDBRANCH  11  12
ENDBRANCH  10  11
ENDBRANCH   7  10
ENDBRANCH   6   7
ENDBRANCH   4   6
ENDBRANCH   3   4
ENDBRANCH   2   3
TORSDOF 11
ENDMDL
MODEL      183
REMARK 921   NORMALIZED FREE ENERGY PREDICTED BY IDOCK:   -4.66 KCAL/MOL
REMARK 922        TOTAL FREE ENERGY PREDICTED BY IDOCK:   -8.67 KCAL/MOL
REMARK 923 INTER-LIGAND FREE ENERGY PREDICTED BY IDOCK:   -7.11 KCAL/MOL
REMARK 924 INTRA-LIGAND FREE ENERGY PREDICTED BY IDOCK:   -1.55 KCAL/MOL
REMARK 927      BINDING AFFINITY PREDICTED BY RF-SCORE:    0.00 PKD
ROOT
HETATM    1  C   UNL     1      -8.381   7.154  71.437  1.00  0.00    -0.112 C  
HETATM    2  C   UNL     1      -7.196   7.984  70.969  1.00  0.00    -0.055 C  
ENDROOT
BRANCH   2   3
HETATM    3  C   UNL     1      -7.648   9.344  70.439  1.00  0.00    -0.145 C  
BRANCH   3   4
HETATM    4  N   UNL     1      -8.921   9.198  69.735  1.00  0.00    -0.151 NA 
HETATM    5  H   UNL     1      -9.647   8.809  70.338  1.00  0.00     0.000 HD 
BRANCH   4   6
HETATM    6  C   UNL     1      -9.327  10.482  69.147  1.00  0.00    -0.187 C  
BRANCH   6   7
HETATM    7  C   UNL     1     -10.650  10.342  68.374  1.00  0.00    -0.208 C  
HETATM    8  O   UNL     1     -11.245   9.060  68.623  1.00  0.00    -0.440 OA 
HETATM    9  H   UNL     1     -12.062   8.973  68.145  1.00  0.00     0.000 HD 
BRANCH   7  10
HETATM   10  C   UNL     1     -11.637  11.446  68.772  1.00  0.00    -0.313 C  
BRANCH  10  11
HETATM   11  O   UNL     1     -10.989  12.730  68.672  1.00  0.00    -0.242 OA 
BRANCH  11  12
HETATM   12  C   UNL     1     -11.121  13.355  67.458  1.00  0.00    -0.274 A  
HETATM   13  C   UNL     1     -10.000  13.982  66.877  1.00  0.00    -0.263 A  
HETATM   14  C   UNL     1     -12.364  13.445  66.813  1.00  0.00    -0.287 A  
HETATM   15  C   UNL     1     -10.140  14.623  65.634  1.00  0.00    -0.389 A  
HETATM   16  C   UNL     1     -12.490  14.103  65.590  1.00  0.00    -0.490 A  
HETATM   17  C   UNL     1     -11.379  14.687  64.997  1.00  0.00    -0.390 A  
BRANCH  13  18
HETATM   18  C   UNL     1      -8.650  13.960  67.531  1.00  0.00    -0.193 C  
HETATM   19  O   UNL     1      -7.896  13.004  67.367  1.00  0.00    -0.165 OA 
BRANCH  18  20
HETATM   20  C   UNL     1      -8.194  15.172  68.332  1.00  0.00    -0.145 C  
BRANCH  20  21
HETATM   21  C   UNL     1      -9.362  15.919  68.969  1.00  0.00    -0.243 C  
BRANCH  21  22
HETATM   22  C   UNL     1      -9.501  17.328  68.443  1.00  0.00    -0.283 A  
HETATM   23  C   UNL     1     -10.643  17.710  67.724  1.00  0.00    -0.380 A  
HETATM   24  C   UNL     1     -10.782  19.019  67.259  1.00  0.00    -0.556 A  
HETATM   25  C   UNL     1      -9.782  19.957  67.503  1.00  0.00    -0.521 A  
HETATM   26  C   UNL     1      -8.637  19.583  68.206  1.00  0.00    -0.380 A  
HETATM   27  C   UNL     1      -8.495  18.274  68.670  1.00  0.00    -0.301 A  
ENDBRANCH  21  22
ENDBRANCH  20  21
ENDBRANCH  18  20
ENDBRANCH  13  18
ENDBRANCH  11  12
ENDBRANCH  10  11
ENDBRANCH   7  10
ENDBRANCH   6   7
ENDBRANCH   4   6
ENDBRANCH   3   4
ENDBRANCH   2   3
TORSDOF 11
ENDMDL
MODEL      184
REMARK 921   NORMALIZED FREE ENERGY PREDICTED BY IDOCK:   -4.65 KCAL/MOL
REMARK 922        TOTAL FREE ENERGY PREDICTED BY IDOCK:   -8.66 KCAL/MOL
REMARK 923 INTER-LIGAND FREE ENERGY PREDICTED BY IDOCK:   -7.21 KCAL/MOL
REMARK 924 INTRA-LIGAND FREE ENERGY PREDICTED BY IDOCK:   -1.45 KCAL/MOL
REMARK 927      BINDING AFFINITY PREDICTED BY RF-SCORE:    0.00 PKD
ROOT
HETATM    1  C   UNL     1      -7.644  14.434  68.883  1.00  0.00    -0.128 C  
HETATM    2  C   UNL     1      -6.427  15.290  68.570  1.00  0.00    -0.092 C  
ENDROOT
BRANCH   2   3
HETATM    3  C   UNL     1      -6.587  16.704  69.126  1.00  0.00    -0.207 C  
BRANCH   3   4
HETATM    4  N   UNL     1      -6.669  17.659  68.023  1.00  0.00    -0.184 NA 
HETATM    5  H   UNL     1      -6.311  17.267  67.151  1.00  0.00     0.000 HD 
BRANCH   4   6
HETATM    6  C   UNL     1      -8.046  18.151  67.877  1.00  0.00    -0.247 C  
BRANCH   6   7
HETATM    7  C   UNL     1      -8.530  18.018  66.422  1.00  0.00    -0.235 C  
HETATM    8  O   UNL     1      -7.482  18.376  65.508  1.00  0.00    -0.528 OA 
HETATM    9  H   UNL     1      -7.781  18.293  64.610  1.00  0.00     0.000 HD 
BRANCH   7  10
HETATM   10  C   UNL     1      -8.993  16.586  66.129  1.00  0.00    -0.309 C  
BRANCH  10  11
HETATM   11  O   UNL     1     -10.430  16.519  66.208  1.00  0.00    -0.308 OA 
BRANCH  11  12
HETATM   12  C   UNL     1     -10.923  15.803  67.269  1.00  0.00    -0.259 A  
HETATM   13  C   UNL     1     -11.348  14.473  67.069  1.00  0.00    -0.359 A  
HETATM   14  C   UNL     1     -11.077  16.385  68.536  1.00  0.00    -0.357 A  
HETATM   15  C   UNL     1     -11.854  13.743  68.158  1.00  0.00    -0.411 A  
HETATM   16  C   UNL     1     -11.598  15.653  69.602  1.00  0.00    -0.364 A  
HETATM   17  C   UNL     1     -11.982  14.332  69.416  1.00  0.00    -0.381 A  
BRANCH  13  18
HETATM   18  C   UNL     1     -11.251  13.801  65.732  1.00  0.00    -0.297 C  
HETATM   19  O   UNL     1     -10.658  14.346  64.804  1.00  0.00    -0.421 OA 
BRANCH  18  20
HETATM   20  C   UNL     1     -11.825  12.400  65.562  1.00  0.00    -0.469 C  
BRANCH  20  21
HETATM   21  C   UNL     1     -10.738  11.331  65.511  1.00  0.00    -0.283 C  
BRANCH  21  22
HETATM   22  C   UNL     1     -10.257  10.931  66.885  1.00  0.00    -0.272 A  
HETATM   23  C   UNL     1      -8.952  11.238  67.301  1.00  0.00    -0.149 A  
HETATM   24  C   UNL     1      -8.516  10.889  68.580  1.00  0.00    -0.152 A  
HETATM   25  C   UNL     1      -9.376  10.228  69.455  1.00  0.00    -0.217 A  
HETATM   26  C   UNL     1     -10.669   9.907  69.047  1.00  0.00    -0.244 A  
HETATM   27  C   UNL     1     -11.107  10.253  67.767  1.00  0.00    -0.335 A  
ENDBRANCH  21  22
ENDBRANCH  20  21
ENDBRANCH  18  20
ENDBRANCH  13  18
ENDBRANCH  11  12
ENDBRANCH  10  11
ENDBRANCH   7  10
ENDBRANCH   6   7
ENDBRANCH   4   6
ENDBRANCH   3   4
ENDBRANCH   2   3
TORSDOF 11
ENDMDL
MODEL      185
REMARK 921   NORMALIZED FREE ENERGY PREDICTED BY IDOCK:   -4.65 KCAL/MOL
REMARK 922        TOTAL FREE ENERGY PREDICTED BY IDOCK:   -8.65 KCAL/MOL
REMARK 923 INTER-LIGAND FREE ENERGY PREDICTED BY IDOCK:   -7.57 KCAL/MOL
REMARK 924 INTRA-LIGAND FREE ENERGY PREDICTED BY IDOCK:   -1.08 KCAL/MOL
REMARK 927      BINDING AFFINITY PREDICTED BY RF-SCORE:    0.00 PKD
ROOT
HETATM    1  C   UNL     1      -7.008  10.001  64.861  1.00  0.00    -0.136 C  
HETATM    2  C   UNL     1      -8.527  10.069  64.827  1.00  0.00    -0.180 C  
ENDROOT
BRANCH   2   3
HETATM    3  C   UNL     1      -9.029  10.522  63.457  1.00  0.00    -0.221 C  
BRANCH   3   4
HETATM    4  N   UNL     1     -10.456  10.831  63.534  1.00  0.00    -0.524 NA 
HETATM    5  H   UNL     1     -10.879  10.466  64.387  1.00  0.00     0.000 HD 
BRANCH   4   6
HETATM    6  C   UNL     1     -10.670  12.278  63.392  1.00  0.00    -0.391 C  
BRANCH   6   7
HETATM    7  C   UNL     1     -12.170  12.622  63.445  1.00  0.00    -0.517 C  
HETATM    8  O   UNL     1     -12.945  11.595  62.808  1.00  0.00    -0.767 OA 
HETATM    9  H   UNL     1     -13.870  11.808  62.842  1.00  0.00     0.000 HD 
BRANCH   7  10
HETATM   10  C   UNL     1     -12.642  12.789  64.895  1.00  0.00    -0.470 C  
BRANCH  10  11
HETATM   11  O   UNL     1     -11.996  13.936  65.482  1.00  0.00    -0.347 OA 
BRANCH  11  12
HETATM   12  C   UNL     1     -11.338  13.694  66.660  1.00  0.00    -0.326 A  
HETATM   13  C   UNL     1     -10.475  14.678  67.185  1.00  0.00    -0.268 A  
HETATM   14  C   UNL     1     -11.451  12.462  67.321  1.00  0.00    -0.421 A  
HETATM   15  C   UNL     1      -9.800  14.425  68.392  1.00  0.00    -0.234 A  
HETATM   16  C   UNL     1     -10.760  12.220  68.508  1.00  0.00    -0.261 A  
HETATM   17  C   UNL     1      -9.939  13.202  69.047  1.00  0.00     0.204 A  
BRANCH  13  18
HETATM   18  C   UNL     1     -10.274  16.002  66.509  1.00  0.00    -0.293 C  
HETATM   19  O   UNL     1      -9.563  16.088  65.511  1.00  0.00    -0.418 OA 
BRANCH  18  20
HETATM   20  C   UNL     1     -11.028  17.221  67.026  1.00  0.00     0.091 C  
BRANCH  20  21
HETATM   21  C   UNL     1     -10.356  17.845  68.244  1.00  0.00    -0.389 C  
BRANCH  21  22
HETATM   22  C   UNL     1      -9.021  18.468  67.911  1.00  0.00    -0.300 A  
HETATM   23  C   UNL     1      -8.857  19.214  66.735  1.00  0.00    -0.330 A  
HETATM   24  C   UNL     1      -7.629  19.810  66.440  1.00  0.00    -0.310 A  
HETATM   25  C   UNL     1      -6.553  19.662  67.312  1.00  0.00    -0.216 A  
HETATM   26  C   UNL     1      -6.703  18.911  68.477  1.00  0.00    -0.278 A  
HETATM   27  C   UNL     1      -7.929  18.313  68.774  1.00  0.00    -0.268 A  
ENDBRANCH  21  22
ENDBRANCH  20  21
ENDBRANCH  18  20
ENDBRANCH  13  18
ENDBRANCH  11  12
ENDBRANCH  10  11
ENDBRANCH   7  10
ENDBRANCH   6   7
ENDBRANCH   4   6
ENDBRANCH   3   4
ENDBRANCH   2   3
TORSDOF 11
ENDMDL
MODEL      186
REMARK 921   NORMALIZED FREE ENERGY PREDICTED BY IDOCK:   -4.65 KCAL/MOL
REMARK 922        TOTAL FREE ENERGY PREDICTED BY IDOCK:   -8.65 KCAL/MOL
REMARK 923 INTER-LIGAND FREE ENERGY PREDICTED BY IDOCK:   -7.08 KCAL/MOL
REMARK 924 INTRA-LIGAND FREE ENERGY PREDICTED BY IDOCK:   -1.57 KCAL/MOL
REMARK 927      BINDING AFFINITY PREDICTED BY RF-SCORE:    0.00 PKD
ROOT
HETATM    1  C   UNL     1      -7.727   6.815  71.376  1.00  0.00    -0.093 C  
HETATM    2  C   UNL     1      -8.458   8.085  70.970  1.00  0.00    -0.134 C  
ENDROOT
BRANCH   2   3
HETATM    3  C   UNL     1      -9.087   7.943  69.585  1.00  0.00    -0.153 C  
BRANCH   3   4
HETATM    4  N   UNL     1      -9.279   9.265  68.993  1.00  0.00    -0.142 NA 
HETATM    5  H   UNL     1      -9.318   9.226  67.975  1.00  0.00     0.000 HD 
BRANCH   4   6
HETATM    6  C   UNL     1     -10.471   9.908  69.563  1.00  0.00    -0.241 C  
BRANCH   6   7
HETATM    7  C   UNL     1     -11.420  10.395  68.453  1.00  0.00    -0.155 C  
HETATM    8  O   UNL     1     -12.731  10.643  68.984  1.00  0.00    -0.675 OA 
HETATM    9  H   UNL     1     -13.316  10.944  68.298  1.00  0.00     0.000 HD 
BRANCH   7  10
HETATM   10  C   UNL     1     -10.886  11.675  67.799  1.00  0.00    -0.217 C  
BRANCH  10  11
HETATM   11  O   UNL     1     -10.164  12.450  68.776  1.00  0.00    -0.186 OA 
BRANCH  11  12
HETATM   12  C   UNL     1     -10.765  13.626  69.146  1.00  0.00    -0.104 A  
HETATM   13  C   UNL     1     -10.182  14.852  68.764  1.00  0.00    -0.243 A  
HETATM   14  C   UNL     1     -11.911  13.639  69.955  1.00  0.00    -0.413 A  
HETATM   15  C   UNL     1     -10.799  16.055  69.147  1.00  0.00    -0.281 A  
HETATM   16  C   UNL     1     -12.501  14.842  70.343  1.00  0.00    -0.405 A  
HETATM   17  C   UNL     1     -11.949  16.049  69.936  1.00  0.00    -0.187 A  
BRANCH  13  18
HETATM   18  C   UNL     1      -8.934  14.913  67.934  1.00  0.00    -0.177 C  
HETATM   19  O   UNL     1      -7.861  14.532  68.396  1.00  0.00    -0.120 OA 
BRANCH  18  20
HETATM   20  C   UNL     1      -9.027  15.375  66.486  1.00  0.00    -0.344 C  
BRANCH  20  21
HETATM   21  C   UNL     1      -8.248  16.663  66.237  1.00  0.00    -0.365 C  
BRANCH  21  22
HETATM   22  C   UNL     1      -8.905  17.866  66.870  1.00  0.00    -0.263 A  
HETATM   23  C   UNL     1     -10.166  18.301  66.435  1.00  0.00    -0.417 A  
HETATM   24  C   UNL     1     -10.783  19.399  67.037  1.00  0.00    -0.582 A  
HETATM   25  C   UNL     1     -10.146  20.076  68.075  1.00  0.00    -0.557 A  
HETATM   26  C   UNL     1      -8.888  19.660  68.505  1.00  0.00    -0.346 A  
HETATM   27  C   UNL     1      -8.268  18.563  67.904  1.00  0.00    -0.277 A  
ENDBRANCH  21  22
ENDBRANCH  20  21
ENDBRANCH  18  20
ENDBRANCH  13  18
ENDBRANCH  11  12
ENDBRANCH  10  11
ENDBRANCH   7  10
ENDBRANCH   6   7
ENDBRANCH   4   6
ENDBRANCH   3   4
ENDBRANCH   2   3
TORSDOF 11
ENDMDL
MODEL      187
REMARK 921   NORMALIZED FREE ENERGY PREDICTED BY IDOCK:   -4.64 KCAL/MOL
REMARK 922        TOTAL FREE ENERGY PREDICTED BY IDOCK:   -8.64 KCAL/MOL
REMARK 923 INTER-LIGAND FREE ENERGY PREDICTED BY IDOCK:   -7.39 KCAL/MOL
REMARK 924 INTRA-LIGAND FREE ENERGY PREDICTED BY IDOCK:   -1.25 KCAL/MOL
REMARK 927      BINDING AFFINITY PREDICTED BY RF-SCORE:    0.00 PKD
ROOT
HETATM    1  C   UNL     1      -6.126  20.277  68.894  1.00  0.00    -0.356 C  
HETATM    2  C   UNL     1      -7.088  20.231  67.717  1.00  0.00    -0.339 C  
ENDROOT
BRANCH   2   3
HETATM    3  C   UNL     1      -8.337  19.419  68.056  1.00  0.00    -0.319 C  
BRANCH   3   4
HETATM    4  N   UNL     1      -8.117  18.015  67.714  1.00  0.00    -0.233 NA 
HETATM    5  H   UNL     1      -8.534  17.385  68.401  1.00  0.00     0.000 HD 
BRANCH   4   6
HETATM    6  C   UNL     1      -8.603  17.740  66.354  1.00  0.00    -0.231 C  
BRANCH   6   7
HETATM    7  C   UNL     1     -10.141  17.745  66.305  1.00  0.00    -0.344 C  
HETATM    8  O   UNL     1     -10.606  17.260  65.036  1.00  0.00    -0.675 OA 
HETATM    9  H   UNL     1     -11.555  17.264  65.007  1.00  0.00     0.000 HD 
BRANCH   7  10
HETATM   10  C   UNL     1     -10.727  16.879  67.426  1.00  0.00    -0.241 C  
BRANCH  10  11
HETATM   11  O   UNL     1     -10.946  15.541  66.936  1.00  0.00    -0.317 OA 
BRANCH  11  12
HETATM   12  C   UNL     1     -11.317  14.626  67.888  1.00  0.00    -0.315 A  
HETATM   13  C   UNL     1     -11.713  13.333  67.488  1.00  0.00    -0.410 A  
HETATM   14  C   UNL     1     -11.377  14.967  69.247  1.00  0.00    -0.311 A  
HETATM   15  C   UNL     1     -12.095  12.398  68.465  1.00  0.00    -0.126 A  
HETATM   16  C   UNL     1     -11.777  14.034  70.203  1.00  0.00    -0.331 A  
HETATM   17  C   UNL     1     -12.130  12.749  69.815  1.00  0.00    -0.305 A  
BRANCH  13  18
HETATM   18  C   UNL     1     -11.713  12.913  66.048  1.00  0.00    -0.404 C  
HETATM   19  O   UNL     1     -12.676  13.163  65.327  1.00  0.00    -0.551 OA 
BRANCH  18  20
HETATM   20  C   UNL     1     -10.471  12.245  65.469  1.00  0.00    -0.296 C  
BRANCH  20  21
HETATM   21  C   UNL     1     -10.636  10.735  65.330  1.00  0.00    -0.224 C  
BRANCH  21  22
HETATM   22  C   UNL     1      -9.666   9.967  66.195  1.00  0.00    -0.297 A  
HETATM   23  C   UNL     1      -8.961  10.612  67.223  1.00  0.00    -0.141 A  
HETATM   24  C   UNL     1      -8.083   9.895  68.037  1.00  0.00    -0.108 A  
HETATM   25  C   UNL     1      -7.895   8.531  67.831  1.00  0.00    -0.103 A  
HETATM   26  C   UNL     1      -8.579   7.883  66.804  1.00  0.00    -0.133 A  
HETATM   27  C   UNL     1      -9.458   8.598  65.987  1.00  0.00    -0.278 A  
ENDBRANCH  21  22
ENDBRANCH  20  21
ENDBRANCH  18  20
ENDBRANCH  13  18
ENDBRANCH  11  12
ENDBRANCH  10  11
ENDBRANCH   7  10
ENDBRANCH   6   7
ENDBRANCH   4   6
ENDBRANCH   3   4
ENDBRANCH   2   3
TORSDOF 11
ENDMDL
MODEL      188
REMARK 921   NORMALIZED FREE ENERGY PREDICTED BY IDOCK:   -4.63 KCAL/MOL
REMARK 922        TOTAL FREE ENERGY PREDICTED BY IDOCK:   -8.62 KCAL/MOL
REMARK 923 INTER-LIGAND FREE ENERGY PREDICTED BY IDOCK:   -6.97 KCAL/MOL
REMARK 924 INTRA-LIGAND FREE ENERGY PREDICTED BY IDOCK:   -1.65 KCAL/MOL
REMARK 927      BINDING AFFINITY PREDICTED BY RF-SCORE:    0.00 PKD
ROOT
HETATM    1  C   UNL     1     -13.144  14.000  65.253  1.00  0.00    -0.176 C  
HETATM    2  C   UNL     1     -11.799  14.228  64.580  1.00  0.00    -0.459 C  
ENDROOT
BRANCH   2   3
HETATM    3  C   UNL     1     -11.511  15.719  64.411  1.00  0.00    -0.263 C  
BRANCH   3   4
HETATM    4  N   UNL     1     -10.298  16.071  65.147  1.00  0.00    -0.556 NA 
HETATM    5  H   UNL     1      -9.516  16.266  64.521  1.00  0.00     0.000 HD 
BRANCH   4   6
HETATM    6  C   UNL     1     -10.564  17.193  66.058  1.00  0.00    -0.204 C  
BRANCH   6   7
HETATM    7  C   UNL     1      -9.569  17.199  67.232  1.00  0.00    -0.245 C  
HETATM    8  O   UNL     1     -10.264  17.060  68.481  1.00  0.00    -0.282 OA 
HETATM    9  H   UNL     1      -9.650  17.064  69.206  1.00  0.00     0.000 HD 
BRANCH   7  10
HETATM   10  C   UNL     1      -8.548  16.065  67.090  1.00  0.00    -0.194 C  
BRANCH  10  11
HETATM   11  O   UNL     1      -9.155  14.818  67.481  1.00  0.00    -0.179 OA 
BRANCH  11  12
HETATM   12  C   UNL     1      -8.286  13.874  67.965  1.00  0.00    -0.166 A  
HETATM   13  C   UNL     1      -8.611  12.507  67.843  1.00  0.00    -0.179 A  
HETATM   14  C   UNL     1      -7.112  14.238  68.641  1.00  0.00    -0.111 A  
HETATM   15  C   UNL     1      -7.720  11.542  68.343  1.00  0.00    -0.129 A  
HETATM   16  C   UNL     1      -6.247  13.269  69.147  1.00  0.00    -0.099 A  
HETATM   17  C   UNL     1      -6.547  11.922  68.995  1.00  0.00    -0.091 A  
BRANCH  13  18
HETATM   18  C   UNL     1      -9.870  12.047  67.170  1.00  0.00    -0.196 C  
HETATM   19  O   UNL     1      -9.817  11.275  66.215  1.00  0.00    -0.202 OA 
BRANCH  18  20
HETATM   20  C   UNL     1     -11.216  12.483  67.734  1.00  0.00    -0.318 C  
BRANCH  20  21
HETATM   21  C   UNL     1     -11.583  11.728  69.008  1.00  0.00    -0.372 C  
BRANCH  21  22
HETATM   22  C   UNL     1     -12.119  12.641  70.085  1.00  0.00    -0.368 A  
HETATM   23  C   UNL     1     -11.960  14.031  69.986  1.00  0.00    -0.404 A  
HETATM   24  C   UNL     1     -12.477  14.875  70.971  1.00  0.00    -0.396 A  
HETATM   25  C   UNL     1     -13.152  14.339  72.065  1.00  0.00    -0.456 A  
HETATM   26  C   UNL     1     -13.304  12.959  72.179  1.00  0.00    -0.615 A  
HETATM   27  C   UNL     1     -12.786  12.112  71.197  1.00  0.00    -0.313 A  
ENDBRANCH  21  22
ENDBRANCH  20  21
ENDBRANCH  18  20
ENDBRANCH  13  18
ENDBRANCH  11  12
ENDBRANCH  10  11
ENDBRANCH   7  10
ENDBRANCH   6   7
ENDBRANCH   4   6
ENDBRANCH   3   4
ENDBRANCH   2   3
TORSDOF 11
ENDMDL
MODEL      189
REMARK 921   NORMALIZED FREE ENERGY PREDICTED BY IDOCK:   -4.63 KCAL/MOL
REMARK 922        TOTAL FREE ENERGY PREDICTED BY IDOCK:   -8.62 KCAL/MOL
REMARK 923 INTER-LIGAND FREE ENERGY PREDICTED BY IDOCK:   -7.53 KCAL/MOL
REMARK 924 INTRA-LIGAND FREE ENERGY PREDICTED BY IDOCK:   -1.09 KCAL/MOL
REMARK 927      BINDING AFFINITY PREDICTED BY RF-SCORE:    0.00 PKD
ROOT
HETATM    1  C   UNL     1      -6.598  10.543  62.359  1.00  0.00    -0.151 C  
HETATM    2  C   UNL     1      -7.323   9.333  62.929  1.00  0.00    -0.100 C  
ENDROOT
BRANCH   2   3
HETATM    3  C   UNL     1      -8.473   9.757  63.841  1.00  0.00    -0.184 C  
BRANCH   3   4
HETATM    4  N   UNL     1      -9.691   9.924  63.051  1.00  0.00    -0.526 NA 
HETATM    5  H   UNL     1     -10.418   9.262  63.326  1.00  0.00     0.000 HD 
BRANCH   4   6
HETATM    6  C   UNL     1     -10.160  11.315  63.127  1.00  0.00    -0.345 C  
BRANCH   6   7
HETATM    7  C   UNL     1     -10.454  11.721  64.582  1.00  0.00    -0.299 C  
HETATM    8  O   UNL     1      -9.439  12.612  65.070  1.00  0.00    -0.460 OA 
HETATM    9  H   UNL     1      -9.621  12.862  65.969  1.00  0.00     0.000 HD 
BRANCH   7  10
HETATM   10  C   UNL     1     -11.824  12.399  64.695  1.00  0.00    -0.380 C  
BRANCH  10  11
HETATM   11  O   UNL     1     -12.374  12.157  66.005  1.00  0.00    -0.550 OA 
BRANCH  11  12
HETATM   12  C   UNL     1     -11.994  13.054  66.971  1.00  0.00    -0.347 A  
HETATM   13  C   UNL     1     -11.676  12.587  68.263  1.00  0.00    -0.390 A  
HETATM   14  C   UNL     1     -11.979  14.435  66.722  1.00  0.00    -0.423 A  
HETATM   15  C   UNL     1     -11.289  13.509  69.250  1.00  0.00    -0.317 A  
HETATM   16  C   UNL     1     -11.611  15.338  67.718  1.00  0.00    -0.277 A  
HETATM   17  C   UNL     1     -11.262  14.877  68.980  1.00  0.00    -0.278 A  
BRANCH  13  18
HETATM   18  C   UNL     1     -11.710  11.128  68.610  1.00  0.00    -0.320 C  
HETATM   19  O   UNL     1     -12.659  10.661  69.236  1.00  0.00    -0.270 OA 
BRANCH  18  20
HETATM   20  C   UNL     1     -10.597  10.218  68.107  1.00  0.00    -0.258 C  
BRANCH  20  21
HETATM   21  C   UNL     1     -10.637   8.839  68.756  1.00  0.00    -0.174 C  
BRANCH  21  22
HETATM   22  C   UNL     1     -10.188   7.745  67.817  1.00  0.00    -0.271 A  
HETATM   23  C   UNL     1     -10.929   6.560  67.696  1.00  0.00    -0.426 A  
HETATM   24  C   UNL     1     -10.526   5.560  66.809  1.00  0.00    -0.355 A  
HETATM   25  C   UNL     1      -9.377   5.731  66.039  1.00  0.00    -0.134 A  
HETATM   26  C   UNL     1      -8.627   6.899  66.162  1.00  0.00    -0.147 A  
HETATM   27  C   UNL     1      -9.027   7.901  67.049  1.00  0.00    -0.145 A  
ENDBRANCH  21  22
ENDBRANCH  20  21
ENDBRANCH  18  20
ENDBRANCH  13  18
ENDBRANCH  11  12
ENDBRANCH  10  11
ENDBRANCH   7  10
ENDBRANCH   6   7
ENDBRANCH   4   6
ENDBRANCH   3   4
ENDBRANCH   2   3
TORSDOF 11
ENDMDL
MODEL      190
REMARK 921   NORMALIZED FREE ENERGY PREDICTED BY IDOCK:   -4.63 KCAL/MOL
REMARK 922        TOTAL FREE ENERGY PREDICTED BY IDOCK:   -8.62 KCAL/MOL
REMARK 923 INTER-LIGAND FREE ENERGY PREDICTED BY IDOCK:   -7.52 KCAL/MOL
REMARK 924 INTRA-LIGAND FREE ENERGY PREDICTED BY IDOCK:   -1.10 KCAL/MOL
REMARK 927      BINDING AFFINITY PREDICTED BY RF-SCORE:    0.00 PKD
ROOT
HETATM    1  C   UNL     1      -7.911   5.031  73.080  1.00  0.00    -0.101 C  
HETATM    2  C   UNL     1      -7.190   6.370  73.120  1.00  0.00    -0.086 C  
ENDROOT
BRANCH   2   3
HETATM    3  C   UNL     1      -7.139   7.012  71.735  1.00  0.00    -0.070 C  
BRANCH   3   4
HETATM    4  N   UNL     1      -7.852   6.170  70.776  1.00  0.00    -0.101 NA 
HETATM    5  H   UNL     1      -8.780   5.911  71.113  1.00  0.00     0.000 HD 
BRANCH   4   6
HETATM    6  C   UNL     1      -7.911   6.831  69.465  1.00  0.00    -0.113 C  
BRANCH   6   7
HETATM    7  C   UNL     1      -7.861   8.362  69.614  1.00  0.00    -0.100 C  
HETATM    8  O   UNL     1      -6.819   8.914  68.795  1.00  0.00    -0.060 OA 
HETATM    9  H   UNL     1      -6.788   9.859  68.888  1.00  0.00     0.000 HD 
BRANCH   7  10
HETATM   10  C   UNL     1      -9.202   8.994  69.224  1.00  0.00    -0.145 C  
BRANCH  10  11
HETATM   11  O   UNL     1      -9.617   9.916  70.250  1.00  0.00    -0.239 OA 
BRANCH  11  12
HETATM   12  C   UNL     1     -10.790   9.595  70.884  1.00  0.00    -0.339 A  
HETATM   13  C   UNL     1     -11.933  10.392  70.670  1.00  0.00    -0.448 A  
HETATM   14  C   UNL     1     -10.862   8.529  71.794  1.00  0.00    -0.374 A  
HETATM   15  C   UNL     1     -13.133  10.061  71.322  1.00  0.00    -0.493 A  
HETATM   16  C   UNL     1     -12.055   8.225  72.448  1.00  0.00    -0.430 A  
HETATM   17  C   UNL     1     -13.191   8.986  72.209  1.00  0.00    -0.519 A  
BRANCH  13  18
HETATM   18  C   UNL     1     -11.917  11.570  69.742  1.00  0.00    -0.346 C  
HETATM   19  O   UNL     1     -11.878  12.714  70.191  1.00  0.00    -0.318 OA 
BRANCH  18  20
HETATM   20  C   UNL     1     -11.867  11.331  68.239  1.00  0.00    -0.299 C  
BRANCH  20  21
HETATM   21  C   UNL     1     -11.439  12.576  67.468  1.00  0.00    -0.397 C  
BRANCH  21  22
HETATM   22  C   UNL     1     -11.265  12.309  65.991  1.00  0.00    -0.375 A  
HETATM   23  C   UNL     1     -10.090  11.716  65.508  1.00  0.00    -0.285 A  
HETATM   24  C   UNL     1      -9.940  11.447  64.146  1.00  0.00    -0.335 A  
HETATM   25  C   UNL     1     -10.959  11.774  63.254  1.00  0.00    -0.387 A  
HETATM   26  C   UNL     1     -12.126  12.376  63.723  1.00  0.00    -0.618 A  
HETATM   27  C   UNL     1     -12.277  12.647  65.084  1.00  0.00    -0.539 A  
ENDBRANCH  21  22
ENDBRANCH  20  21
ENDBRANCH  18  20
ENDBRANCH  13  18
ENDBRANCH  11  12
ENDBRANCH  10  11
ENDBRANCH   7  10
ENDBRANCH   6   7
ENDBRANCH   4   6
ENDBRANCH   3   4
ENDBRANCH   2   3
TORSDOF 11
ENDMDL
MODEL      191
REMARK 921   NORMALIZED FREE ENERGY PREDICTED BY IDOCK:   -4.61 KCAL/MOL
REMARK 922        TOTAL FREE ENERGY PREDICTED BY IDOCK:   -8.59 KCAL/MOL
REMARK 923 INTER-LIGAND FREE ENERGY PREDICTED BY IDOCK:   -6.83 KCAL/MOL
REMARK 924 INTRA-LIGAND FREE ENERGY PREDICTED BY IDOCK:   -1.76 KCAL/MOL
REMARK 927      BINDING AFFINITY PREDICTED BY RF-SCORE:    0.00 PKD
ROOT
HETATM    1  C   UNL     1     -12.829  14.326  70.806  1.00  0.00    -0.404 C  
HETATM    2  C   UNL     1     -12.036  14.427  69.512  1.00  0.00    -0.376 C  
ENDROOT
BRANCH   2   3
HETATM    3  C   UNL     1     -11.393  13.089  69.152  1.00  0.00    -0.273 C  
BRANCH   3   4
HETATM    4  N   UNL     1     -12.139  12.463  68.063  1.00  0.00    -0.377 NA 
HETATM    5  H   UNL     1     -13.065  12.156  68.363  1.00  0.00     0.000 HD 
BRANCH   4   6
HETATM    6  C   UNL     1     -12.209  13.368  66.908  1.00  0.00    -0.289 C  
BRANCH   6   7
HETATM    7  C   UNL     1     -12.037  12.595  65.588  1.00  0.00    -0.443 C  
HETATM    8  O   UNL     1     -12.914  13.120  64.579  1.00  0.00    -0.688 OA 
HETATM    9  H   UNL     1     -12.808  12.642  63.765  1.00  0.00     0.000 HD 
BRANCH   7  10
HETATM   10  C   UNL     1     -10.589  12.673  65.092  1.00  0.00    -0.298 C  
BRANCH  10  11
HETATM   11  O   UNL     1      -9.931  11.413  65.327  1.00  0.00    -0.235 OA 
BRANCH  11  12
HETATM   12  C   UNL     1      -9.092  11.386  66.411  1.00  0.00    -0.193 A  
HETATM   13  C   UNL     1      -8.841  10.162  67.064  1.00  0.00    -0.144 A  
HETATM   14  C   UNL     1      -8.529  12.563  66.929  1.00  0.00    -0.130 A  
HETATM   15  C   UNL     1      -7.982  10.139  68.176  1.00  0.00    -0.104 A  
HETATM   16  C   UNL     1      -7.694  12.527  68.045  1.00  0.00    -0.140 A  
HETATM   17  C   UNL     1      -7.416  11.316  68.666  1.00  0.00    -0.118 A  
BRANCH  13  18
HETATM   18  C   UNL     1      -9.442   8.872  66.590  1.00  0.00    -0.202 C  
HETATM   19  O   UNL     1      -8.927   8.250  65.664  1.00  0.00    -0.171 OA 
BRANCH  18  20
HETATM   20  C   UNL     1     -10.650   8.302  67.322  1.00  0.00    -0.335 C  
BRANCH  20  21
HETATM   21  C   UNL     1     -10.265   7.204  68.308  1.00  0.00    -0.210 C  
BRANCH  21  22
HETATM   22  C   UNL     1     -10.583   7.574  69.738  1.00  0.00    -0.245 A  
HETATM   23  C   UNL     1     -11.180   8.807  70.039  1.00  0.00    -0.113 A  
HETATM   24  C   UNL     1     -11.496   9.138  71.358  1.00  0.00    -0.420 A  
HETATM   25  C   UNL     1     -11.214   8.244  72.388  1.00  0.00    -0.451 A  
HETATM   26  C   UNL     1     -10.608   7.022  72.101  1.00  0.00    -0.240 A  
HETATM   27  C   UNL     1     -10.290   6.689  70.783  1.00  0.00    -0.232 A  
ENDBRANCH  21  22
ENDBRANCH  20  21
ENDBRANCH  18  20
ENDBRANCH  13  18
ENDBRANCH  11  12
ENDBRANCH  10  11
ENDBRANCH   7  10
ENDBRANCH   6   7
ENDBRANCH   4   6
ENDBRANCH   3   4
ENDBRANCH   2   3
TORSDOF 11
ENDMDL
MODEL      192
REMARK 921   NORMALIZED FREE ENERGY PREDICTED BY IDOCK:   -4.61 KCAL/MOL
REMARK 922        TOTAL FREE ENERGY PREDICTED BY IDOCK:   -8.59 KCAL/MOL
REMARK 923 INTER-LIGAND FREE ENERGY PREDICTED BY IDOCK:   -7.14 KCAL/MOL
REMARK 924 INTRA-LIGAND FREE ENERGY PREDICTED BY IDOCK:   -1.44 KCAL/MOL
REMARK 927      BINDING AFFINITY PREDICTED BY RF-SCORE:    0.00 PKD
ROOT
HETATM    1  C   UNL     1      -6.516   9.753  64.262  1.00  0.00    -0.118 C  
HETATM    2  C   UNL     1      -7.851   9.659  64.985  1.00  0.00    -0.118 C  
ENDROOT
BRANCH   2   3
HETATM    3  C   UNL     1      -8.975   9.278  64.022  1.00  0.00    -0.064 C  
BRANCH   3   4
HETATM    4  N   UNL     1     -10.135  10.136  64.258  1.00  0.00    -0.449 NA 
HETATM    5  H   UNL     1     -10.222  10.396  65.241  1.00  0.00     0.000 HD 
BRANCH   4   6
HETATM    6  C   UNL     1     -10.083  11.313  63.381  1.00  0.00    -0.400 C  
BRANCH   6   7
HETATM    7  C   UNL     1     -11.322  12.205  63.580  1.00  0.00    -0.453 C  
HETATM    8  O   UNL     1     -12.520  11.480  63.266  1.00  0.00    -0.846 OA 
HETATM    9  H   UNL     1     -13.284  12.031  63.389  1.00  0.00     0.000 HD 
BRANCH   7  10
HETATM   10  C   UNL     1     -11.401  12.718  65.023  1.00  0.00    -0.309 C  
BRANCH  10  11
HETATM   11  O   UNL     1     -10.512  13.840  65.185  1.00  0.00    -0.340 OA 
BRANCH  11  12
HETATM   12  C   UNL     1      -9.645  13.747  66.243  1.00  0.00    -0.249 A  
HETATM   13  C   UNL     1      -9.070  14.921  66.773  1.00  0.00    -0.295 A  
HETATM   14  C   UNL     1      -9.262  12.503  66.768  1.00  0.00    -0.217 A  
HETATM   15  C   UNL     1      -8.180  14.822  67.856  1.00  0.00    -0.154 A  
HETATM   16  C   UNL     1      -8.362  12.421  67.831  1.00  0.00    -0.165 A  
HETATM   17  C   UNL     1      -7.825  13.578  68.378  1.00  0.00    -0.143 A  
BRANCH  13  18
HETATM   18  C   UNL     1      -9.403  16.280  66.234  1.00  0.00    -0.326 C  
HETATM   19  O   UNL     1      -8.643  16.840  65.447  1.00  0.00     0.019 OA 
BRANCH  18  20
HETATM   20  C   UNL     1     -10.732  16.924  66.609  1.00  0.00    -0.094 C  
BRANCH  20  21
HETATM   21  C   UNL     1     -10.817  17.253  68.096  1.00  0.00    -0.294 C  
BRANCH  21  22
HETATM   22  C   UNL     1     -11.248  16.067  68.926  1.00  0.00    -0.353 A  
HETATM   23  C   UNL     1     -11.044  16.057  70.314  1.00  0.00    -0.380 A  
HETATM   24  C   UNL     1     -11.464  14.971  71.084  1.00  0.00    -0.355 A  
HETATM   25  C   UNL     1     -12.087  13.883  70.475  1.00  0.00    -0.426 A  
HETATM   26  C   UNL     1     -12.282  13.878  69.095  1.00  0.00    -0.305 A  
HETATM   27  C   UNL     1     -11.861  14.963  68.323  1.00  0.00    -0.308 A  
ENDBRANCH  21  22
ENDBRANCH  20  21
ENDBRANCH  18  20
ENDBRANCH  13  18
ENDBRANCH  11  12
ENDBRANCH  10  11
ENDBRANCH   7  10
ENDBRANCH   6   7
ENDBRANCH   4   6
ENDBRANCH   3   4
ENDBRANCH   2   3
TORSDOF 11
ENDMDL
MODEL      193
REMARK 921   NORMALIZED FREE ENERGY PREDICTED BY IDOCK:   -4.61 KCAL/MOL
REMARK 922        TOTAL FREE ENERGY PREDICTED BY IDOCK:   -8.59 KCAL/MOL
REMARK 923 INTER-LIGAND FREE ENERGY PREDICTED BY IDOCK:   -7.81 KCAL/MOL
REMARK 924 INTRA-LIGAND FREE ENERGY PREDICTED BY IDOCK:   -0.77 KCAL/MOL
REMARK 927      BINDING AFFINITY PREDICTED BY RF-SCORE:    0.00 PKD
ROOT
HETATM    1  C   UNL     1      -7.399  18.801  67.628  1.00  0.00    -0.238 C  
HETATM    2  C   UNL     1      -7.963  20.203  67.451  1.00  0.00    -0.357 C  
ENDROOT
BRANCH   2   3
HETATM    3  C   UNL     1      -9.428  20.159  67.020  1.00  0.00    -0.409 C  
BRANCH   3   4
HETATM    4  N   UNL     1      -9.861  18.769  66.893  1.00  0.00    -0.318 NA 
HETATM    5  H   UNL     1     -10.472  18.488  67.661  1.00  0.00     0.000 HD 
BRANCH   4   6
HETATM    6  C   UNL     1     -10.492  18.551  65.583  1.00  0.00    -0.103 C  
BRANCH   6   7
HETATM    7  C   UNL     1     -11.075  17.130  65.481  1.00  0.00     0.216 C  
HETATM    8  O   UNL     1     -11.202  16.736  64.106  1.00  0.00    -1.415 OA 
HETATM    9  H   UNL     1     -11.562  15.859  64.043  1.00  0.00     0.000 HD 
BRANCH   7  10
HETATM   10  C   UNL     1     -10.190  16.120  66.220  1.00  0.00    -0.320 C  
BRANCH  10  11
HETATM   11  O   UNL     1     -10.954  14.935  66.516  1.00  0.00    -0.318 OA 
BRANCH  11  12
HETATM   12  C   UNL     1     -11.327  14.795  67.829  1.00  0.00    -0.330 A  
HETATM   13  C   UNL     1     -11.805  13.549  68.284  1.00  0.00    -0.401 A  
HETATM   14  C   UNL     1     -11.308  15.884  68.714  1.00  0.00    -0.378 A  
HETATM   15  C   UNL     1     -12.188  13.411  69.629  1.00  0.00    -0.279 A  
HETATM   16  C   UNL     1     -11.709  15.735  70.041  1.00  0.00    -0.362 A  
HETATM   17  C   UNL     1     -12.144  14.499  70.501  1.00  0.00    -0.395 A  
BRANCH  13  18
HETATM   18  C   UNL     1     -11.891  12.354  67.382  1.00  0.00    -0.289 C  
HETATM   19  O   UNL     1     -12.294  12.475  66.227  1.00  0.00    -0.570 OA 
BRANCH  18  20
HETATM   20  C   UNL     1     -11.397  11.005  67.887  1.00  0.00    -0.381 C  
BRANCH  20  21
HETATM   21  C   UNL     1     -10.027  10.641  67.323  1.00  0.00    -0.224 C  
BRANCH  21  22
HETATM   22  C   UNL     1      -8.999  10.417  68.406  1.00  0.00    -0.137 A  
HETATM   23  C   UNL     1      -9.276   9.568  69.488  1.00  0.00    -0.198 A  
HETATM   24  C   UNL     1      -8.315   9.342  70.475  1.00  0.00    -0.233 A  
HETATM   25  C   UNL     1      -7.072   9.966  70.395  1.00  0.00    -0.146 A  
HETATM   26  C   UNL     1      -6.792  10.821  69.332  1.00  0.00    -0.109 A  
HETATM   27  C   UNL     1      -7.751  11.050  68.343  1.00  0.00    -0.119 A  
ENDBRANCH  21  22
ENDBRANCH  20  21
ENDBRANCH  18  20
ENDBRANCH  13  18
ENDBRANCH  11  12
ENDBRANCH  10  11
ENDBRANCH   7  10
ENDBRANCH   6   7
ENDBRANCH   4   6
ENDBRANCH   3   4
ENDBRANCH   2   3
TORSDOF 11
ENDMDL
MODEL      194
REMARK 921   NORMALIZED FREE ENERGY PREDICTED BY IDOCK:   -4.59 KCAL/MOL
REMARK 922        TOTAL FREE ENERGY PREDICTED BY IDOCK:   -8.57 KCAL/MOL
REMARK 923 INTER-LIGAND FREE ENERGY PREDICTED BY IDOCK:   -7.13 KCAL/MOL
REMARK 924 INTRA-LIGAND FREE ENERGY PREDICTED BY IDOCK:   -1.43 KCAL/MOL
REMARK 927      BINDING AFFINITY PREDICTED BY RF-SCORE:    0.00 PKD
ROOT
HETATM    1  C   UNL     1     -10.673   4.750  65.949  1.00  0.00    -0.225 C  
HETATM    2  C   UNL     1      -9.213   4.929  65.560  1.00  0.00    -0.160 C  
ENDROOT
BRANCH   2   3
HETATM    3  C   UNL     1      -8.655   6.246  66.097  1.00  0.00    -0.143 C  
BRANCH   3   4
HETATM    4  N   UNL     1      -8.375   6.115  67.526  1.00  0.00    -0.109 NA 
HETATM    5  H   UNL     1      -7.376   6.175  67.725  1.00  0.00     0.000 HD 
BRANCH   4   6
HETATM    6  C   UNL     1      -9.147   7.105  68.289  1.00  0.00    -0.134 C  
BRANCH   6   7
HETATM    7  C   UNL     1      -8.315   8.375  68.545  1.00  0.00    -0.131 C  
HETATM    8  O   UNL     1      -8.820   9.472  67.769  1.00  0.00    -0.120 OA 
HETATM    9  H   UNL     1      -8.307  10.256  67.928  1.00  0.00     0.000 HD 
BRANCH   7  10
HETATM   10  C   UNL     1      -8.336   8.752  70.032  1.00  0.00    -0.127 C  
BRANCH  10  11
HETATM   11  O   UNL     1      -9.232   9.862  70.234  1.00  0.00    -0.215 OA 
BRANCH  11  12
HETATM   12  C   UNL     1     -10.396   9.558  70.894  1.00  0.00    -0.302 A  
HETATM   13  C   UNL     1     -11.619  10.068  70.413  1.00  0.00    -0.379 A  
HETATM   14  C   UNL     1     -10.389   8.805  72.079  1.00  0.00    -0.411 A  
HETATM   15  C   UNL     1     -12.808   9.756  71.093  1.00  0.00    -0.434 A  
HETATM   16  C   UNL     1     -11.576   8.520  72.753  1.00  0.00    -0.137 A  
HETATM   17  C   UNL     1     -12.786   8.991  72.259  1.00  0.00    -0.457 A  
BRANCH  13  18
HETATM   18  C   UNL     1     -11.695  10.914  69.177  1.00  0.00    -0.326 C  
HETATM   19  O   UNL     1     -11.661  10.392  68.064  1.00  0.00    -0.392 OA 
BRANCH  18  20
HETATM   20  C   UNL     1     -11.897  12.417  69.316  1.00  0.00    -0.361 C  
BRANCH  20  21
HETATM   21  C   UNL     1     -10.775  13.216  68.661  1.00  0.00    -0.274 C  
BRANCH  21  22
HETATM   22  C   UNL     1     -11.073  13.554  67.219  1.00  0.00    -0.302 A  
HETATM   23  C   UNL     1     -12.388  13.809  66.804  1.00  0.00    -0.365 A  
HETATM   24  C   UNL     1     -12.659  14.145  65.477  1.00  0.00    -0.501 A  
HETATM   25  C   UNL     1     -11.622  14.224  64.551  1.00  0.00    -0.397 A  
HETATM   26  C   UNL     1     -10.313  13.960  64.950  1.00  0.00    -0.430 A  
HETATM   27  C   UNL     1     -10.039  13.622  66.277  1.00  0.00    -0.301 A  
ENDBRANCH  21  22
ENDBRANCH  20  21
ENDBRANCH  18  20
ENDBRANCH  13  18
ENDBRANCH  11  12
ENDBRANCH  10  11
ENDBRANCH   7  10
ENDBRANCH   6   7
ENDBRANCH   4   6
ENDBRANCH   3   4
ENDBRANCH   2   3
TORSDOF 11
ENDMDL
MODEL      195
REMARK 921   NORMALIZED FREE ENERGY PREDICTED BY IDOCK:   -4.59 KCAL/MOL
REMARK 922        TOTAL FREE ENERGY PREDICTED BY IDOCK:   -8.56 KCAL/MOL
REMARK 923 INTER-LIGAND FREE ENERGY PREDICTED BY IDOCK:   -7.95 KCAL/MOL
REMARK 924 INTRA-LIGAND FREE ENERGY PREDICTED BY IDOCK:   -0.62 KCAL/MOL
REMARK 927      BINDING AFFINITY PREDICTED BY RF-SCORE:    0.00 PKD
ROOT
HETATM    1  C   UNL     1      -6.074  16.815  69.509  1.00  0.00    -0.218 C  
HETATM    2  C   UNL     1      -7.232  15.834  69.618  1.00  0.00    -0.134 C  
ENDROOT
BRANCH   2   3
HETATM    3  C   UNL     1      -6.845  14.460  69.074  1.00  0.00    -0.111 C  
BRANCH   3   4
HETATM    4  N   UNL     1      -7.984  13.550  69.183  1.00  0.00    -0.322 NA 
HETATM    5  H   UNL     1      -8.837  14.039  69.454  1.00  0.00     0.000 HD 
BRANCH   4   6
HETATM    6  C   UNL     1      -8.156  12.799  67.931  1.00  0.00    -0.159 C  
BRANCH   6   7
HETATM    7  C   UNL     1      -7.793  11.316  68.122  1.00  0.00    -0.127 C  
HETATM    8  O   UNL     1      -8.336  10.819  69.354  1.00  0.00    -0.331 OA 
HETATM    9  H   UNL     1      -8.112   9.903  69.472  1.00  0.00     0.000 HD 
BRANCH   7  10
HETATM   10  C   UNL     1      -8.319  10.469  66.957  1.00  0.00    -0.128 C  
BRANCH  10  11
HETATM   11  O   UNL     1      -9.760  10.489  66.959  1.00  0.00    -0.170 OA 
BRANCH  11  12
HETATM   12  C   UNL     1     -10.329  11.533  66.276  1.00  0.00    -0.239 A  
HETATM   13  C   UNL     1     -11.352  12.286  66.889  1.00  0.00    -0.392 A  
HETATM   14  C   UNL     1      -9.964  11.828  64.954  1.00  0.00    -0.280 A  
HETATM   15  C   UNL     1     -11.935  13.354  66.185  1.00  0.00    -0.460 A  
HETATM   16  C   UNL     1     -10.565  12.879  64.262  1.00  0.00    -0.430 A  
HETATM   17  C   UNL     1     -11.546  13.645  64.877  1.00  0.00    -0.360 A  
BRANCH  13  18
HETATM   18  C   UNL     1     -11.821  12.000  68.285  1.00  0.00    -0.287 C  
HETATM   19  O   UNL     1     -12.322  10.913  68.562  1.00  0.00    -0.490 OA 
BRANCH  18  20
HETATM   20  C   UNL     1     -11.592  13.042  69.373  1.00  0.00    -0.360 C  
BRANCH  20  21
HETATM   21  C   UNL     1     -12.640  12.964  70.479  1.00  0.00    -0.204 C  
BRANCH  21  22
HETATM   22  C   UNL     1     -12.516  14.097  71.470  1.00  0.00    -0.423 A  
HETATM   23  C   UNL     1     -13.322  14.130  72.618  1.00  0.00    -0.638 A  
HETATM   24  C   UNL     1     -13.190  15.165  73.546  1.00  0.00    -0.351 A  
HETATM   25  C   UNL     1     -12.258  16.178  73.335  1.00  0.00    -0.635 A  
HETATM   26  C   UNL     1     -11.462  16.161  72.191  1.00  0.00    -0.292 A  
HETATM   27  C   UNL     1     -11.593  15.128  71.260  1.00  0.00    -0.406 A  
ENDBRANCH  21  22
ENDBRANCH  20  21
ENDBRANCH  18  20
ENDBRANCH  13  18
ENDBRANCH  11  12
ENDBRANCH  10  11
ENDBRANCH   7  10
ENDBRANCH   6   7
ENDBRANCH   4   6
ENDBRANCH   3   4
ENDBRANCH   2   3
TORSDOF 11
ENDMDL
MODEL      196
REMARK 921   NORMALIZED FREE ENERGY PREDICTED BY IDOCK:   -4.58 KCAL/MOL
REMARK 922        TOTAL FREE ENERGY PREDICTED BY IDOCK:   -8.54 KCAL/MOL
REMARK 923 INTER-LIGAND FREE ENERGY PREDICTED BY IDOCK:   -6.91 KCAL/MOL
REMARK 924 INTRA-LIGAND FREE ENERGY PREDICTED BY IDOCK:   -1.62 KCAL/MOL
REMARK 927      BINDING AFFINITY PREDICTED BY RF-SCORE:    0.00 PKD
ROOT
HETATM    1  C   UNL     1      -6.391  14.598  70.508  1.00  0.00    -0.109 C  
HETATM    2  C   UNL     1      -5.536  15.802  70.142  1.00  0.00    -0.150 C  
ENDROOT
BRANCH   2   3
HETATM    3  C   UNL     1      -6.348  16.843  69.372  1.00  0.00    -0.231 C  
BRANCH   3   4
HETATM    4  N   UNL     1      -7.677  16.310  69.079  1.00  0.00    -0.216 NA 
HETATM    5  H   UNL     1      -8.401  16.764  69.636  1.00  0.00     0.000 HD 
BRANCH   4   6
HETATM    6  C   UNL     1      -7.955  16.403  67.639  1.00  0.00    -0.149 C  
BRANCH   6   7
HETATM    7  C   UNL     1      -7.922  15.012  66.979  1.00  0.00    -0.162 C  
HETATM    8  O   UNL     1      -6.585  14.488  66.978  1.00  0.00    -0.317 OA 
HETATM    9  H   UNL     1      -6.565  13.630  66.571  1.00  0.00     0.000 HD 
BRANCH   7  10
HETATM   10  C   UNL     1      -8.850  14.036  67.712  1.00  0.00    -0.187 C  
BRANCH  10  11
HETATM   11  O   UNL     1     -10.193  14.557  67.712  1.00  0.00    -0.224 OA 
BRANCH  11  12
HETATM   12  C   UNL     1     -10.901  14.344  68.867  1.00  0.00    -0.256 A  
HETATM   13  C   UNL     1     -11.687  13.180  68.994  1.00  0.00    -0.367 A  
HETATM   14  C   UNL     1     -10.915  15.293  69.901  1.00  0.00    -0.303 A  
HETATM   15  C   UNL     1     -12.412  12.967  70.178  1.00  0.00    -0.166 A  
HETATM   16  C   UNL     1     -11.656  15.075  71.062  1.00  0.00    -0.367 A  
HETATM   17  C   UNL     1     -12.400  13.912  71.204  1.00  0.00    -0.440 A  
BRANCH  13  18
HETATM   18  C   UNL     1     -11.751  12.144  67.911  1.00  0.00    -0.336 C  
HETATM   19  O   UNL     1     -12.090  12.455  66.772  1.00  0.00    -0.578 OA 
BRANCH  18  20
HETATM   20  C   UNL     1     -11.311  10.719  68.221  1.00  0.00    -0.376 C  
BRANCH  20  21
HETATM   21  C   UNL     1      -9.876  10.653  68.735  1.00  0.00    -0.196 C  
BRANCH  21  22
HETATM   22  C   UNL     1      -9.743   9.788  69.966  1.00  0.00    -0.292 A  
HETATM   23  C   UNL     1      -8.477   9.434  70.456  1.00  0.00    -0.251 A  
HETATM   24  C   UNL     1      -8.356   8.655  71.607  1.00  0.00    -0.216 A  
HETATM   25  C   UNL     1      -9.496   8.217  72.278  1.00  0.00    -0.312 A  
HETATM   26  C   UNL     1     -10.758   8.552  71.792  1.00  0.00    -0.373 A  
HETATM   27  C   UNL     1     -10.883   9.330  70.639  1.00  0.00    -0.339 A  
ENDBRANCH  21  22
ENDBRANCH  20  21
ENDBRANCH  18  20
ENDBRANCH  13  18
ENDBRANCH  11  12
ENDBRANCH  10  11
ENDBRANCH   7  10
ENDBRANCH   6   7
ENDBRANCH   4   6
ENDBRANCH   3   4
ENDBRANCH   2   3
TORSDOF 11
ENDMDL
MODEL      197
REMARK 921   NORMALIZED FREE ENERGY PREDICTED BY IDOCK:   -4.58 KCAL/MOL
REMARK 922        TOTAL FREE ENERGY PREDICTED BY IDOCK:   -8.53 KCAL/MOL
REMARK 923 INTER-LIGAND FREE ENERGY PREDICTED BY IDOCK:   -7.25 KCAL/MOL
REMARK 924 INTRA-LIGAND FREE ENERGY PREDICTED BY IDOCK:   -1.28 KCAL/MOL
REMARK 927      BINDING AFFINITY PREDICTED BY RF-SCORE:    0.00 PKD
ROOT
HETATM    1  C   UNL     1      -9.032  16.284  66.114  1.00  0.00    -0.374 C  
HETATM    2  C   UNL     1      -9.615  14.893  66.307  1.00  0.00    -0.334 C  
ENDROOT
BRANCH   2   3
HETATM    3  C   UNL     1     -10.672  14.584  65.247  1.00  0.00    -0.376 C  
BRANCH   3   4
HETATM    4  N   UNL     1     -11.814  13.918  65.872  1.00  0.00    -0.363 NA 
HETATM    5  H   UNL     1     -12.692  14.397  65.669  1.00  0.00     0.000 HD 
BRANCH   4   6
HETATM    6  C   UNL     1     -11.857  12.504  65.475  1.00  0.00    -0.439 C  
BRANCH   6   7
HETATM    7  C   UNL     1     -11.362  11.595  66.614  1.00  0.00    -0.270 C  
HETATM    8  O   UNL     1      -9.951  11.357  66.492  1.00  0.00    -0.202 OA 
HETATM    9  H   UNL     1      -9.647  10.796  67.195  1.00  0.00     0.000 HD 
BRANCH   7  10
HETATM   10  C   UNL     1     -11.654  12.223  67.982  1.00  0.00    -0.349 C  
BRANCH  10  11
HETATM   11  O   UNL     1     -10.775  11.654  68.971  1.00  0.00    -0.209 OA 
BRANCH  11  12
HETATM   12  C   UNL     1     -11.395  10.917  69.947  1.00  0.00    -0.305 A  
HETATM   13  C   UNL     1     -11.071   9.553  70.096  1.00  0.00    -0.294 A  
HETATM   14  C   UNL     1     -12.396  11.473  70.759  1.00  0.00    -0.472 A  
HETATM   15  C   UNL     1     -11.711   8.801  71.096  1.00  0.00    -0.344 A  
HETATM   16  C   UNL     1     -13.035  10.708  71.734  1.00  0.00    -0.577 A  
HETATM   17  C   UNL     1     -12.690   9.375  71.907  1.00  0.00    -0.484 A  
BRANCH  13  18
HETATM   18  C   UNL     1     -10.041   8.883  69.236  1.00  0.00    -0.203 C  
HETATM   19  O   UNL     1      -8.855   9.189  69.336  1.00  0.00    -0.137 OA 
BRANCH  18  20
HETATM   20  C   UNL     1     -10.471   7.763  68.298  1.00  0.00    -0.215 C  
BRANCH  20  21
HETATM   21  C   UNL     1      -9.325   6.813  67.965  1.00  0.00    -0.118 C  
BRANCH  21  22
HETATM   22  C   UNL     1      -9.453   5.484  68.672  1.00  0.00    -0.160 A  
HETATM   23  C   UNL     1      -9.387   4.284  67.949  1.00  0.00    -0.200 A  
HETATM   24  C   UNL     1      -9.482   3.056  68.606  1.00  0.00    -0.194 A  
HETATM   25  C   UNL     1      -9.648   3.015  69.989  1.00  0.00    -0.143 A  
HETATM   26  C   UNL     1      -9.728   4.202  70.714  1.00  0.00    -0.266 A  
HETATM   27  C   UNL     1      -9.635   5.432  70.059  1.00  0.00    -0.227 A  
ENDBRANCH  21  22
ENDBRANCH  20  21
ENDBRANCH  18  20
ENDBRANCH  13  18
ENDBRANCH  11  12
ENDBRANCH  10  11
ENDBRANCH   7  10
ENDBRANCH   6   7
ENDBRANCH   4   6
ENDBRANCH   3   4
ENDBRANCH   2   3
TORSDOF 11
ENDMDL
MODEL      198
REMARK 921   NORMALIZED FREE ENERGY PREDICTED BY IDOCK:   -4.56 KCAL/MOL
REMARK 922        TOTAL FREE ENERGY PREDICTED BY IDOCK:   -8.51 KCAL/MOL
REMARK 923 INTER-LIGAND FREE ENERGY PREDICTED BY IDOCK:   -6.61 KCAL/MOL
REMARK 924 INTRA-LIGAND FREE ENERGY PREDICTED BY IDOCK:   -1.90 KCAL/MOL
REMARK 927      BINDING AFFINITY PREDICTED BY RF-SCORE:    0.00 PKD
ROOT
HETATM    1  C   UNL     1     -11.253   6.301  72.222  1.00  0.00    -0.325 C  
HETATM    2  C   UNL     1     -11.469   7.027  70.904  1.00  0.00    -0.349 C  
ENDROOT
BRANCH   2   3
HETATM    3  C   UNL     1     -11.105   8.507  71.022  1.00  0.00    -0.260 C  
BRANCH   3   4
HETATM    4  N   UNL     1     -11.957   9.144  72.024  1.00  0.00    -0.367 NA 
HETATM    5  H   UNL     1     -11.553   9.087  72.959  1.00  0.00     0.000 HD 
BRANCH   4   6
HETATM    6  C   UNL     1     -12.249  10.531  71.636  1.00  0.00    -0.195 C  
BRANCH   6   7
HETATM    7  C   UNL     1     -12.110  10.719  70.114  1.00  0.00    -0.346 C  
HETATM    8  O   UNL     1     -13.384  10.564  69.470  1.00  0.00    -0.309 OA 
HETATM    9  H   UNL     1     -13.298  10.681  68.531  1.00  0.00     0.000 HD 
BRANCH   7  10
HETATM   10  C   UNL     1     -11.539  12.104  69.784  1.00  0.00    -0.262 C  
BRANCH  10  11
HETATM   11  O   UNL     1     -10.488  11.970  68.808  1.00  0.00    -0.222 OA 
BRANCH  11  12
HETATM   12  C   UNL     1     -10.783  12.463  67.563  1.00  0.00    -0.228 A  
HETATM   13  C   UNL     1      -9.749  12.619  66.617  1.00  0.00    -0.249 A  
HETATM   14  C   UNL     1     -12.081  12.878  67.230  1.00  0.00    -0.275 A  
HETATM   15  C   UNL     1     -10.056  13.126  65.342  1.00  0.00    -0.260 A  
HETATM   16  C   UNL     1     -12.366  13.397  65.967  1.00  0.00    -0.471 A  
HETATM   17  C   UNL     1     -11.356  13.517  65.022  1.00  0.00    -0.334 A  
BRANCH  13  18
HETATM   18  C   UNL     1      -8.332  12.235  66.919  1.00  0.00    -0.137 C  
HETATM   19  O   UNL     1      -7.805  11.293  66.332  1.00  0.00    -0.158 OA 
BRANCH  18  20
HETATM   20  C   UNL     1      -7.527  13.076  67.902  1.00  0.00    -0.137 C  
BRANCH  20  21
HETATM   21  C   UNL     1      -7.460  14.543  67.489  1.00  0.00    -0.216 C  
BRANCH  21  22
HETATM   22  C   UNL     1      -8.688  15.316  67.906  1.00  0.00    -0.164 A  
HETATM   23  C   UNL     1      -9.339  16.163  66.998  1.00  0.00    -0.232 A  
HETATM   24  C   UNL     1     -10.489  16.859  67.377  1.00  0.00    -0.310 A  
HETATM   25  C   UNL     1     -10.995  16.721  68.668  1.00  0.00    -0.298 A  
HETATM   26  C   UNL     1     -10.347  15.892  69.582  1.00  0.00    -0.299 A  
HETATM   27  C   UNL     1      -9.196  15.196  69.206  1.00  0.00    -0.205 A  
ENDBRANCH  21  22
ENDBRANCH  20  21
ENDBRANCH  18  20
ENDBRANCH  13  18
ENDBRANCH  11  12
ENDBRANCH  10  11
ENDBRANCH   7  10
ENDBRANCH   6   7
ENDBRANCH   4   6
ENDBRANCH   3   4
ENDBRANCH   2   3
TORSDOF 11
ENDMDL
MODEL      199
REMARK 921   NORMALIZED FREE ENERGY PREDICTED BY IDOCK:   -4.56 KCAL/MOL
REMARK 922        TOTAL FREE ENERGY PREDICTED BY IDOCK:   -8.50 KCAL/MOL
REMARK 923 INTER-LIGAND FREE ENERGY PREDICTED BY IDOCK:   -6.66 KCAL/MOL
REMARK 924 INTRA-LIGAND FREE ENERGY PREDICTED BY IDOCK:   -1.84 KCAL/MOL
REMARK 927      BINDING AFFINITY PREDICTED BY RF-SCORE:    0.00 PKD
ROOT
HETATM    1  C   UNL     1     -12.205  14.699  64.379  1.00  0.00    -0.473 C  
HETATM    2  C   UNL     1     -10.971  15.392  64.935  1.00  0.00    -0.453 C  
ENDROOT
BRANCH   2   3
HETATM    3  C   UNL     1     -10.032  14.392  65.610  1.00  0.00    -0.337 C  
BRANCH   3   4
HETATM    4  N   UNL     1     -10.146  13.091  64.954  1.00  0.00    -0.499 NA 
HETATM    5  H   UNL     1      -9.592  13.045  64.099  1.00  0.00     0.000 HD 
BRANCH   4   6
HETATM    6  C   UNL     1      -9.796  12.016  65.893  1.00  0.00    -0.238 C  
BRANCH   6   7
HETATM    7  C   UNL     1     -10.905  11.814  66.941  1.00  0.00    -0.271 C  
HETATM    8  O   UNL     1     -12.197  12.037  66.355  1.00  0.00    -0.551 OA 
HETATM    9  H   UNL     1     -12.882  11.913  67.002  1.00  0.00     0.000 HD 
BRANCH   7  10
HETATM   10  C   UNL     1     -10.851  10.400  67.530  1.00  0.00    -0.301 C  
BRANCH  10  11
HETATM   11  O   UNL     1      -9.601   9.778  67.174  1.00  0.00    -0.159 OA 
BRANCH  11  12
HETATM   12  C   UNL     1      -8.832   9.368  68.233  1.00  0.00    -0.128 A  
HETATM   13  C   UNL     1      -8.481   8.007  68.348  1.00  0.00    -0.127 A  
HETATM   14  C   UNL     1      -8.442  10.261  69.242  1.00  0.00    -0.172 A  
HETATM   15  C   UNL     1      -7.694   7.591  69.436  1.00  0.00    -0.111 A  
HETATM   16  C   UNL     1      -7.678   9.829  70.325  1.00  0.00    -0.187 A  
HETATM   17  C   UNL     1      -7.299   8.497  70.421  1.00  0.00    -0.054 A  
BRANCH  13  18
HETATM   18  C   UNL     1      -8.898   6.990  67.328  1.00  0.00    -0.119 C  
HETATM   19  O   UNL     1      -8.436   7.026  66.190  1.00  0.00    -0.123 OA 
BRANCH  18  20
HETATM   20  C   UNL     1      -9.837   5.864  67.742  1.00  0.00    -0.138 C  
BRANCH  20  21
HETATM   21  C   UNL     1     -11.129   6.386  68.363  1.00  0.00    -0.374 C  
BRANCH  21  22
HETATM   22  C   UNL     1     -11.037   6.510  69.866  1.00  0.00    -0.430 A  
HETATM   23  C   UNL     1     -10.569   5.440  70.643  1.00  0.00    -0.302 A  
HETATM   24  C   UNL     1     -10.462   5.565  72.029  1.00  0.00    -0.277 A  
HETATM   25  C   UNL     1     -10.827   6.756  72.653  1.00  0.00    -0.282 A  
HETATM   26  C   UNL     1     -11.306   7.820  71.891  1.00  0.00    -0.315 A  
HETATM   27  C   UNL     1     -11.415   7.698  70.505  1.00  0.00    -0.236 A  
ENDBRANCH  21  22
ENDBRANCH  20  21
ENDBRANCH  18  20
ENDBRANCH  13  18
ENDBRANCH  11  12
ENDBRANCH  10  11
ENDBRANCH   7  10
ENDBRANCH   6   7
ENDBRANCH   4   6
ENDBRANCH   3   4
ENDBRANCH   2   3
TORSDOF 11
ENDMDL
MODEL      200
REMARK 921   NORMALIZED FREE ENERGY PREDICTED BY IDOCK:   -4.53 KCAL/MOL
REMARK 922        TOTAL FREE ENERGY PREDICTED BY IDOCK:   -8.47 KCAL/MOL
REMARK 923 INTER-LIGAND FREE ENERGY PREDICTED BY IDOCK:   -7.73 KCAL/MOL
REMARK 924 INTRA-LIGAND FREE ENERGY PREDICTED BY IDOCK:   -0.73 KCAL/MOL
REMARK 927      BINDING AFFINITY PREDICTED BY RF-SCORE:    0.00 PKD
ROOT
HETATM    1  C   UNL     1      -5.853  11.524  66.945  1.00  0.00    -0.132 C  
HETATM    2  C   UNL     1      -6.689  11.320  68.199  1.00  0.00    -0.058 C  
ENDROOT
BRANCH   2   3
HETATM    3  C   UNL     1      -6.226  12.240  69.328  1.00  0.00    -0.098 C  
BRANCH   3   4
HETATM    4  N   UNL     1      -5.567  13.416  68.764  1.00  0.00    -0.072 NA 
HETATM    5  H   UNL     1      -5.681  13.468  67.751  1.00  0.00     0.000 HD 
BRANCH   4   6
HETATM    6  C   UNL     1      -6.044  14.635  69.432  1.00  0.00    -0.109 C  
BRANCH   6   7
HETATM    7  C   UNL     1      -7.395  15.091  68.851  1.00  0.00    -0.139 C  
HETATM    8  O   UNL     1      -8.438  14.946  69.828  1.00  0.00    -0.442 OA 
HETATM    9  H   UNL     1      -9.271  15.228  69.469  1.00  0.00     0.000 HD 
BRANCH   7  10
HETATM   10  C   UNL     1      -7.328  16.553  68.393  1.00  0.00    -0.179 C  
BRANCH  10  11
HETATM   11  O   UNL     1      -8.165  16.733  67.234  1.00  0.00    -0.168 OA 
BRANCH  11  12
HETATM   12  C   UNL     1      -8.822  17.935  67.172  1.00  0.00    -0.247 A  
HETATM   13  C   UNL     1      -9.972  18.054  66.364  1.00  0.00    -0.362 A  
HETATM   14  C   UNL     1      -8.338  19.069  67.840  1.00  0.00    -0.320 A  
HETATM   15  C   UNL     1     -10.642  19.288  66.301  1.00  0.00    -0.545 A  
HETATM   16  C   UNL     1      -9.003  20.292  67.752  1.00  0.00    -0.339 A  
HETATM   17  C   UNL     1     -10.157  20.401  66.988  1.00  0.00    -0.507 A  
BRANCH  13  18
HETATM   18  C   UNL     1     -10.522  16.894  65.589  1.00  0.00    -0.238 C  
HETATM   19  O   UNL     1     -11.162  17.083  64.558  1.00  0.00    -1.091 OA 
BRANCH  18  20
HETATM   20  C   UNL     1     -10.207  15.477  66.051  1.00  0.00    -0.349 C  
BRANCH  20  21
HETATM   21  C   UNL     1     -11.200  14.973  67.095  1.00  0.00    -0.336 C  
BRANCH  21  22
HETATM   22  C   UNL     1     -11.146  13.474  67.266  1.00  0.00    -0.302 A  
HETATM   23  C   UNL     1     -10.501  12.670  66.314  1.00  0.00    -0.270 A  
HETATM   24  C   UNL     1     -10.431  11.287  66.486  1.00  0.00    -0.299 A  
HETATM   25  C   UNL     1     -11.009  10.692  67.606  1.00  0.00    -0.370 A  
HETATM   26  C   UNL     1     -11.663  11.480  68.550  1.00  0.00    -0.379 A  
HETATM   27  C   UNL     1     -11.736  12.864  68.380  1.00  0.00    -0.382 A  
ENDBRANCH  21  22
ENDBRANCH  20  21
ENDBRANCH  18  20
ENDBRANCH  13  18
ENDBRANCH  11  12
ENDBRANCH  10  11
ENDBRANCH   7  10
ENDBRANCH   6   7
ENDBRANCH   4   6
ENDBRANCH   3   4
ENDBRANCH   2   3
TORSDOF 11
ENDMDL
MODEL      201
REMARK 921   NORMALIZED FREE ENERGY PREDICTED BY IDOCK:   -4.53 KCAL/MOL
REMARK 922        TOTAL FREE ENERGY PREDICTED BY IDOCK:   -8.46 KCAL/MOL
REMARK 923 INTER-LIGAND FREE ENERGY PREDICTED BY IDOCK:   -7.26 KCAL/MOL
REMARK 924 INTRA-LIGAND FREE ENERGY PREDICTED BY IDOCK:   -1.20 KCAL/MOL
REMARK 927      BINDING AFFINITY PREDICTED BY RF-SCORE:    0.00 PKD
ROOT
HETATM    1  C   UNL     1      -9.967   5.549  67.908  1.00  0.00    -0.185 C  
HETATM    2  C   UNL     1     -10.917   6.421  67.100  1.00  0.00    -0.476 C  
ENDROOT
BRANCH   2   3
HETATM    3  C   UNL     1     -10.436   7.871  67.059  1.00  0.00    -0.349 C  
BRANCH   3   4
HETATM    4  N   UNL     1     -11.019   8.613  68.175  1.00  0.00    -0.460 NA 
HETATM    5  H   UNL     1     -11.762   8.087  68.636  1.00  0.00     0.000 HD 
BRANCH   4   6
HETATM    6  C   UNL     1      -9.969   9.018  69.120  1.00  0.00    -0.185 C  
BRANCH   6   7
HETATM    7  C   UNL     1      -9.751  10.542  69.083  1.00  0.00    -0.211 C  
HETATM    8  O   UNL     1      -8.410  10.849  68.672  1.00  0.00    -0.133 OA 
HETATM    9  H   UNL     1      -8.276  11.789  68.649  1.00  0.00     0.000 HD 
BRANCH   7  10
HETATM   10  C   UNL     1     -10.743  11.214  68.126  1.00  0.00    -0.204 C  
BRANCH  10  11
HETATM   11  O   UNL     1     -10.038  12.137  67.273  1.00  0.00    -0.201 OA 
BRANCH  11  12
HETATM   12  C   UNL     1     -10.564  12.284  66.015  1.00  0.00    -0.254 A  
HETATM   13  C   UNL     1     -11.327  13.431  65.713  1.00  0.00    -0.322 A  
HETATM   14  C   UNL     1     -10.415  11.287  65.039  1.00  0.00    -0.359 A  
HETATM   15  C   UNL     1     -11.865  13.577  64.423  1.00  0.00    -0.455 A  
HETATM   16  C   UNL     1     -10.972  11.438  63.769  1.00  0.00    -0.448 A  
HETATM   17  C   UNL     1     -11.692  12.584  63.459  1.00  0.00    -0.595 A  
BRANCH  13  18
HETATM   18  C   UNL     1     -11.560  14.517  66.720  1.00  0.00    -0.376 C  
HETATM   19  O   UNL     1     -12.285  14.318  67.692  1.00  0.00    -0.337 OA 
BRANCH  18  20
HETATM   20  C   UNL     1     -10.823  15.842  66.567  1.00  0.00    -0.230 C  
BRANCH  20  21
HETATM   21  C   UNL     1      -9.437  15.667  65.956  1.00  0.00    -0.390 C  
BRANCH  21  22
HETATM   22  C   UNL     1      -8.339  15.714  66.991  1.00  0.00    -0.261 A  
HETATM   23  C   UNL     1      -8.469  15.015  68.200  1.00  0.00    -0.151 A  
HETATM   24  C   UNL     1      -7.443  15.040  69.147  1.00  0.00    -0.169 A  
HETATM   25  C   UNL     1      -6.281  15.767  68.898  1.00  0.00    -0.114 A  
HETATM   26  C   UNL     1      -6.148  16.476  67.706  1.00  0.00    -0.153 A  
HETATM   27  C   UNL     1      -7.173  16.454  66.758  1.00  0.00    -0.245 A  
ENDBRANCH  21  22
ENDBRANCH  20  21
ENDBRANCH  18  20
ENDBRANCH  13  18
ENDBRANCH  11  12
ENDBRANCH  10  11
ENDBRANCH   7  10
ENDBRANCH   6   7
ENDBRANCH   4   6
ENDBRANCH   3   4
ENDBRANCH   2   3
TORSDOF 11
ENDMDL
MODEL      202
REMARK 921   NORMALIZED FREE ENERGY PREDICTED BY IDOCK:   -4.53 KCAL/MOL
REMARK 922        TOTAL FREE ENERGY PREDICTED BY IDOCK:   -8.46 KCAL/MOL
REMARK 923 INTER-LIGAND FREE ENERGY PREDICTED BY IDOCK:   -6.56 KCAL/MOL
REMARK 924 INTRA-LIGAND FREE ENERGY PREDICTED BY IDOCK:   -1.90 KCAL/MOL
REMARK 927      BINDING AFFINITY PREDICTED BY RF-SCORE:    0.00 PKD
ROOT
HETATM    1  C   UNL     1      -9.009  16.324  66.085  1.00  0.00    -0.374 C  
HETATM    2  C   UNL     1      -9.679  14.966  66.227  1.00  0.00    -0.320 C  
ENDROOT
BRANCH   2   3
HETATM    3  C   UNL     1     -10.746  14.761  65.152  1.00  0.00    -0.415 C  
BRANCH   3   4
HETATM    4  N   UNL     1     -11.956  14.210  65.760  1.00  0.00    -0.385 NA 
HETATM    5  H   UNL     1     -12.783  14.761  65.529  1.00  0.00     0.000 HD 
BRANCH   4   6
HETATM    6  C   UNL     1     -12.116  12.798  65.385  1.00  0.00    -0.462 C  
BRANCH   6   7
HETATM    7  C   UNL     1     -11.706  11.869  66.542  1.00  0.00    -0.170 C  
HETATM    8  O   UNL     1     -10.329  11.483  66.415  1.00  0.00    -0.223 OA 
HETATM    9  H   UNL     1     -10.077  10.910  67.129  1.00  0.00     0.000 HD 
BRANCH   7  10
HETATM   10  C   UNL     1     -11.918  12.556  67.897  1.00  0.00    -0.223 C  
BRANCH  10  11
HETATM   11  O   UNL     1     -10.996  12.014  68.861  1.00  0.00    -0.221 OA 
BRANCH  11  12
HETATM   12  C   UNL     1     -11.566  11.257  69.852  1.00  0.00    -0.334 A  
HETATM   13  C   UNL     1     -11.225   9.893  69.966  1.00  0.00    -0.327 A  
HETATM   14  C   UNL     1     -12.536  11.791  70.715  1.00  0.00    -0.405 A  
HETATM   15  C   UNL     1     -11.813   9.120  70.982  1.00  0.00    -0.354 A  
HETATM   16  C   UNL     1     -13.125  11.006  71.705  1.00  0.00    -0.543 A  
HETATM   17  C   UNL     1     -12.761   9.673  71.843  1.00  0.00    -0.499 A  
BRANCH  13  18
HETATM   18  C   UNL     1     -10.227   9.246  69.052  1.00  0.00    -0.206 C  
HETATM   19  O   UNL     1     -10.570   8.842  67.944  1.00  0.00    -0.230 OA 
BRANCH  18  20
HETATM   20  C   UNL     1      -8.767   9.169  69.481  1.00  0.00    -0.140 C  
BRANCH  20  21
HETATM   21  C   UNL     1      -7.814   9.144  68.291  1.00  0.00    -0.102 C  
BRANCH  21  22
HETATM   22  C   UNL     1      -7.136  10.475  68.068  1.00  0.00    -0.086 A  
HETATM   23  C   UNL     1      -5.998  10.568  67.252  1.00  0.00    -0.053 A  
HETATM   24  C   UNL     1      -5.386  11.802  67.027  1.00  0.00    -0.122 A  
HETATM   25  C   UNL     1      -5.901  12.954  67.617  1.00  0.00    -0.136 A  
HETATM   26  C   UNL     1      -7.023  12.871  68.440  1.00  0.00    -0.096 A  
HETATM   27  C   UNL     1      -7.636  11.637  68.668  1.00  0.00    -0.133 A  
ENDBRANCH  21  22
ENDBRANCH  20  21
ENDBRANCH  18  20
ENDBRANCH  13  18
ENDBRANCH  11  12
ENDBRANCH  10  11
ENDBRANCH   7  10
ENDBRANCH   6   7
ENDBRANCH   4   6
ENDBRANCH   3   4
ENDBRANCH   2   3
TORSDOF 11
ENDMDL
MODEL      203
REMARK 921   NORMALIZED FREE ENERGY PREDICTED BY IDOCK:   -4.53 KCAL/MOL
REMARK 922        TOTAL FREE ENERGY PREDICTED BY IDOCK:   -8.46 KCAL/MOL
REMARK 923 INTER-LIGAND FREE ENERGY PREDICTED BY IDOCK:   -7.02 KCAL/MOL
REMARK 924 INTRA-LIGAND FREE ENERGY PREDICTED BY IDOCK:   -1.44 KCAL/MOL
REMARK 927      BINDING AFFINITY PREDICTED BY RF-SCORE:    0.00 PKD
ROOT
HETATM    1  C   UNL     1     -12.023  13.264  64.002  1.00  0.00    -0.525 C  
HETATM    2  C   UNL     1     -12.539  13.378  65.428  1.00  0.00    -0.528 C  
ENDROOT
BRANCH   2   3
HETATM    3  C   UNL     1     -11.738  12.489  66.378  1.00  0.00    -0.397 C  
BRANCH   3   4
HETATM    4  N   UNL     1     -11.903  12.963  67.751  1.00  0.00    -0.354 NA 
HETATM    5  H   UNL     1     -12.846  12.791  68.102  1.00  0.00     0.000 HD 
BRANCH   4   6
HETATM    6  C   UNL     1     -10.878  12.370  68.621  1.00  0.00    -0.240 C  
BRANCH   6   7
HETATM    7  C   UNL     1     -11.479  11.941  69.971  1.00  0.00    -0.130 C  
HETATM    8  O   UNL     1     -12.400  12.933  70.450  1.00  0.00    -0.323 OA 
HETATM    9  H   UNL     1     -12.771  12.667  71.284  1.00  0.00     0.000 HD 
BRANCH   7  10
HETATM   10  C   UNL     1     -12.203  10.595  69.845  1.00  0.00    -0.275 C  
BRANCH  10  11
HETATM   11  O   UNL     1     -11.352   9.542  70.340  1.00  0.00    -0.251 OA 
BRANCH  11  12
HETATM   12  C   UNL     1     -11.109   8.524  69.455  1.00  0.00     0.103 A  
HETATM   13  C   UNL     1     -11.385   7.194  69.836  1.00  0.00    -0.199 A  
HETATM   14  C   UNL     1     -10.529   8.768  68.201  1.00  0.00    -0.243 A  
HETATM   15  C   UNL     1     -11.133   6.153  68.926  1.00  0.00    -0.417 A  
HETATM   16  C   UNL     1     -10.267   7.721  67.317  1.00  0.00    -0.343 A  
HETATM   17  C   UNL     1     -10.573   6.416  67.676  1.00  0.00    -0.340 A  
BRANCH  13  18
HETATM   18  C   UNL     1     -11.968   6.857  71.176  1.00  0.00    -0.366 C  
HETATM   19  O   UNL     1     -13.186   6.817  71.331  1.00  0.00    -0.261 OA 
BRANCH  18  20
HETATM   20  C   UNL     1     -11.033   6.486  72.320  1.00  0.00    -0.281 C  
BRANCH  20  21
HETATM   21  C   UNL     1     -10.624   7.697  73.151  1.00  0.00    -0.438 C  
BRANCH  21  22
HETATM   22  C   UNL     1      -9.129   7.913  73.158  1.00  0.00    -0.322 A  
HETATM   23  C   UNL     1      -8.456   8.281  71.983  1.00  0.00    -0.227 A  
HETATM   24  C   UNL     1      -7.078   8.503  71.997  1.00  0.00    -0.104 A  
HETATM   25  C   UNL     1      -6.358   8.356  73.180  1.00  0.00    -0.113 A  
HETATM   26  C   UNL     1      -7.015   7.977  74.349  1.00  0.00    -0.170 A  
HETATM   27  C   UNL     1      -8.393   7.753  74.339  1.00  0.00    -0.273 A  
ENDBRANCH  21  22
ENDBRANCH  20  21
ENDBRANCH  18  20
ENDBRANCH  13  18
ENDBRANCH  11  12
ENDBRANCH  10  11
ENDBRANCH   7  10
ENDBRANCH   6   7
ENDBRANCH   4   6
ENDBRANCH   3   4
ENDBRANCH   2   3
TORSDOF 11
ENDMDL
MODEL      204
REMARK 921   NORMALIZED FREE ENERGY PREDICTED BY IDOCK:   -4.52 KCAL/MOL
REMARK 922        TOTAL FREE ENERGY PREDICTED BY IDOCK:   -8.45 KCAL/MOL
REMARK 923 INTER-LIGAND FREE ENERGY PREDICTED BY IDOCK:   -7.34 KCAL/MOL
REMARK 924 INTRA-LIGAND FREE ENERGY PREDICTED BY IDOCK:   -1.11 KCAL/MOL
REMARK 927      BINDING AFFINITY PREDICTED BY RF-SCORE:    0.00 PKD
ROOT
HETATM    1  C   UNL     1      -5.720  12.910  69.104  1.00  0.00    -0.076 C  
HETATM    2  C   UNL     1      -6.479  12.322  67.925  1.00  0.00    -0.088 C  
ENDROOT
BRANCH   2   3
HETATM    3  C   UNL     1      -7.187  11.025  68.313  1.00  0.00    -0.085 C  
BRANCH   3   4
HETATM    4  N   UNL     1      -8.233  11.311  69.293  1.00  0.00    -0.378 NA 
HETATM    5  H   UNL     1      -7.860  11.766  70.127  1.00  0.00     0.000 HD 
BRANCH   4   6
HETATM    6  C   UNL     1      -9.309  12.096  68.674  1.00  0.00    -0.025 C  
BRANCH   6   7
HETATM    7  C   UNL     1     -10.679  11.429  68.896  1.00  0.00    -0.210 C  
HETATM    8  O   UNL     1     -10.942  11.275  70.299  1.00  0.00    -0.447 OA 
HETATM    9  H   UNL     1     -11.787  10.863  70.435  1.00  0.00     0.000 HD 
BRANCH   7  10
HETATM   10  C   UNL     1     -11.800  12.256  68.256  1.00  0.00    -0.310 C  
BRANCH  10  11
HETATM   11  O   UNL     1     -11.378  13.628  68.135  1.00  0.00    -0.258 OA 
BRANCH  11  12
HETATM   12  C   UNL     1     -11.454  14.152  66.870  1.00  0.00    -0.357 A  
HETATM   13  C   UNL     1     -10.716  15.311  66.555  1.00  0.00    -0.311 A  
HETATM   14  C   UNL     1     -12.302  13.599  65.899  1.00  0.00    -0.516 A  
HETATM   15  C   UNL     1     -10.798  15.846  65.258  1.00  0.00    -0.401 A  
HETATM   16  C   UNL     1     -12.387  14.153  64.622  1.00  0.00    -0.432 A  
HETATM   17  C   UNL     1     -11.632  15.272  64.299  1.00  0.00    -0.204 A  
BRANCH  13  18
HETATM   18  C   UNL     1      -9.821  15.979  67.557  1.00  0.00    -0.235 C  
HETATM   19  O   UNL     1      -8.650  15.626  67.676  1.00  0.00    -0.162 OA 
BRANCH  18  20
HETATM   20  C   UNL     1     -10.357  17.153  68.365  1.00  0.00    -0.362 C  
BRANCH  20  21
HETATM   21  C   UNL     1     -10.287  18.468  67.595  1.00  0.00    -0.442 C  
BRANCH  21  22
HETATM   22  C   UNL     1      -8.931  19.126  67.698  1.00  0.00    -0.337 A  
HETATM   23  C   UNL     1      -8.082  18.843  68.778  1.00  0.00    -0.354 A  
HETATM   24  C   UNL     1      -6.820  19.434  68.860  1.00  0.00    -0.370 A  
HETATM   25  C   UNL     1      -6.395  20.315  67.868  1.00  0.00    -0.283 A  
HETATM   26  C   UNL     1      -7.237  20.612  66.798  1.00  0.00    -0.315 A  
HETATM   27  C   UNL     1      -8.501  20.024  66.714  1.00  0.00    -0.380 A  
ENDBRANCH  21  22
ENDBRANCH  20  21
ENDBRANCH  18  20
ENDBRANCH  13  18
ENDBRANCH  11  12
ENDBRANCH  10  11
ENDBRANCH   7  10
ENDBRANCH   6   7
ENDBRANCH   4   6
ENDBRANCH   3   4
ENDBRANCH   2   3
TORSDOF 11
ENDMDL
MODEL      205
REMARK 921   NORMALIZED FREE ENERGY PREDICTED BY IDOCK:   -4.51 KCAL/MOL
REMARK 922        TOTAL FREE ENERGY PREDICTED BY IDOCK:   -8.43 KCAL/MOL
REMARK 923 INTER-LIGAND FREE ENERGY PREDICTED BY IDOCK:   -7.08 KCAL/MOL
REMARK 924 INTRA-LIGAND FREE ENERGY PREDICTED BY IDOCK:   -1.35 KCAL/MOL
REMARK 927      BINDING AFFINITY PREDICTED BY RF-SCORE:    0.00 PKD
ROOT
HETATM    1  C   UNL     1     -12.255  14.588  64.298  1.00  0.00    -0.441 C  
HETATM    2  C   UNL     1     -12.813  13.867  65.516  1.00  0.00    -0.471 C  
ENDROOT
BRANCH   2   3
HETATM    3  C   UNL     1     -11.795  12.884  66.092  1.00  0.00    -0.429 C  
BRANCH   3   4
HETATM    4  N   UNL     1     -12.088  12.644  67.503  1.00  0.00    -0.416 NA 
HETATM    5  H   UNL     1     -12.903  12.043  67.627  1.00  0.00     0.000 HD 
BRANCH   4   6
HETATM    6  C   UNL     1     -10.902  12.105  68.184  1.00  0.00    -0.222 C  
BRANCH   6   7
HETATM    7  C   UNL     1     -11.161  10.678  68.698  1.00  0.00    -0.278 C  
HETATM    8  O   UNL     1     -12.519  10.542  69.143  1.00  0.00    -0.750 OA 
HETATM    9  H   UNL     1     -12.678   9.660  69.461  1.00  0.00     0.000 HD 
BRANCH   7  10
HETATM   10  C   UNL     1     -10.879   9.642  67.603  1.00  0.00    -0.212 C  
BRANCH  10  11
HETATM   11  O   UNL     1      -9.588   9.044  67.827  1.00  0.00    -0.145 OA 
BRANCH  11  12
HETATM   12  C   UNL     1      -8.986   8.521  66.711  1.00  0.00    -0.146 A  
HETATM   13  C   UNL     1      -9.106   7.141  66.443  1.00  0.00    -0.189 A  
HETATM   14  C   UNL     1      -8.197   9.315  65.866  1.00  0.00    -0.116 A  
HETATM   15  C   UNL     1      -8.486   6.609  65.299  1.00  0.00    -0.078 A  
HETATM   16  C   UNL     1      -7.573   8.767  64.745  1.00  0.00    -0.107 A  
HETATM   17  C   UNL     1      -7.721   7.416  64.458  1.00  0.00    -0.126 A  
BRANCH  13  18
HETATM   18  C   UNL     1      -9.900   6.226  67.327  1.00  0.00    -0.137 C  
HETATM   19  O   UNL     1     -10.966   5.756  66.936  1.00  0.00    -0.279 OA 
BRANCH  18  20
HETATM   20  C   UNL     1      -9.329   5.822  68.680  1.00  0.00    -0.136 C  
BRANCH  20  21
HETATM   21  C   UNL     1     -10.420   5.469  69.687  1.00  0.00    -0.379 C  
BRANCH  21  22
HETATM   22  C   UNL     1     -10.852   6.660  70.509  1.00  0.00    -0.310 A  
HETATM   23  C   UNL     1     -12.194   6.814  70.889  1.00  0.00    -0.386 A  
HETATM   24  C   UNL     1     -12.588   7.903  71.670  1.00  0.00    -0.344 A  
HETATM   25  C   UNL     1     -11.649   8.849  72.073  1.00  0.00    -0.435 A  
HETATM   26  C   UNL     1     -10.316   8.712  71.690  1.00  0.00    -0.366 A  
HETATM   27  C   UNL     1      -9.919   7.625  70.908  1.00  0.00    -0.183 A  
ENDBRANCH  21  22
ENDBRANCH  20  21
ENDBRANCH  18  20
ENDBRANCH  13  18
ENDBRANCH  11  12
ENDBRANCH  10  11
ENDBRANCH   7  10
ENDBRANCH   6   7
ENDBRANCH   4   6
ENDBRANCH   3   4
ENDBRANCH   2   3
TORSDOF 11
ENDMDL
MODEL      206
REMARK 921   NORMALIZED FREE ENERGY PREDICTED BY IDOCK:   -4.51 KCAL/MOL
REMARK 922        TOTAL FREE ENERGY PREDICTED BY IDOCK:   -8.42 KCAL/MOL
REMARK 923 INTER-LIGAND FREE ENERGY PREDICTED BY IDOCK:   -6.74 KCAL/MOL
REMARK 924 INTRA-LIGAND FREE ENERGY PREDICTED BY IDOCK:   -1.68 KCAL/MOL
REMARK 927      BINDING AFFINITY PREDICTED BY RF-SCORE:    0.00 PKD
ROOT
HETATM    1  C   UNL     1      -7.321  14.640  68.388  1.00  0.00    -0.115 C  
HETATM    2  C   UNL     1      -6.750  15.631  67.385  1.00  0.00    -0.218 C  
ENDROOT
BRANCH   2   3
HETATM    3  C   UNL     1      -6.785  17.057  67.935  1.00  0.00    -0.148 C  
BRANCH   3   4
HETATM    4  N   UNL     1      -7.695  17.871  67.133  1.00  0.00    -0.205 NA 
HETATM    5  H   UNL     1      -8.229  17.306  66.472  1.00  0.00     0.000 HD 
BRANCH   4   6
HETATM    6  C   UNL     1      -8.569  18.667  68.006  1.00  0.00    -0.299 C  
BRANCH   6   7
HETATM    7  C   UNL     1     -10.049  18.310  67.780  1.00  0.00    -0.356 C  
HETATM    8  O   UNL     1     -10.672  19.271  66.914  1.00  0.00    -0.443 OA 
HETATM    9  H   UNL     1     -11.586  19.050  66.775  1.00  0.00     0.000 HD 
BRANCH   7  10
HETATM   10  C   UNL     1     -10.187  16.910  67.169  1.00  0.00    -0.297 C  
BRANCH  10  11
HETATM   11  O   UNL     1     -11.531  16.430  67.367  1.00  0.00     0.056 OA 
BRANCH  11  12
HETATM   12  C   UNL     1     -11.636  15.277  68.102  1.00  0.00    -0.330 A  
HETATM   13  C   UNL     1     -11.902  14.058  67.445  1.00  0.00    -0.445 A  
HETATM   14  C   UNL     1     -11.550  15.292  69.502  1.00  0.00    -0.339 A  
HETATM   15  C   UNL     1     -12.011  12.879  68.202  1.00  0.00    -0.306 A  
HETATM   16  C   UNL     1     -11.679  14.117  70.241  1.00  0.00    -0.328 A  
HETATM   17  C   UNL     1     -11.904  12.910  69.592  1.00  0.00    -0.387 A  
BRANCH  13  18
HETATM   18  C   UNL     1     -12.047  13.975  65.954  1.00  0.00    -0.428 C  
HETATM   19  O   UNL     1     -12.988  14.526  65.389  1.00  0.00    -0.470 OA 
BRANCH  18  20
HETATM   20  C   UNL     1     -10.968  13.269  65.142  1.00  0.00    -0.314 C  
BRANCH  20  21
HETATM   21  C   UNL     1      -9.644  13.176  65.894  1.00  0.00    -0.122 C  
BRANCH  21  22
HETATM   22  C   UNL     1      -9.255  11.749  66.202  1.00  0.00    -0.218 A  
HETATM   23  C   UNL     1     -10.173  10.705  66.019  1.00  0.00    -0.309 A  
HETATM   24  C   UNL     1      -9.804   9.384  66.281  1.00  0.00    -0.351 A  
HETATM   25  C   UNL     1      -8.518   9.094  66.732  1.00  0.00    -0.125 A  
HETATM   26  C   UNL     1      -7.603  10.127  66.930  1.00  0.00    -0.100 A  
HETATM   27  C   UNL     1      -7.970  11.449  66.670  1.00  0.00    -0.148 A  
ENDBRANCH  21  22
ENDBRANCH  20  21
ENDBRANCH  18  20
ENDBRANCH  13  18
ENDBRANCH  11  12
ENDBRANCH  10  11
ENDBRANCH   7  10
ENDBRANCH   6   7
ENDBRANCH   4   6
ENDBRANCH   3   4
ENDBRANCH   2   3
TORSDOF 11
ENDMDL
MODEL      207
REMARK 921   NORMALIZED FREE ENERGY PREDICTED BY IDOCK:   -4.50 KCAL/MOL
REMARK 922        TOTAL FREE ENERGY PREDICTED BY IDOCK:   -8.41 KCAL/MOL
REMARK 923 INTER-LIGAND FREE ENERGY PREDICTED BY IDOCK:   -7.19 KCAL/MOL
REMARK 924 INTRA-LIGAND FREE ENERGY PREDICTED BY IDOCK:   -1.22 KCAL/MOL
REMARK 927      BINDING AFFINITY PREDICTED BY RF-SCORE:    0.00 PKD
ROOT
HETATM    1  C   UNL     1      -8.265   6.389  69.030  1.00  0.00    -0.115 C  
HETATM    2  C   UNL     1      -7.753   6.863  70.382  1.00  0.00    -0.100 C  
ENDROOT
BRANCH   2   3
HETATM    3  C   UNL     1      -8.060   8.343  70.602  1.00  0.00    -0.114 C  
BRANCH   3   4
HETATM    4  N   UNL     1      -8.669   8.903  69.397  1.00  0.00    -0.139 NA 
HETATM    5  H   UNL     1      -9.677   8.747  69.372  1.00  0.00     0.000 HD 
BRANCH   4   6
HETATM    6  C   UNL     1      -8.331  10.328  69.271  1.00  0.00    -0.163 C  
BRANCH   6   7
HETATM    7  C   UNL     1      -9.493  11.118  68.642  1.00  0.00    -0.193 C  
HETATM    8  O   UNL     1      -9.378  12.515  68.952  1.00  0.00    -0.395 OA 
HETATM    9  H   UNL     1     -10.095  13.002  68.564  1.00  0.00     0.000 HD 
BRANCH   7  10
HETATM   10  C   UNL     1      -9.517  10.936  67.120  1.00  0.00    -0.160 C  
BRANCH  10  11
HETATM   11  O   UNL     1      -9.410  12.222  66.479  1.00  0.00    -0.223 OA 
BRANCH  11  12
HETATM   12  C   UNL     1     -10.283  12.431  65.442  1.00  0.00    -0.278 A  
HETATM   13  C   UNL     1     -11.132  13.556  65.469  1.00  0.00    -0.303 A  
HETATM   14  C   UNL     1     -10.398  11.514  64.387  1.00  0.00    -0.364 A  
HETATM   15  C   UNL     1     -12.027  13.766  64.405  1.00  0.00    -0.480 A  
HETATM   16  C   UNL     1     -11.304  11.726  63.349  1.00  0.00    -0.437 A  
HETATM   17  C   UNL     1     -12.115  12.853  63.354  1.00  0.00    -0.610 A  
BRANCH  13  18
HETATM   18  C   UNL     1     -11.091  14.556  66.586  1.00  0.00    -0.333 C  
HETATM   19  O   UNL     1     -11.383  14.220  67.731  1.00  0.00    -0.279 OA 
BRANCH  18  20
HETATM   20  C   UNL     1     -10.606  15.971  66.299  1.00  0.00    -0.288 C  
BRANCH  20  21
HETATM   21  C   UNL     1      -9.092  16.040  66.125  1.00  0.00    -0.387 C  
BRANCH  21  22
HETATM   22  C   UNL     1      -8.555  17.441  66.300  1.00  0.00    -0.246 A  
HETATM   23  C   UNL     1      -7.224  17.740  65.973  1.00  0.00    -0.322 A  
HETATM   24  C   UNL     1      -6.735  19.040  66.112  1.00  0.00    -0.249 A  
HETATM   25  C   UNL     1      -7.568  20.052  66.583  1.00  0.00    -0.314 A  
HETATM   26  C   UNL     1      -8.888  19.763  66.924  1.00  0.00    -0.401 A  
HETATM   27  C   UNL     1      -9.379  18.463  66.787  1.00  0.00    -0.296 A  
ENDBRANCH  21  22
ENDBRANCH  20  21
ENDBRANCH  18  20
ENDBRANCH  13  18
ENDBRANCH  11  12
ENDBRANCH  10  11
ENDBRANCH   7  10
ENDBRANCH   6   7
ENDBRANCH   4   6
ENDBRANCH   3   4
ENDBRANCH   2   3
TORSDOF 11
ENDMDL
MODEL      208
REMARK 921   NORMALIZED FREE ENERGY PREDICTED BY IDOCK:   -4.50 KCAL/MOL
REMARK 922        TOTAL FREE ENERGY PREDICTED BY IDOCK:   -8.40 KCAL/MOL
REMARK 923 INTER-LIGAND FREE ENERGY PREDICTED BY IDOCK:   -7.08 KCAL/MOL
REMARK 924 INTRA-LIGAND FREE ENERGY PREDICTED BY IDOCK:   -1.32 KCAL/MOL
REMARK 927      BINDING AFFINITY PREDICTED BY RF-SCORE:    0.00 PKD
ROOT
HETATM    1  C   UNL     1      -5.903  10.275  64.061  1.00  0.00    -0.142 C  
HETATM    2  C   UNL     1      -5.827   9.413  65.312  1.00  0.00    -0.062 C  
ENDROOT
BRANCH   2   3
HETATM    3  C   UNL     1      -5.808  10.272  66.576  1.00  0.00    -0.063 C  
BRANCH   3   4
HETATM    4  N   UNL     1      -6.097  11.662  66.229  1.00  0.00    -0.466 NA 
HETATM    5  H   UNL     1      -6.915  11.741  65.624  1.00  0.00     0.000 HD 
BRANCH   4   6
HETATM    6  C   UNL     1      -6.237  12.471  67.448  1.00  0.00    -0.158 C  
BRANCH   6   7
HETATM    7  C   UNL     1      -7.653  12.341  68.038  1.00  0.00    -0.126 C  
HETATM    8  O   UNL     1      -7.616  11.623  69.281  1.00  0.00    -0.321 OA 
HETATM    9  H   UNL     1      -8.490  11.543  69.645  1.00  0.00     0.000 HD 
BRANCH   7  10
HETATM   10  C   UNL     1      -8.279  13.721  68.268  1.00  0.00    -0.156 C  
BRANCH  10  11
HETATM   11  O   UNL     1      -9.699  13.651  68.033  1.00  0.00    -0.212 OA 
BRANCH  11  12
HETATM   12  C   UNL     1     -10.478  14.244  68.993  1.00  0.00    -0.204 A  
HETATM   13  C   UNL     1     -11.447  13.476  69.671  1.00  0.00    -0.283 A  
HETATM   14  C   UNL     1     -10.381  15.616  69.269  1.00  0.00    -0.250 A  
HETATM   15  C   UNL     1     -12.245  14.087  70.652  1.00  0.00    -0.442 A  
HETATM   16  C   UNL     1     -11.193  16.213  70.232  1.00  0.00    -0.389 A  
HETATM   17  C   UNL     1     -12.121  15.449  70.928  1.00  0.00    -0.413 A  
BRANCH  13  18
HETATM   18  C   UNL     1     -11.634  12.013  69.397  1.00  0.00    -0.330 C  
HETATM   19  O   UNL     1     -11.638  11.203  70.321  1.00  0.00    -0.307 OA 
BRANCH  18  20
HETATM   20  C   UNL     1     -11.900  11.553  67.969  1.00  0.00    -0.287 C  
BRANCH  20  21
HETATM   21  C   UNL     1     -10.812  10.618  67.449  1.00  0.00    -0.353 C  
BRANCH  21  22
HETATM   22  C   UNL     1     -10.545  10.808  65.975  1.00  0.00    -0.224 A  
HETATM   23  C   UNL     1     -11.072  11.913  65.291  1.00  0.00    -0.354 A  
HETATM   24  C   UNL     1     -10.805  12.100  63.934  1.00  0.00    -0.461 A  
HETATM   25  C   UNL     1     -10.013  11.184  63.245  1.00  0.00    -0.419 A  
HETATM   26  C   UNL     1      -9.496  10.075  63.912  1.00  0.00    -0.280 A  
HETATM   27  C   UNL     1      -9.763   9.885  65.270  1.00  0.00    -0.383 A  
ENDBRANCH  21  22
ENDBRANCH  20  21
ENDBRANCH  18  20
ENDBRANCH  13  18
ENDBRANCH  11  12
ENDBRANCH  10  11
ENDBRANCH   7  10
ENDBRANCH   6   7
ENDBRANCH   4   6
ENDBRANCH   3   4
ENDBRANCH   2   3
TORSDOF 11
ENDMDL
MODEL      209
REMARK 921   NORMALIZED FREE ENERGY PREDICTED BY IDOCK:   -4.48 KCAL/MOL
REMARK 922        TOTAL FREE ENERGY PREDICTED BY IDOCK:   -8.38 KCAL/MOL
REMARK 923 INTER-LIGAND FREE ENERGY PREDICTED BY IDOCK:   -7.19 KCAL/MOL
REMARK 924 INTRA-LIGAND FREE ENERGY PREDICTED BY IDOCK:   -1.19 KCAL/MOL
REMARK 927      BINDING AFFINITY PREDICTED BY RF-SCORE:    0.00 PKD
ROOT
HETATM    1  C   UNL     1      -5.442  16.259  67.931  1.00  0.00    -0.132 C  
HETATM    2  C   UNL     1      -5.652  17.763  68.012  1.00  0.00    -0.145 C  
ENDROOT
BRANCH   2   3
HETATM    3  C   UNL     1      -7.057  18.098  68.511  1.00  0.00    -0.257 C  
BRANCH   3   4
HETATM    4  N   UNL     1      -7.959  16.983  68.228  1.00  0.00    -0.213 NA 
HETATM    5  H   UNL     1      -8.302  16.544  69.082  1.00  0.00     0.000 HD 
BRANCH   4   6
HETATM    6  C   UNL     1      -9.058  17.427  67.360  1.00  0.00    -0.236 C  
BRANCH   6   7
HETATM    7  C   UNL     1      -9.186  16.520  66.123  1.00  0.00    -0.303 C  
HETATM    8  O   UNL     1      -8.373  15.345  66.273  1.00  0.00    -0.387 OA 
HETATM    9  H   UNL     1      -8.452  14.786  65.509  1.00  0.00     0.000 HD 
BRANCH   7  10
HETATM   10  C   UNL     1     -10.644  16.103  65.897  1.00  0.00    -0.312 C  
BRANCH  10  11
HETATM   11  O   UNL     1     -10.853  14.778  66.424  1.00  0.00    -0.310 OA 
BRANCH  11  12
HETATM   12  C   UNL     1     -11.162  13.822  65.491  1.00  0.00    -0.299 A  
HETATM   13  C   UNL     1     -10.643  12.519  65.636  1.00  0.00    -0.298 A  
HETATM   14  C   UNL     1     -11.928  14.128  64.355  1.00  0.00    -0.478 A  
HETATM   15  C   UNL     1     -10.959  11.543  64.676  1.00  0.00    -0.353 A  
HETATM   16  C   UNL     1     -12.217  13.153  63.402  1.00  0.00    -0.521 A  
HETATM   17  C   UNL     1     -11.738  11.860  63.564  1.00  0.00    -0.550 A  
BRANCH  13  18
HETATM   18  C   UNL     1      -9.783  12.133  66.803  1.00  0.00    -0.207 C  
HETATM   19  O   UNL     1      -8.604  12.477  66.847  1.00  0.00    -0.195 OA 
BRANCH  18  20
HETATM   20  C   UNL     1     -10.409  11.380  67.970  1.00  0.00    -0.204 C  
BRANCH  20  21
HETATM   21  C   UNL     1      -9.397  10.514  68.712  1.00  0.00    -0.181 C  
BRANCH  21  22
HETATM   22  C   UNL     1     -10.057   9.473  69.585  1.00  0.00    -0.228 A  
HETATM   23  C   UNL     1     -10.507   8.264  69.036  1.00  0.00    -0.212 A  
HETATM   24  C   UNL     1     -11.096   7.293  69.848  1.00  0.00    -0.233 A  
HETATM   25  C   UNL     1     -11.246   7.522  71.214  1.00  0.00    -0.274 A  
HETATM   26  C   UNL     1     -10.814   8.726  71.767  1.00  0.00    -0.416 A  
HETATM   27  C   UNL     1     -10.226   9.700  70.956  1.00  0.00    -0.252 A  
ENDBRANCH  21  22
ENDBRANCH  20  21
ENDBRANCH  18  20
ENDBRANCH  13  18
ENDBRANCH  11  12
ENDBRANCH  10  11
ENDBRANCH   7  10
ENDBRANCH   6   7
ENDBRANCH   4   6
ENDBRANCH   3   4
ENDBRANCH   2   3
TORSDOF 11
ENDMDL
MODEL      210
REMARK 921   NORMALIZED FREE ENERGY PREDICTED BY IDOCK:   -4.48 KCAL/MOL
REMARK 922        TOTAL FREE ENERGY PREDICTED BY IDOCK:   -8.38 KCAL/MOL
REMARK 923 INTER-LIGAND FREE ENERGY PREDICTED BY IDOCK:   -6.42 KCAL/MOL
REMARK 924 INTRA-LIGAND FREE ENERGY PREDICTED BY IDOCK:   -1.96 KCAL/MOL
REMARK 927      BINDING AFFINITY PREDICTED BY RF-SCORE:    0.00 PKD
ROOT
HETATM    1  C   UNL     1      -9.182   7.766  68.318  1.00  0.00    -0.139 C  
HETATM    2  C   UNL     1      -8.978   8.402  66.951  1.00  0.00    -0.168 C  
ENDROOT
BRANCH   2   3
HETATM    3  C   UNL     1     -10.157   9.300  66.578  1.00  0.00    -0.273 C  
BRANCH   3   4
HETATM    4  N   UNL     1     -10.150  10.494  67.420  1.00  0.00    -0.188 NA 
HETATM    5  H   UNL     1      -9.560  11.231  67.032  1.00  0.00     0.000 HD 
BRANCH   4   6
HETATM    6  C   UNL     1     -11.524  10.960  67.654  1.00  0.00    -0.200 C  
BRANCH   6   7
HETATM    7  C   UNL     1     -11.640  11.682  69.008  1.00  0.00    -0.316 C  
HETATM    8  O   UNL     1     -10.702  11.139  69.950  1.00  0.00    -0.457 OA 
HETATM    9  H   UNL     1     -10.774  11.585  70.786  1.00  0.00     0.000 HD 
BRANCH   7  10
HETATM   10  C   UNL     1     -11.389  13.186  68.850  1.00  0.00    -0.289 C  
BRANCH  10  11
HETATM   11  O   UNL     1     -10.582  13.419  67.679  1.00  0.00    -0.239 OA 
BRANCH  11  12
HETATM   12  C   UNL     1      -9.380  14.037  67.914  1.00  0.00    -0.206 A  
HETATM   13  C   UNL     1      -9.214  15.389  67.550  1.00  0.00    -0.201 A  
HETATM   14  C   UNL     1      -8.289  13.334  68.447  1.00  0.00    -0.131 A  
HETATM   15  C   UNL     1      -7.980  16.017  67.789  1.00  0.00    -0.152 A  
HETATM   16  C   UNL     1      -7.065  13.968  68.661  1.00  0.00    -0.108 A  
HETATM   17  C   UNL     1      -6.911  15.309  68.338  1.00  0.00    -0.111 A  
BRANCH  13  18
HETATM   18  C   UNL     1     -10.325  16.188  66.938  1.00  0.00    -0.297 C  
HETATM   19  O   UNL     1     -11.073  16.857  67.647  1.00  0.00    -0.222 OA 
BRANCH  18  20
HETATM   20  C   UNL     1     -10.464  16.228  65.421  1.00  0.00    -0.365 C  
BRANCH  20  21
HETATM   21  C   UNL     1     -11.730  15.528  64.936  1.00  0.00    -0.118 C  
BRANCH  21  22
HETATM   22  C   UNL     1     -11.470  14.108  64.493  1.00  0.00    -0.380 A  
HETATM   23  C   UNL     1     -10.164  13.598  64.461  1.00  0.00    -0.253 A  
HETATM   24  C   UNL     1      -9.928  12.278  64.074  1.00  0.00    -0.285 A  
HETATM   25  C   UNL     1     -10.992  11.456  63.710  1.00  0.00    -0.448 A  
HETATM   26  C   UNL     1     -12.293  11.957  63.726  1.00  0.00    -0.541 A  
HETATM   27  C   UNL     1     -12.532  13.278  64.111  1.00  0.00    -0.330 A  
ENDBRANCH  21  22
ENDBRANCH  20  21
ENDBRANCH  18  20
ENDBRANCH  13  18
ENDBRANCH  11  12
ENDBRANCH  10  11
ENDBRANCH   7  10
ENDBRANCH   6   7
ENDBRANCH   4   6
ENDBRANCH   3   4
ENDBRANCH   2   3
TORSDOF 11
ENDMDL
MODEL      211
REMARK 921   NORMALIZED FREE ENERGY PREDICTED BY IDOCK:   -4.48 KCAL/MOL
REMARK 922        TOTAL FREE ENERGY PREDICTED BY IDOCK:   -8.38 KCAL/MOL
REMARK 923 INTER-LIGAND FREE ENERGY PREDICTED BY IDOCK:   -7.43 KCAL/MOL
REMARK 924 INTRA-LIGAND FREE ENERGY PREDICTED BY IDOCK:   -0.95 KCAL/MOL
REMARK 927      BINDING AFFINITY PREDICTED BY RF-SCORE:    0.00 PKD
ROOT
HETATM    1  C   UNL     1      -9.761  10.284  64.369  1.00  0.00    -0.381 C  
HETATM    2  C   UNL     1      -9.410   9.989  65.819  1.00  0.00    -0.241 C  
ENDROOT
BRANCH   2   3
HETATM    3  C   UNL     1      -9.429  11.263  66.663  1.00  0.00    -0.186 C  
BRANCH   3   4
HETATM    4  N   UNL     1      -8.138  11.940  66.560  1.00  0.00    -0.373 NA 
HETATM    5  H   UNL     1      -7.971  12.300  65.620  1.00  0.00     0.000 HD 
BRANCH   4   6
HETATM    6  C   UNL     1      -8.035  12.995  67.577  1.00  0.00    -0.177 C  
BRANCH   6   7
HETATM    7  C   UNL     1      -6.582  13.484  67.721  1.00  0.00    -0.170 C  
HETATM    8  O   UNL     1      -5.731  12.815  66.778  1.00  0.00    -0.425 OA 
HETATM    9  H   UNL     1      -4.834  13.117  66.867  1.00  0.00     0.000 HD 
BRANCH   7  10
HETATM   10  C   UNL     1      -6.490  14.999  67.502  1.00  0.00    -0.092 C  
BRANCH  10  11
HETATM   11  O   UNL     1      -7.632  15.642  68.103  1.00  0.00    -0.116 OA 
BRANCH  11  12
HETATM   12  C   UNL     1      -7.473  16.977  68.372  1.00  0.00    -0.213 A  
HETATM   13  C   UNL     1      -8.609  17.809  68.442  1.00  0.00    -0.292 A  
HETATM   14  C   UNL     1      -6.199  17.549  68.513  1.00  0.00    -0.176 A  
HETATM   15  C   UNL     1      -8.443  19.177  68.716  1.00  0.00    -0.376 A  
HETATM   16  C   UNL     1      -6.050  18.912  68.766  1.00  0.00    -0.239 A  
HETATM   17  C   UNL     1      -7.170  19.726  68.872  1.00  0.00    -0.341 A  
BRANCH  13  18
HETATM   18  C   UNL     1      -9.998  17.273  68.260  1.00  0.00    -0.313 C  
HETATM   19  O   UNL     1     -10.883  17.986  67.792  1.00  0.00    -0.383 OA 
BRANCH  18  20
HETATM   20  C   UNL     1     -10.279  15.811  68.585  1.00  0.00    -0.221 C  
BRANCH  20  21
HETATM   21  C   UNL     1     -11.646  15.358  68.084  1.00  0.00    -0.331 C  
BRANCH  21  22
HETATM   22  C   UNL     1     -11.565  14.641  66.757  1.00  0.00    -0.370 A  
HETATM   23  C   UNL     1     -12.527  13.683  66.405  1.00  0.00    -0.377 A  
HETATM   24  C   UNL     1     -12.465  13.039  65.168  1.00  0.00    -0.552 A  
HETATM   25  C   UNL     1     -11.440  13.341  64.274  1.00  0.00    -0.435 A  
HETATM   26  C   UNL     1     -10.472  14.282  64.620  1.00  0.00    -0.325 A  
HETATM   27  C   UNL     1     -10.531  14.927  65.857  1.00  0.00    -0.327 A  
ENDBRANCH  21  22
ENDBRANCH  20  21
ENDBRANCH  18  20
ENDBRANCH  13  18
ENDBRANCH  11  12
ENDBRANCH  10  11
ENDBRANCH   7  10
ENDBRANCH   6   7
ENDBRANCH   4   6
ENDBRANCH   3   4
ENDBRANCH   2   3
TORSDOF 11
ENDMDL
MODEL      212
REMARK 921   NORMALIZED FREE ENERGY PREDICTED BY IDOCK:   -4.48 KCAL/MOL
REMARK 922        TOTAL FREE ENERGY PREDICTED BY IDOCK:   -8.38 KCAL/MOL
REMARK 923 INTER-LIGAND FREE ENERGY PREDICTED BY IDOCK:   -6.74 KCAL/MOL
REMARK 924 INTRA-LIGAND FREE ENERGY PREDICTED BY IDOCK:   -1.63 KCAL/MOL
REMARK 927      BINDING AFFINITY PREDICTED BY RF-SCORE:    0.00 PKD
ROOT
HETATM    1  C   UNL     1     -10.894   5.705  71.867  1.00  0.00    -0.302 C  
HETATM    2  C   UNL     1     -11.925   6.497  71.077  1.00  0.00    -0.358 C  
ENDROOT
BRANCH   2   3
HETATM    3  C   UNL     1     -11.286   7.698  70.382  1.00  0.00    -0.219 C  
BRANCH   3   4
HETATM    4  N   UNL     1     -10.558   8.503  71.361  1.00  0.00    -0.227 NA 
HETATM    5  H   UNL     1      -9.584   8.210  71.446  1.00  0.00     0.000 HD 
BRANCH   4   6
HETATM    6  C   UNL     1     -10.674   9.931  71.033  1.00  0.00    -0.171 C  
BRANCH   6   7
HETATM    7  C   UNL     1     -11.994  10.223  70.296  1.00  0.00    -0.264 C  
HETATM    8  O   UNL     1     -12.871  11.001  71.125  1.00  0.00    -0.377 OA 
HETATM    9  H   UNL     1     -13.686  11.181  70.670  1.00  0.00     0.000 HD 
BRANCH   7  10
HETATM   10  C   UNL     1     -11.735  10.974  68.985  1.00  0.00    -0.333 C  
BRANCH  10  11
HETATM   11  O   UNL     1     -10.943  12.147  69.251  1.00  0.00    -0.200 OA 
BRANCH  11  12
HETATM   12  C   UNL     1      -9.778  12.240  68.532  1.00  0.00    -0.138 A  
HETATM   13  C   UNL     1      -9.192  13.505  68.323  1.00  0.00    -0.195 A  
HETATM   14  C   UNL     1      -9.192  11.110  67.940  1.00  0.00    -0.154 A  
HETATM   15  C   UNL     1      -8.000  13.596  67.584  1.00  0.00    -0.180 A  
HETATM   16  C   UNL     1      -8.020  11.220  67.194  1.00  0.00    -0.151 A  
HETATM   17  C   UNL     1      -7.420  12.460  67.019  1.00  0.00    -0.037 A  
BRANCH  13  18
HETATM   18  C   UNL     1      -9.786  14.759  68.892  1.00  0.00    -0.222 C  
HETATM   19  O   UNL     1      -9.155  15.436  69.700  1.00  0.00    -0.263 OA 
BRANCH  18  20
HETATM   20  C   UNL     1     -11.147  15.228  68.393  1.00  0.00    -0.289 C  
BRANCH  20  21
HETATM   21  C   UNL     1     -11.100  15.710  66.947  1.00  0.00    -0.181 C  
BRANCH  21  22
HETATM   22  C   UNL     1     -11.315  14.589  65.957  1.00  0.00    -0.341 A  
HETATM   23  C   UNL     1     -10.355  14.315  64.972  1.00  0.00    -0.448 A  
HETATM   24  C   UNL     1     -10.543  13.263  64.073  1.00  0.00    -0.217 A  
HETATM   25  C   UNL     1     -11.692  12.479  64.147  1.00  0.00    -0.471 A  
HETATM   26  C   UNL     1     -12.658  12.751  65.114  1.00  0.00    -0.513 A  
HETATM   27  C   UNL     1     -12.473  13.804  66.013  1.00  0.00    -0.491 A  
ENDBRANCH  21  22
ENDBRANCH  20  21
ENDBRANCH  18  20
ENDBRANCH  13  18
ENDBRANCH  11  12
ENDBRANCH  10  11
ENDBRANCH   7  10
ENDBRANCH   6   7
ENDBRANCH   4   6
ENDBRANCH   3   4
ENDBRANCH   2   3
TORSDOF 11
ENDMDL
MODEL      213
REMARK 921   NORMALIZED FREE ENERGY PREDICTED BY IDOCK:   -4.46 KCAL/MOL
REMARK 922        TOTAL FREE ENERGY PREDICTED BY IDOCK:   -8.35 KCAL/MOL
REMARK 923 INTER-LIGAND FREE ENERGY PREDICTED BY IDOCK:   -6.93 KCAL/MOL
REMARK 924 INTRA-LIGAND FREE ENERGY PREDICTED BY IDOCK:   -1.42 KCAL/MOL
REMARK 927      BINDING AFFINITY PREDICTED BY RF-SCORE:    0.00 PKD
ROOT
HETATM    1  C   UNL     1     -11.463   5.855  71.839  1.00  0.00    -0.287 C  
HETATM    2  C   UNL     1     -12.402   7.033  72.049  1.00  0.00    -0.302 C  
ENDROOT
BRANCH   2   3
HETATM    3  C   UNL     1     -11.624   8.316  72.337  1.00  0.00    -0.396 C  
BRANCH   3   4
HETATM    4  N   UNL     1     -12.490   9.474  72.127  1.00  0.00    -0.336 NA 
HETATM    5  H   UNL     1     -12.521  10.080  72.947  1.00  0.00     0.000 HD 
BRANCH   4   6
HETATM    6  C   UNL     1     -12.078  10.204  70.920  1.00  0.00    -0.356 C  
BRANCH   6   7
HETATM    7  C   UNL     1     -12.868  11.517  70.772  1.00  0.00    -0.134 C  
HETATM    8  O   UNL     1     -13.436  11.907  72.032  1.00  0.00    -0.431 OA 
HETATM    9  H   UNL     1     -13.924  12.718  71.940  1.00  0.00     0.000 HD 
BRANCH   7  10
HETATM   10  C   UNL     1     -11.966  12.643  70.252  1.00  0.00    -0.284 C  
BRANCH  10  11
HETATM   11  O   UNL     1     -12.218  12.851  68.848  1.00  0.00    -0.213 OA 
BRANCH  11  12
HETATM   12  C   UNL     1     -11.289  13.623  68.198  1.00  0.00    -0.288 A  
HETATM   13  C   UNL     1     -10.837  13.234  66.921  1.00  0.00    -0.286 A  
HETATM   14  C   UNL     1     -10.727  14.757  68.805  1.00  0.00    -0.253 A  
HETATM   15  C   UNL     1      -9.884  14.027  66.259  1.00  0.00    -0.318 A  
HETATM   16  C   UNL     1      -9.768  15.522  68.143  1.00  0.00    -0.208 A  
HETATM   17  C   UNL     1      -9.350  15.162  66.869  1.00  0.00    -0.251 A  
BRANCH  13  18
HETATM   18  C   UNL     1     -11.364  12.011  66.230  1.00  0.00    -0.357 C  
HETATM   19  O   UNL     1     -12.425  12.055  65.612  1.00  0.00    -0.390 OA 
BRANCH  18  20
HETATM   20  C   UNL     1     -10.528  10.737  66.236  1.00  0.00    -0.287 C  
BRANCH  20  21
HETATM   21  C   UNL     1     -10.639   9.977  67.553  1.00  0.00    -0.336 C  
BRANCH  21  22
HETATM   22  C   UNL     1     -10.421   8.492  67.382  1.00  0.00    -0.351 A  
HETATM   23  C   UNL     1     -11.101   7.573  68.195  1.00  0.00     0.164 A  
HETATM   24  C   UNL     1     -10.916   6.201  68.020  1.00  0.00    -0.399 A  
HETATM   25  C   UNL     1     -10.048   5.733  67.037  1.00  0.00    -0.224 A  
HETATM   26  C   UNL     1      -9.357   6.638  66.233  1.00  0.00    -0.144 A  
HETATM   27  C   UNL     1      -9.539   8.011  66.407  1.00  0.00    -0.267 A  
ENDBRANCH  21  22
ENDBRANCH  20  21
ENDBRANCH  18  20
ENDBRANCH  13  18
ENDBRANCH  11  12
ENDBRANCH  10  11
ENDBRANCH   7  10
ENDBRANCH   6   7
ENDBRANCH   4   6
ENDBRANCH   3   4
ENDBRANCH   2   3
TORSDOF 11
ENDMDL
MODEL      214
REMARK 921   NORMALIZED FREE ENERGY PREDICTED BY IDOCK:   -4.46 KCAL/MOL
REMARK 922        TOTAL FREE ENERGY PREDICTED BY IDOCK:   -8.34 KCAL/MOL
REMARK 923 INTER-LIGAND FREE ENERGY PREDICTED BY IDOCK:   -7.52 KCAL/MOL
REMARK 924 INTRA-LIGAND FREE ENERGY PREDICTED BY IDOCK:   -0.82 KCAL/MOL
REMARK 927      BINDING AFFINITY PREDICTED BY RF-SCORE:    0.00 PKD
ROOT
HETATM    1  C   UNL     1     -10.364  16.233  69.898  1.00  0.00    -0.160 C  
HETATM    2  C   UNL     1     -11.206  15.682  71.039  1.00  0.00    -0.411 C  
ENDROOT
BRANCH   2   3
HETATM    3  C   UNL     1     -12.698  15.840  70.751  1.00  0.00    -0.338 C  
BRANCH   3   4
HETATM    4  N   UNL     1     -13.281  14.534  70.450  1.00  0.00    -0.492 NA 
HETATM    5  H   UNL     1     -13.595  14.470  69.482  1.00  0.00     0.000 HD 
BRANCH   4   6
HETATM    6  C   UNL     1     -12.333  13.464  70.790  1.00  0.00    -0.354 C  
BRANCH   6   7
HETATM    7  C   UNL     1     -12.811  12.671  72.020  1.00  0.00    -0.163 C  
HETATM    8  O   UNL     1     -13.995  13.266  72.573  1.00  0.00    -0.701 OA 
HETATM    9  H   UNL     1     -14.289  12.777  73.332  1.00  0.00     0.000 HD 
BRANCH   7  10
HETATM   10  C   UNL     1     -13.100  11.211  71.652  1.00  0.00    -0.424 C  
BRANCH  10  11
HETATM   11  O   UNL     1     -12.520  10.914  70.367  1.00  0.00    -0.316 OA 
BRANCH  11  12
HETATM   12  C   UNL     1     -11.441  10.068  70.397  1.00  0.00    -0.314 A  
HETATM   13  C   UNL     1     -10.709   9.838  69.214  1.00  0.00    -0.246 A  
HETATM   14  C   UNL     1     -11.088   9.373  71.564  1.00  0.00    -0.446 A  
HETATM   15  C   UNL     1      -9.606   8.968  69.248  1.00  0.00    -0.162 A  
HETATM   16  C   UNL     1     -10.002   8.500  71.576  1.00  0.00    -0.314 A  
HETATM   17  C   UNL     1      -9.257   8.300  70.421  1.00  0.00    -0.153 A  
BRANCH  13  18
HETATM   18  C   UNL     1     -11.056  10.515  67.921  1.00  0.00    -0.304 C  
HETATM   19  O   UNL     1     -12.134  11.090  67.790  1.00  0.00    -0.534 OA 
BRANCH  18  20
HETATM   20  C   UNL     1     -10.022  10.552  66.802  1.00  0.00    -0.252 C  
BRANCH  20  21
HETATM   21  C   UNL     1     -10.083  11.849  66.001  1.00  0.00    -0.261 C  
BRANCH  21  22
HETATM   22  C   UNL     1      -9.178  12.918  66.564  1.00  0.00    -0.186 A  
HETATM   23  C   UNL     1      -7.903  12.590  67.050  1.00  0.00    -0.065 A  
HETATM   24  C   UNL     1      -7.058  13.584  67.548  1.00  0.00    -0.159 A  
HETATM   25  C   UNL     1      -7.479  14.911  67.571  1.00  0.00    -0.224 A  
HETATM   26  C   UNL     1      -8.748  15.245  67.103  1.00  0.00    -0.234 A  
HETATM   27  C   UNL     1      -9.596  14.254  66.606  1.00  0.00    -0.302 A  
ENDBRANCH  21  22
ENDBRANCH  20  21
ENDBRANCH  18  20
ENDBRANCH  13  18
ENDBRANCH  11  12
ENDBRANCH  10  11
ENDBRANCH   7  10
ENDBRANCH   6   7
ENDBRANCH   4   6
ENDBRANCH   3   4
ENDBRANCH   2   3
TORSDOF 11
ENDMDL
MODEL      215
REMARK 921   NORMALIZED FREE ENERGY PREDICTED BY IDOCK:   -4.45 KCAL/MOL
REMARK 922        TOTAL FREE ENERGY PREDICTED BY IDOCK:   -8.32 KCAL/MOL
REMARK 923 INTER-LIGAND FREE ENERGY PREDICTED BY IDOCK:   -6.06 KCAL/MOL
REMARK 924 INTRA-LIGAND FREE ENERGY PREDICTED BY IDOCK:   -2.26 KCAL/MOL
REMARK 927      BINDING AFFINITY PREDICTED BY RF-SCORE:    0.00 PKD
ROOT
HETATM    1  C   UNL     1      -7.844   4.861  69.124  1.00  0.00    -0.072 C  
HETATM    2  C   UNL     1      -8.764   5.734  69.964  1.00  0.00    -0.132 C  
ENDROOT
BRANCH   2   3
HETATM    3  C   UNL     1      -9.992   4.955  70.429  1.00  0.00    -0.246 C  
BRANCH   3   4
HETATM    4  N   UNL     1     -11.151   5.844  70.472  1.00  0.00    -0.304 NA 
HETATM    5  H   UNL     1     -11.965   5.390  70.889  1.00  0.00     0.000 HD 
BRANCH   4   6
HETATM    6  C   UNL     1     -10.807   7.095  71.163  1.00  0.00    -0.239 C  
BRANCH   6   7
HETATM    7  C   UNL     1     -12.060   7.958  71.399  1.00  0.00    -0.307 C  
HETATM    8  O   UNL     1     -12.366   8.029  72.800  1.00  0.00    -0.605 OA 
HETATM    9  H   UNL     1     -13.139   8.562  72.945  1.00  0.00     0.000 HD 
BRANCH   7  10
HETATM   10  C   UNL     1     -11.858   9.376  70.850  1.00  0.00    -0.294 C  
BRANCH  10  11
HETATM   11  O   UNL     1     -10.845   9.356  69.826  1.00  0.00    -0.229 OA 
BRANCH  11  12
HETATM   12  C   UNL     1     -10.727  10.514  69.101  1.00  0.00    -0.231 A  
HETATM   13  C   UNL     1      -9.448  10.953  68.700  1.00  0.00    -0.192 A  
HETATM   14  C   UNL     1     -11.845  11.309  68.806  1.00  0.00    -0.396 A  
HETATM   15  C   UNL     1      -9.332  12.141  67.958  1.00  0.00    -0.197 A  
HETATM   16  C   UNL     1     -11.710  12.495  68.085  1.00  0.00    -0.400 A  
HETATM   17  C   UNL     1     -10.456  12.910  67.657  1.00  0.00    -0.228 A  
BRANCH  13  18
HETATM   18  C   UNL     1      -8.206  10.174  69.016  1.00  0.00    -0.132 C  
HETATM   19  O   UNL     1      -7.491  10.501  69.960  1.00  0.00    -0.142 OA 
BRANCH  18  20
HETATM   20  C   UNL     1      -7.886   8.925  68.205  1.00  0.00    -0.101 C  
BRANCH  20  21
HETATM   21  C   UNL     1      -8.671   8.865  66.898  1.00  0.00    -0.128 C  
BRANCH  21  22
HETATM   22  C   UNL     1      -9.184   7.477  66.597  1.00  0.00    -0.201 A  
HETATM   23  C   UNL     1     -10.420   7.049  67.102  1.00  0.00    -0.383 A  
HETATM   24  C   UNL     1     -10.904   5.774  66.802  1.00  0.00    -0.327 A  
HETATM   25  C   UNL     1     -10.157   4.914  66.001  1.00  0.00    -0.264 A  
HETATM   26  C   UNL     1      -8.921   5.325  65.505  1.00  0.00    -0.158 A  
HETATM   27  C   UNL     1      -8.434   6.599  65.804  1.00  0.00    -0.150 A  
ENDBRANCH  21  22
ENDBRANCH  20  21
ENDBRANCH  18  20
ENDBRANCH  13  18
ENDBRANCH  11  12
ENDBRANCH  10  11
ENDBRANCH   7  10
ENDBRANCH   6   7
ENDBRANCH   4   6
ENDBRANCH   3   4
ENDBRANCH   2   3
TORSDOF 11
ENDMDL
MODEL      216
REMARK 921   NORMALIZED FREE ENERGY PREDICTED BY IDOCK:   -4.43 KCAL/MOL
REMARK 922        TOTAL FREE ENERGY PREDICTED BY IDOCK:   -8.29 KCAL/MOL
REMARK 923 INTER-LIGAND FREE ENERGY PREDICTED BY IDOCK:   -6.52 KCAL/MOL
REMARK 924 INTRA-LIGAND FREE ENERGY PREDICTED BY IDOCK:   -1.78 KCAL/MOL
REMARK 927      BINDING AFFINITY PREDICTED BY RF-SCORE:    0.00 PKD
ROOT
HETATM    1  C   UNL     1     -12.200  13.668  70.530  1.00  0.00    -0.438 C  
HETATM    2  C   UNL     1     -11.449  13.518  69.216  1.00  0.00    -0.345 C  
ENDROOT
BRANCH   2   3
HETATM    3  C   UNL     1     -12.010  14.456  68.148  1.00  0.00    -0.285 C  
BRANCH   3   4
HETATM    4  N   UNL     1     -12.490  13.674  67.010  1.00  0.00    -0.352 NA 
HETATM    5  H   UNL     1     -13.388  13.231  67.204  1.00  0.00     0.000 HD 
BRANCH   4   6
HETATM    6  C   UNL     1     -12.540  14.511  65.804  1.00  0.00    -0.180 C  
BRANCH   6   7
HETATM    7  C   UNL     1     -12.118  13.712  64.558  1.00  0.00    -0.419 C  
HETATM    8  O   UNL     1     -12.489  14.412  63.361  1.00  0.00    -1.109 OA 
HETATM    9  H   UNL     1     -12.228  13.918  62.592  1.00  0.00     0.000 HD 
BRANCH   7  10
HETATM   10  C   UNL     1     -10.605  13.464  64.554  1.00  0.00    -0.425 C  
BRANCH  10  11
HETATM   11  O   UNL     1     -10.316  12.237  65.252  1.00  0.00    -0.268 OA 
BRANCH  11  12
HETATM   12  C   UNL     1      -9.428  12.353  66.291  1.00  0.00    -0.220 A  
HETATM   13  C   UNL     1      -9.193  11.243  67.128  1.00  0.00    -0.169 A  
HETATM   14  C   UNL     1      -8.798  13.572  66.581  1.00  0.00    -0.080 A  
HETATM   15  C   UNL     1      -8.284  11.366  68.192  1.00  0.00    -0.143 A  
HETATM   16  C   UNL     1      -7.913  13.683  67.653  1.00  0.00    -0.180 A  
HETATM   17  C   UNL     1      -7.652  12.581  68.456  1.00  0.00    -0.119 A  
BRANCH  13  18
HETATM   18  C   UNL     1      -9.864   9.920  66.900  1.00  0.00    -0.199 C  
HETATM   19  O   UNL     1     -10.898   9.637  67.500  1.00  0.00    -0.286 OA 
BRANCH  18  20
HETATM   20  C   UNL     1      -9.294   8.968  65.856  1.00  0.00    -0.306 C  
BRANCH  20  21
HETATM   21  C   UNL     1      -8.143   8.130  66.403  1.00  0.00    -0.106 C  
BRANCH  21  22
HETATM   22  C   UNL     1      -8.596   6.768  66.877  1.00  0.00    -0.116 A  
HETATM   23  C   UNL     1      -8.052   6.201  68.039  1.00  0.00    -0.114 A  
HETATM   24  C   UNL     1      -8.489   4.953  68.488  1.00  0.00    -0.095 A  
HETATM   25  C   UNL     1      -9.467   4.259  67.780  1.00  0.00    -0.215 A  
HETATM   26  C   UNL     1     -10.004   4.809  66.617  1.00  0.00    -0.259 A  
HETATM   27  C   UNL     1      -9.568   6.056  66.164  1.00  0.00    -0.091 A  
ENDBRANCH  21  22
ENDBRANCH  20  21
ENDBRANCH  18  20
ENDBRANCH  13  18
ENDBRANCH  11  12
ENDBRANCH  10  11
ENDBRANCH   7  10
ENDBRANCH   6   7
ENDBRANCH   4   6
ENDBRANCH   3   4
ENDBRANCH   2   3
TORSDOF 11
ENDMDL
MODEL      217
REMARK 921   NORMALIZED FREE ENERGY PREDICTED BY IDOCK:   -4.42 KCAL/MOL
REMARK 922        TOTAL FREE ENERGY PREDICTED BY IDOCK:   -8.28 KCAL/MOL
REMARK 923 INTER-LIGAND FREE ENERGY PREDICTED BY IDOCK:   -7.19 KCAL/MOL
REMARK 924 INTRA-LIGAND FREE ENERGY PREDICTED BY IDOCK:   -1.09 KCAL/MOL
REMARK 927      BINDING AFFINITY PREDICTED BY RF-SCORE:    0.00 PKD
ROOT
HETATM    1  C   UNL     1     -12.384  14.169  64.872  1.00  0.00    -0.446 C  
HETATM    2  C   UNL     1     -11.984  12.830  65.472  1.00  0.00    -0.497 C  
ENDROOT
BRANCH   2   3
HETATM    3  C   UNL     1     -10.569  12.435  65.051  1.00  0.00    -0.298 C  
BRANCH   3   4
HETATM    4  N   UNL     1     -10.056  11.408  65.955  1.00  0.00    -0.233 NA 
HETATM    5  H   UNL     1      -9.901  10.521  65.475  1.00  0.00     0.000 HD 
BRANCH   4   6
HETATM    6  C   UNL     1      -8.841  11.886  66.629  1.00  0.00    -0.191 C  
BRANCH   6   7
HETATM    7  C   UNL     1      -8.921  11.644  68.148  1.00  0.00    -0.182 C  
HETATM    8  O   UNL     1      -9.375  12.828  68.822  1.00  0.00    -0.401 OA 
HETATM    9  H   UNL     1      -9.424  12.678  69.759  1.00  0.00     0.000 HD 
BRANCH   7  10
HETATM   10  C   UNL     1      -9.868  10.482  68.468  1.00  0.00    -0.168 C  
BRANCH  10  11
HETATM   11  O   UNL     1      -9.671  10.062  69.832  1.00  0.00    -0.227 OA 
BRANCH  11  12
HETATM   12  C   UNL     1     -10.816   9.950  70.579  1.00  0.00    -0.326 A  
HETATM   13  C   UNL     1     -10.910   8.937  71.555  1.00  0.00    -0.396 A  
HETATM   14  C   UNL     1     -11.924  10.779  70.347  1.00  0.00    -0.448 A  
HETATM   15  C   UNL     1     -12.086   8.825  72.316  1.00  0.00    -0.423 A  
HETATM   16  C   UNL     1     -13.091  10.642  71.098  1.00  0.00    -0.415 A  
HETATM   17  C   UNL     1     -13.171   9.670  72.085  1.00  0.00    -0.535 A  
BRANCH  13  18
HETATM   18  C   UNL     1      -9.780   7.990  71.828  1.00  0.00    -0.176 C  
HETATM   19  O   UNL     1      -9.017   8.188  72.770  1.00  0.00    -0.197 OA 
BRANCH  18  20
HETATM   20  C   UNL     1      -9.639   6.736  70.973  1.00  0.00    -0.175 C  
BRANCH  20  21
HETATM   21  C   UNL     1     -10.722   5.705  71.275  1.00  0.00    -0.312 C  
BRANCH  21  22
HETATM   22  C   UNL     1     -10.218   4.577  72.145  1.00  0.00    -0.256 A  
HETATM   23  C   UNL     1      -8.965   3.996  71.904  1.00  0.00    -0.156 A  
HETATM   24  C   UNL     1      -8.490   2.970  72.723  1.00  0.00    -0.076 A  
HETATM   25  C   UNL     1      -9.264   2.512  73.787  1.00  0.00    -0.090 A  
HETATM   26  C   UNL     1     -10.517   3.074  74.027  1.00  0.00    -0.243 A  
HETATM   27  C   UNL     1     -10.994   4.099  73.208  1.00  0.00    -0.324 A  
ENDBRANCH  21  22
ENDBRANCH  20  21
ENDBRANCH  18  20
ENDBRANCH  13  18
ENDBRANCH  11  12
ENDBRANCH  10  11
ENDBRANCH   7  10
ENDBRANCH   6   7
ENDBRANCH   4   6
ENDBRANCH   3   4
ENDBRANCH   2   3
TORSDOF 11
ENDMDL
MODEL      218
REMARK 921   NORMALIZED FREE ENERGY PREDICTED BY IDOCK:   -4.40 KCAL/MOL
REMARK 922        TOTAL FREE ENERGY PREDICTED BY IDOCK:   -8.24 KCAL/MOL
REMARK 923 INTER-LIGAND FREE ENERGY PREDICTED BY IDOCK:   -7.05 KCAL/MOL
REMARK 924 INTRA-LIGAND FREE ENERGY PREDICTED BY IDOCK:   -1.19 KCAL/MOL
REMARK 927      BINDING AFFINITY PREDICTED BY RF-SCORE:    0.00 PKD
ROOT
HETATM    1  C   UNL     1      -8.327   4.703  63.835  1.00  0.00    -0.121 C  
HETATM    2  C   UNL     1      -9.239   3.673  64.483  1.00  0.00    -0.141 C  
ENDROOT
BRANCH   2   3
HETATM    3  C   UNL     1      -9.758   4.166  65.833  1.00  0.00    -0.204 C  
BRANCH   3   4
HETATM    4  N   UNL     1     -10.683   5.279  65.626  1.00  0.00    -0.552 NA 
HETATM    5  H   UNL     1     -11.514   4.993  65.109  1.00  0.00     0.000 HD 
BRANCH   4   6
HETATM    6  C   UNL     1     -11.025   5.901  66.913  1.00  0.00    -0.217 C  
BRANCH   6   7
HETATM    7  C   UNL     1      -9.871   5.755  67.922  1.00  0.00    -0.127 C  
HETATM    8  O   UNL     1      -9.263   7.030  68.178  1.00  0.00    -0.132 OA 
HETATM    9  H   UNL     1      -8.551   6.940  68.801  1.00  0.00     0.000 HD 
BRANCH   7  10
HETATM   10  C   UNL     1     -10.370   5.155  69.242  1.00  0.00    -0.178 C  
BRANCH  10  11
HETATM   11  O   UNL     1     -11.124   6.146  69.966  1.00  0.00    -0.332 OA 
BRANCH  11  12
HETATM   12  C   UNL     1     -10.704   6.373  71.252  1.00  0.00    -0.241 A  
HETATM   13  C   UNL     1     -11.278   7.427  71.992  1.00  0.00    -0.289 A  
HETATM   14  C   UNL     1      -9.666   5.623  71.825  1.00  0.00    -0.192 A  
HETATM   15  C   UNL     1     -10.843   7.658  73.308  1.00  0.00    -0.379 A  
HETATM   16  C   UNL     1      -9.232   5.877  73.126  1.00  0.00    -0.133 A  
HETATM   17  C   UNL     1      -9.823   6.890  73.869  1.00  0.00    -0.340 A  
BRANCH  13  18
HETATM   18  C   UNL     1     -12.363   8.295  71.427  1.00  0.00    -0.299 C  
HETATM   19  O   UNL     1     -13.522   7.891  71.383  1.00  0.00    -0.312 OA 
BRANCH  18  20
HETATM   20  C   UNL     1     -12.025   9.714  70.986  1.00  0.00    -0.427 C  
BRANCH  20  21
HETATM   21  C   UNL     1     -10.931   9.745  69.924  1.00  0.00    -0.299 C  
BRANCH  21  22
HETATM   22  C   UNL     1     -11.210  10.756  68.837  1.00  0.00    -0.328 A  
HETATM   23  C   UNL     1     -11.686  12.035  69.160  1.00  0.00    -0.389 A  
HETATM   24  C   UNL     1     -11.921  12.977  68.156  1.00  0.00    -0.322 A  
HETATM   25  C   UNL     1     -11.688  12.650  66.823  1.00  0.00    -0.460 A  
HETATM   26  C   UNL     1     -11.227  11.377  66.491  1.00  0.00    -0.276 A  
HETATM   27  C   UNL     1     -10.993  10.432  67.492  1.00  0.00    -0.358 A  
ENDBRANCH  21  22
ENDBRANCH  20  21
ENDBRANCH  18  20
ENDBRANCH  13  18
ENDBRANCH  11  12
ENDBRANCH  10  11
ENDBRANCH   7  10
ENDBRANCH   6   7
ENDBRANCH   4   6
ENDBRANCH   3   4
ENDBRANCH   2   3
TORSDOF 11
ENDMDL
MODEL      219
REMARK 921   NORMALIZED FREE ENERGY PREDICTED BY IDOCK:   -4.39 KCAL/MOL
REMARK 922        TOTAL FREE ENERGY PREDICTED BY IDOCK:   -8.23 KCAL/MOL
REMARK 923 INTER-LIGAND FREE ENERGY PREDICTED BY IDOCK:   -6.44 KCAL/MOL
REMARK 924 INTRA-LIGAND FREE ENERGY PREDICTED BY IDOCK:   -1.79 KCAL/MOL
REMARK 927      BINDING AFFINITY PREDICTED BY RF-SCORE:    0.00 PKD
ROOT
HETATM    1  C   UNL     1     -12.691   7.326  71.972  1.00  0.00    -0.231 C  
HETATM    2  C   UNL     1     -13.213   8.727  72.252  1.00  0.00    -0.456 C  
ENDROOT
BRANCH   2   3
HETATM    3  C   UNL     1     -12.232   9.791  71.764  1.00  0.00    -0.367 C  
BRANCH   3   4
HETATM    4  N   UNL     1     -11.221   9.172  70.909  1.00  0.00    -0.274 NA 
HETATM    5  H   UNL     1     -11.258   8.153  70.951  1.00  0.00     0.000 HD 
BRANCH   4   6
HETATM    6  C   UNL     1     -11.346   9.669  69.532  1.00  0.00    -0.040 C  
BRANCH   6   7
HETATM    7  C   UNL     1     -11.131  11.192  69.472  1.00  0.00    -0.252 C  
HETATM    8  O   UNL     1      -9.736  11.498  69.326  1.00  0.00    -0.407 OA 
HETATM    9  H   UNL     1      -9.603  12.438  69.290  1.00  0.00     0.000 HD 
BRANCH   7  10
HETATM   10  C   UNL     1     -11.911  11.810  68.306  1.00  0.00    -0.271 C  
BRANCH  10  11
HETATM   11  O   UNL     1     -10.997  12.484  67.419  1.00  0.00    -0.242 OA 
BRANCH  11  12
HETATM   12  C   UNL     1     -11.184  12.228  66.085  1.00  0.00    -0.328 A  
HETATM   13  C   UNL     1     -10.329  11.321  65.427  1.00  0.00    -0.328 A  
HETATM   14  C   UNL     1     -12.167  12.900  65.342  1.00  0.00    -0.528 A  
HETATM   15  C   UNL     1     -10.522  11.062  64.059  1.00  0.00    -0.433 A  
HETATM   16  C   UNL     1     -12.334  12.647  63.981  1.00  0.00    -0.528 A  
HETATM   17  C   UNL     1     -11.517  11.726  63.340  1.00  0.00    -0.424 A  
BRANCH  13  18
HETATM   18  C   UNL     1      -9.231  10.598  66.150  1.00  0.00    -0.172 C  
HETATM   19  O   UNL     1      -8.275  11.219  66.609  1.00  0.00    -0.155 OA 
BRANCH  18  20
HETATM   20  C   UNL     1      -9.356   9.097  66.379  1.00  0.00    -0.261 C  
BRANCH  20  21
HETATM   21  C   UNL     1      -8.052   8.475  66.867  1.00  0.00    -0.099 C  
BRANCH  21  22
HETATM   22  C   UNL     1      -8.143   7.986  68.293  1.00  0.00    -0.126 A  
HETATM   23  C   UNL     1      -9.035   6.960  68.639  1.00  0.00    -0.129 A  
HETATM   24  C   UNL     1      -9.102   6.492  69.953  1.00  0.00    -0.143 A  
HETATM   25  C   UNL     1      -8.283   7.047  70.934  1.00  0.00    -0.121 A  
HETATM   26  C   UNL     1      -7.403   8.076  70.603  1.00  0.00    -0.056 A  
HETATM   27  C   UNL     1      -7.335   8.547  69.290  1.00  0.00    -0.071 A  
ENDBRANCH  21  22
ENDBRANCH  20  21
ENDBRANCH  18  20
ENDBRANCH  13  18
ENDBRANCH  11  12
ENDBRANCH  10  11
ENDBRANCH   7  10
ENDBRANCH   6   7
ENDBRANCH   4   6
ENDBRANCH   3   4
ENDBRANCH   2   3
TORSDOF 11
ENDMDL
MODEL      220
REMARK 921   NORMALIZED FREE ENERGY PREDICTED BY IDOCK:   -4.39 KCAL/MOL
REMARK 922        TOTAL FREE ENERGY PREDICTED BY IDOCK:   -8.23 KCAL/MOL
REMARK 923 INTER-LIGAND FREE ENERGY PREDICTED BY IDOCK:   -7.84 KCAL/MOL
REMARK 924 INTRA-LIGAND FREE ENERGY PREDICTED BY IDOCK:   -0.39 KCAL/MOL
REMARK 927      BINDING AFFINITY PREDICTED BY RF-SCORE:    0.00 PKD
ROOT
HETATM    1  C   UNL     1      -5.313   5.672  67.901  1.00  0.00    -0.004 C  
HETATM    2  C   UNL     1      -5.306   6.349  66.539  1.00  0.00    -0.013 C  
ENDROOT
BRANCH   2   3
HETATM    3  C   UNL     1      -6.726   6.652  66.064  1.00  0.00    -0.048 C  
BRANCH   3   4
HETATM    4  N   UNL     1      -7.369   7.575  66.998  1.00  0.00    -0.091 NA 
HETATM    5  H   UNL     1      -7.236   8.549  66.723  1.00  0.00     0.000 HD 
BRANCH   4   6
HETATM    6  C   UNL     1      -8.791   7.238  67.148  1.00  0.00    -0.125 C  
BRANCH   6   7
HETATM    7  C   UNL     1      -9.606   8.465  67.595  1.00  0.00    -0.153 C  
HETATM    8  O   UNL     1     -11.009   8.241  67.385  1.00  0.00    -0.496 OA 
HETATM    9  H   UNL     1     -11.511   8.999  67.662  1.00  0.00     0.000 HD 
BRANCH   7  10
HETATM   10  C   UNL     1      -9.358   8.776  69.076  1.00  0.00    -0.145 C  
BRANCH  10  11
HETATM   11  O   UNL     1     -10.003  10.017  69.422  1.00  0.00    -0.197 OA 
BRANCH  11  12
HETATM   12  C   UNL     1     -11.076   9.899  70.268  1.00  0.00    -0.308 A  
HETATM   13  C   UNL     1     -11.912  11.013  70.486  1.00  0.00    -0.474 A  
HETATM   14  C   UNL     1     -11.322   8.713  70.977  1.00  0.00    -0.322 A  
HETATM   15  C   UNL     1     -13.009  10.889  71.355  1.00  0.00    -0.527 A  
HETATM   16  C   UNL     1     -12.404   8.612  71.851  1.00  0.00    -0.414 A  
HETATM   17  C   UNL     1     -13.250   9.697  72.037  1.00  0.00    -0.546 A  
BRANCH  13  18
HETATM   18  C   UNL     1     -11.684  12.324  69.794  1.00  0.00    -0.298 C  
HETATM   19  O   UNL     1     -11.980  13.380  70.348  1.00  0.00    -0.331 OA 
BRANCH  18  20
HETATM   20  C   UNL     1     -11.005  12.336  68.430  1.00  0.00    -0.270 C  
BRANCH  20  21
HETATM   21  C   UNL     1     -11.893  12.937  67.345  1.00  0.00    -0.418 C  
BRANCH  21  22
HETATM   22  C   UNL     1     -11.516  12.461  65.962  1.00  0.00    -0.431 A  
HETATM   23  C   UNL     1     -10.268  11.866  65.729  1.00  0.00    -0.276 A  
HETATM   24  C   UNL     1      -9.930  11.405  64.455  1.00  0.00    -0.321 A  
HETATM   25  C   UNL     1     -10.832  11.539  63.402  1.00  0.00    -0.423 A  
HETATM   26  C   UNL     1     -12.070  12.142  63.620  1.00  0.00    -0.648 A  
HETATM   27  C   UNL     1     -12.410  12.605  64.893  1.00  0.00    -0.563 A  
ENDBRANCH  21  22
ENDBRANCH  20  21
ENDBRANCH  18  20
ENDBRANCH  13  18
ENDBRANCH  11  12
ENDBRANCH  10  11
ENDBRANCH   7  10
ENDBRANCH   6   7
ENDBRANCH   4   6
ENDBRANCH   3   4
ENDBRANCH   2   3
TORSDOF 11
ENDMDL
MODEL      221
REMARK 921   NORMALIZED FREE ENERGY PREDICTED BY IDOCK:   -4.39 KCAL/MOL
REMARK 922        TOTAL FREE ENERGY PREDICTED BY IDOCK:   -8.23 KCAL/MOL
REMARK 923 INTER-LIGAND FREE ENERGY PREDICTED BY IDOCK:   -7.03 KCAL/MOL
REMARK 924 INTRA-LIGAND FREE ENERGY PREDICTED BY IDOCK:   -1.20 KCAL/MOL
REMARK 927      BINDING AFFINITY PREDICTED BY RF-SCORE:    0.00 PKD
ROOT
HETATM    1  C   UNL     1      -8.206   5.934  67.461  1.00  0.00    -0.105 C  
HETATM    2  C   UNL     1      -9.311   6.622  66.675  1.00  0.00    -0.192 C  
ENDROOT
BRANCH   2   3
HETATM    3  C   UNL     1      -8.887   8.022  66.234  1.00  0.00    -0.162 C  
BRANCH   3   4
HETATM    4  N   UNL     1      -8.969   8.940  67.369  1.00  0.00    -0.132 NA 
HETATM    5  H   UNL     1      -9.325   8.480  68.207  1.00  0.00     0.000 HD 
BRANCH   4   6
HETATM    6  C   UNL     1      -7.664   9.574  67.605  1.00  0.00    -0.095 C  
BRANCH   6   7
HETATM    7  C   UNL     1      -7.828  11.067  67.940  1.00  0.00    -0.110 C  
HETATM    8  O   UNL     1      -7.173  11.880  66.954  1.00  0.00    -0.250 OA 
HETATM    9  H   UNL     1      -7.274  12.801  67.162  1.00  0.00     0.000 HD 
BRANCH   7  10
HETATM   10  C   UNL     1      -9.310  11.453  68.013  1.00  0.00    -0.171 C  
BRANCH  10  11
HETATM   11  O   UNL     1      -9.478  12.809  67.557  1.00  0.00    -0.178 OA 
BRANCH  11  12
HETATM   12  C   UNL     1     -10.399  12.978  66.556  1.00  0.00    -0.274 A  
HETATM   13  C   UNL     1     -11.639  13.582  66.850  1.00  0.00    -0.398 A  
HETATM   14  C   UNL     1     -10.164  12.502  65.257  1.00  0.00    -0.302 A  
HETATM   15  C   UNL     1     -12.582  13.751  65.822  1.00  0.00    -0.525 A  
HETATM   16  C   UNL     1     -11.117  12.661  64.252  1.00  0.00    -0.405 A  
HETATM   17  C   UNL     1     -12.323  13.289  64.531  1.00  0.00    -0.428 A  
BRANCH  13  18
HETATM   18  C   UNL     1     -11.975  14.077  68.226  1.00  0.00    -0.349 C  
HETATM   19  O   UNL     1     -12.374  13.296  69.087  1.00  0.00    -0.197 OA 
BRANCH  18  20
HETATM   20  C   UNL     1     -11.737  15.542  68.566  1.00  0.00    -0.351 C  
BRANCH  20  21
HETATM   21  C   UNL     1     -10.270  15.838  68.863  1.00  0.00    -0.219 C  
BRANCH  21  22
HETATM   22  C   UNL     1      -9.845  17.200  68.369  1.00  0.00    -0.296 A  
HETATM   23  C   UNL     1      -8.567  17.698  68.664  1.00  0.00    -0.264 A  
HETATM   24  C   UNL     1      -8.166  18.948  68.187  1.00  0.00    -0.343 A  
HETATM   25  C   UNL     1      -9.038  19.713  67.416  1.00  0.00    -0.392 A  
HETATM   26  C   UNL     1     -10.315  19.233  67.129  1.00  0.00    -0.533 A  
HETATM   27  C   UNL     1     -10.719  17.984  67.606  1.00  0.00    -0.360 A  
ENDBRANCH  21  22
ENDBRANCH  20  21
ENDBRANCH  18  20
ENDBRANCH  13  18
ENDBRANCH  11  12
ENDBRANCH  10  11
ENDBRANCH   7  10
ENDBRANCH   6   7
ENDBRANCH   4   6
ENDBRANCH   3   4
ENDBRANCH   2   3
TORSDOF 11
ENDMDL
MODEL      222
REMARK 921   NORMALIZED FREE ENERGY PREDICTED BY IDOCK:   -4.39 KCAL/MOL
REMARK 922        TOTAL FREE ENERGY PREDICTED BY IDOCK:   -8.22 KCAL/MOL
REMARK 923 INTER-LIGAND FREE ENERGY PREDICTED BY IDOCK:   -6.79 KCAL/MOL
REMARK 924 INTRA-LIGAND FREE ENERGY PREDICTED BY IDOCK:   -1.43 KCAL/MOL
REMARK 927      BINDING AFFINITY PREDICTED BY RF-SCORE:    0.00 PKD
ROOT
HETATM    1  C   UNL     1     -11.307   9.608  70.163  1.00  0.00    -0.275 C  
HETATM    2  C   UNL     1     -10.835  10.841  69.406  1.00  0.00    -0.289 C  
ENDROOT
BRANCH   2   3
HETATM    3  C   UNL     1     -12.011  11.584  68.774  1.00  0.00    -0.271 C  
BRANCH   3   4
HETATM    4  N   UNL     1     -11.647  12.983  68.557  1.00  0.00    -0.305 NA 
HETATM    5  H   UNL     1     -10.670  13.164  68.788  1.00  0.00     0.000 HD 
BRANCH   4   6
HETATM    6  C   UNL     1     -11.967  13.384  67.179  1.00  0.00    -0.366 C  
BRANCH   6   7
HETATM    7  C   UNL     1     -11.930  12.173  66.229  1.00  0.00    -0.134 C  
HETATM    8  O   UNL     1     -12.871  12.345  65.158  1.00  0.00    -0.609 OA 
HETATM    9  H   UNL     1     -12.847  11.598  64.572  1.00  0.00     0.000 HD 
BRANCH   7  10
HETATM   10  C   UNL     1     -10.526  11.978  65.646  1.00  0.00    -0.256 C  
BRANCH  10  11
HETATM   11  O   UNL     1      -9.633  12.964  66.200  1.00  0.00    -0.260 OA 
BRANCH  11  12
HETATM   12  C   UNL     1      -8.563  12.457  66.893  1.00  0.00    -0.171 A  
HETATM   13  C   UNL     1      -7.636  13.342  67.481  1.00  0.00    -0.169 A  
HETATM   14  C   UNL     1      -8.332  11.075  66.973  1.00  0.00    -0.137 A  
HETATM   15  C   UNL     1      -6.540  12.819  68.188  1.00  0.00    -0.088 A  
HETATM   16  C   UNL     1      -7.229  10.572  67.662  1.00  0.00    -0.086 A  
HETATM   17  C   UNL     1      -6.336  11.441  68.273  1.00  0.00    -0.046 A  
BRANCH  13  18
HETATM   18  C   UNL     1      -7.799  14.831  67.399  1.00  0.00    -0.200 C  
HETATM   19  O   UNL     1      -7.004  15.508  66.752  1.00  0.00    -0.175 OA 
BRANCH  18  20
HETATM   20  C   UNL     1      -9.006  15.483  68.060  1.00  0.00    -0.174 C  
BRANCH  20  21
HETATM   21  C   UNL     1      -8.626  16.716  68.874  1.00  0.00    -0.235 C  
BRANCH  21  22
HETATM   22  C   UNL     1      -9.089  18.000  68.227  1.00  0.00    -0.284 A  
HETATM   23  C   UNL     1      -8.170  19.015  67.923  1.00  0.00    -0.311 A  
HETATM   24  C   UNL     1      -8.595  20.192  67.303  1.00  0.00    -0.414 A  
HETATM   25  C   UNL     1      -9.940  20.368  66.986  1.00  0.00    -0.568 A  
HETATM   26  C   UNL     1     -10.863  19.370  67.297  1.00  0.00    -0.561 A  
HETATM   27  C   UNL     1     -10.441  18.193  67.918  1.00  0.00    -0.408 A  
ENDBRANCH  21  22
ENDBRANCH  20  21
ENDBRANCH  18  20
ENDBRANCH  13  18
ENDBRANCH  11  12
ENDBRANCH  10  11
ENDBRANCH   7  10
ENDBRANCH   6   7
ENDBRANCH   4   6
ENDBRANCH   3   4
ENDBRANCH   2   3
TORSDOF 11
ENDMDL
MODEL      223
REMARK 921   NORMALIZED FREE ENERGY PREDICTED BY IDOCK:   -4.39 KCAL/MOL
REMARK 922        TOTAL FREE ENERGY PREDICTED BY IDOCK:   -8.22 KCAL/MOL
REMARK 923 INTER-LIGAND FREE ENERGY PREDICTED BY IDOCK:   -6.40 KCAL/MOL
REMARK 924 INTRA-LIGAND FREE ENERGY PREDICTED BY IDOCK:   -1.83 KCAL/MOL
REMARK 927      BINDING AFFINITY PREDICTED BY RF-SCORE:    0.00 PKD
ROOT
HETATM    1  C   UNL     1     -10.177  11.806  63.400  1.00  0.00    -0.482 C  
HETATM    2  C   UNL     1     -10.851  11.336  64.681  1.00  0.00    -0.335 C  
ENDROOT
BRANCH   2   3
HETATM    3  C   UNL     1     -11.451  12.511  65.453  1.00  0.00    -0.344 C  
BRANCH   3   4
HETATM    4  N   UNL     1     -12.015  12.033  66.713  1.00  0.00    -0.610 NA 
HETATM    5  H   UNL     1     -12.275  11.047  66.666  1.00  0.00     0.000 HD 
BRANCH   4   6
HETATM    6  C   UNL     1     -11.087  12.302  67.820  1.00  0.00    -0.255 C  
BRANCH   6   7
HETATM    7  C   UNL     1     -11.524  11.566  69.100  1.00  0.00    -0.297 C  
HETATM    8  O   UNL     1     -12.756  10.862  68.879  1.00  0.00    -0.600 OA 
HETATM    9  H   UNL     1     -13.025  10.408  69.669  1.00  0.00     0.000 HD 
BRANCH   7  10
HETATM   10  C   UNL     1     -10.447  10.575  69.556  1.00  0.00    -0.235 C  
BRANCH  10  11
HETATM   11  O   UNL     1     -10.640   9.313  68.890  1.00  0.00    -0.218 OA 
BRANCH  11  12
HETATM   12  C   UNL     1     -10.759   8.228  69.720  1.00  0.00    -0.221 A  
HETATM   13  C   UNL     1     -10.651   6.929  69.182  1.00  0.00    -0.245 A  
HETATM   14  C   UNL     1     -11.055   8.379  71.083  1.00  0.00    -0.301 A  
HETATM   15  C   UNL     1     -10.775   5.819  70.036  1.00  0.00    -0.400 A  
HETATM   16  C   UNL     1     -11.195   7.268  71.914  1.00  0.00    -0.281 A  
HETATM   17  C   UNL     1     -11.050   5.989  71.393  1.00  0.00    -0.336 A  
BRANCH  13  18
HETATM   18  C   UNL     1     -10.377   6.692  67.727  1.00  0.00    -0.196 C  
HETATM   19  O   UNL     1     -11.270   6.294  66.983  1.00  0.00    -0.336 OA 
BRANCH  18  20
HETATM   20  C   UNL     1      -9.001   7.029  67.166  1.00  0.00    -0.123 C  
BRANCH  20  21
HETATM   21  C   UNL     1      -7.873   6.605  68.101  1.00  0.00    -0.110 C  
BRANCH  21  22
HETATM   22  C   UNL     1      -7.380   7.743  68.963  1.00  0.00    -0.089 A  
HETATM   23  C   UNL     1      -7.044   8.978  68.390  1.00  0.00    -0.076 A  
HETATM   24  C   UNL     1      -6.611  10.037  69.191  1.00  0.00    -0.053 A  
HETATM   25  C   UNL     1      -6.505   9.871  70.570  1.00  0.00    -0.116 A  
HETATM   26  C   UNL     1      -6.824   8.643  71.148  1.00  0.00    -0.071 A  
HETATM   27  C   UNL     1      -7.255   7.582  70.349  1.00  0.00    -0.064 A  
ENDBRANCH  21  22
ENDBRANCH  20  21
ENDBRANCH  18  20
ENDBRANCH  13  18
ENDBRANCH  11  12
ENDBRANCH  10  11
ENDBRANCH   7  10
ENDBRANCH   6   7
ENDBRANCH   4   6
ENDBRANCH   3   4
ENDBRANCH   2   3
TORSDOF 11
ENDMDL
MODEL      224
REMARK 921   NORMALIZED FREE ENERGY PREDICTED BY IDOCK:   -4.37 KCAL/MOL
REMARK 922        TOTAL FREE ENERGY PREDICTED BY IDOCK:   -8.20 KCAL/MOL
REMARK 923 INTER-LIGAND FREE ENERGY PREDICTED BY IDOCK:   -6.11 KCAL/MOL
REMARK 924 INTRA-LIGAND FREE ENERGY PREDICTED BY IDOCK:   -2.09 KCAL/MOL
REMARK 927      BINDING AFFINITY PREDICTED BY RF-SCORE:    0.00 PKD
ROOT
HETATM    1  C   UNL     1     -11.989  14.260  67.313  1.00  0.00    -0.439 C  
HETATM    2  C   UNL     1     -11.090  13.117  67.761  1.00  0.00    -0.287 C  
ENDROOT
BRANCH   2   3
HETATM    3  C   UNL     1     -11.435  11.822  67.028  1.00  0.00    -0.298 C  
BRANCH   3   4
HETATM    4  N   UNL     1     -10.320  10.884  67.138  1.00  0.00    -0.210 NA 
HETATM    5  H   UNL     1     -10.407  10.110  66.478  1.00  0.00     0.000 HD 
BRANCH   4   6
HETATM    6  C   UNL     1      -9.042  11.593  66.985  1.00  0.00    -0.179 C  
BRANCH   6   7
HETATM    7  C   UNL     1      -8.039  11.165  68.071  1.00  0.00    -0.123 C  
HETATM    8  O   UNL     1      -8.666  11.166  69.363  1.00  0.00    -0.376 OA 
HETATM    9  H   UNL     1      -8.047  10.902  70.034  1.00  0.00     0.000 HD 
BRANCH   7  10
HETATM   10  C   UNL     1      -7.479   9.767  67.780  1.00  0.00    -0.090 C  
BRANCH  10  11
HETATM   11  O   UNL     1      -8.027   8.823  68.720  1.00  0.00    -0.103 OA 
BRANCH  11  12
HETATM   12  C   UNL     1      -8.889   7.901  68.184  1.00  0.00    -0.125 A  
HETATM   13  C   UNL     1     -10.157   7.713  68.773  1.00  0.00    -0.202 A  
HETATM   14  C   UNL     1      -8.512   7.090  67.103  1.00  0.00    -0.121 A  
HETATM   15  C   UNL     1     -11.036   6.765  68.222  1.00  0.00    -0.270 A  
HETATM   16  C   UNL     1      -9.389   6.140  66.580  1.00  0.00    -0.171 A  
HETATM   17  C   UNL     1     -10.652   5.981  67.135  1.00  0.00    -0.374 A  
BRANCH  13  18
HETATM   18  C   UNL     1     -10.609   8.516  69.956  1.00  0.00    -0.227 C  
HETATM   19  O   UNL     1     -11.196   9.584  69.795  1.00  0.00    -0.223 OA 
BRANCH  18  20
HETATM   20  C   UNL     1     -10.407   7.953  71.357  1.00  0.00    -0.234 C  
BRANCH  20  21
HETATM   21  C   UNL     1     -11.526   7.001  71.767  1.00  0.00    -0.301 C  
BRANCH  21  22
HETATM   22  C   UNL     1     -11.018   5.612  72.074  1.00  0.00    -0.302 A  
HETATM   23  C   UNL     1     -11.362   4.978  73.277  1.00  0.00    -0.393 A  
HETATM   24  C   UNL     1     -10.912   3.685  73.549  1.00  0.00    -0.333 A  
HETATM   25  C   UNL     1     -10.111   3.015  72.626  1.00  0.00    -0.231 A  
HETATM   26  C   UNL     1      -9.754   3.642  71.434  1.00  0.00    -0.241 A  
HETATM   27  C   UNL     1     -10.201   4.936  71.160  1.00  0.00    -0.261 A  
ENDBRANCH  21  22
ENDBRANCH  20  21
ENDBRANCH  18  20
ENDBRANCH  13  18
ENDBRANCH  11  12
ENDBRANCH  10  11
ENDBRANCH   7  10
ENDBRANCH   6   7
ENDBRANCH   4   6
ENDBRANCH   3   4
ENDBRANCH   2   3
TORSDOF 11
ENDMDL
MODEL      225
REMARK 921   NORMALIZED FREE ENERGY PREDICTED BY IDOCK:   -4.37 KCAL/MOL
REMARK 922        TOTAL FREE ENERGY PREDICTED BY IDOCK:   -8.20 KCAL/MOL
REMARK 923 INTER-LIGAND FREE ENERGY PREDICTED BY IDOCK:   -6.94 KCAL/MOL
REMARK 924 INTRA-LIGAND FREE ENERGY PREDICTED BY IDOCK:   -1.26 KCAL/MOL
REMARK 927      BINDING AFFINITY PREDICTED BY RF-SCORE:    0.00 PKD
ROOT
HETATM    1  C   UNL     1      -8.637   4.795  70.045  1.00  0.00    -0.102 C  
HETATM    2  C   UNL     1      -8.481   5.287  71.476  1.00  0.00    -0.122 C  
ENDROOT
BRANCH   2   3
HETATM    3  C   UNL     1      -8.966   6.729  71.621  1.00  0.00    -0.136 C  
BRANCH   3   4
HETATM    4  N   UNL     1      -9.215   7.299  70.299  1.00  0.00    -0.155 NA 
HETATM    5  H   UNL     1     -10.125   7.023  69.930  1.00  0.00     0.000 HD 
BRANCH   4   6
HETATM    6  C   UNL     1      -9.058   8.760  70.337  1.00  0.00    -0.176 C  
BRANCH   6   7
HETATM    7  C   UNL     1     -10.020   9.445  69.350  1.00  0.00    -0.183 C  
HETATM    8  O   UNL     1     -10.298  10.790  69.769  1.00  0.00    -0.417 OA 
HETATM    9  H   UNL     1     -10.892  11.212  69.159  1.00  0.00     0.000 HD 
BRANCH   7  10
HETATM   10  C   UNL     1      -9.430   9.464  67.935  1.00  0.00    -0.132 C  
BRANCH  10  11
HETATM   11  O   UNL     1      -9.332  10.826  67.473  1.00  0.00    -0.146 OA 
BRANCH  11  12
HETATM   12  C   UNL     1      -9.676  11.022  66.160  1.00  0.00    -0.217 A  
HETATM   13  C   UNL     1     -10.816  11.793  65.851  1.00  0.00    -0.339 A  
HETATM   14  C   UNL     1      -8.958  10.418  65.118  1.00  0.00    -0.217 A  
HETATM   15  C   UNL     1     -11.166  11.990  64.505  1.00  0.00    -0.390 A  
HETATM   16  C   UNL     1      -9.330  10.607  63.787  1.00  0.00    -0.304 A  
HETATM   17  C   UNL     1     -10.430  11.397  63.480  1.00  0.00    -0.477 A  
BRANCH  13  18
HETATM   18  C   UNL     1     -11.653  12.434  66.917  1.00  0.00    -0.370 C  
HETATM   19  O   UNL     1     -12.263  11.742  67.729  1.00  0.00    -0.536 OA 
BRANCH  18  20
HETATM   20  C   UNL     1     -11.673  13.953  67.032  1.00  0.00    -0.426 C  
BRANCH  20  21
HETATM   21  C   UNL     1     -10.576  14.479  67.952  1.00  0.00    -0.243 C  
BRANCH  21  22
HETATM   22  C   UNL     1     -10.196  15.907  67.638  1.00  0.00    -0.263 A  
HETATM   23  C   UNL     1     -10.785  16.971  68.337  1.00  0.00    -0.361 A  
HETATM   24  C   UNL     1     -10.415  18.289  68.063  1.00  0.00    -0.387 A  
HETATM   25  C   UNL     1      -9.458  18.558  67.087  1.00  0.00    -0.294 A  
HETATM   26  C   UNL     1      -8.878  17.508  66.377  1.00  0.00    -0.269 A  
HETATM   27  C   UNL     1      -9.247  16.189  66.648  1.00  0.00    -0.273 A  
ENDBRANCH  21  22
ENDBRANCH  20  21
ENDBRANCH  18  20
ENDBRANCH  13  18
ENDBRANCH  11  12
ENDBRANCH  10  11
ENDBRANCH   7  10
ENDBRANCH   6   7
ENDBRANCH   4   6
ENDBRANCH   3   4
ENDBRANCH   2   3
TORSDOF 11
ENDMDL
MODEL      226
REMARK 921   NORMALIZED FREE ENERGY PREDICTED BY IDOCK:   -4.35 KCAL/MOL
REMARK 922        TOTAL FREE ENERGY PREDICTED BY IDOCK:   -8.16 KCAL/MOL
REMARK 923 INTER-LIGAND FREE ENERGY PREDICTED BY IDOCK:   -7.29 KCAL/MOL
REMARK 924 INTRA-LIGAND FREE ENERGY PREDICTED BY IDOCK:   -0.87 KCAL/MOL
REMARK 927      BINDING AFFINITY PREDICTED BY RF-SCORE:    0.00 PKD
ROOT
HETATM    1  C   UNL     1      -6.426  10.366  62.762  1.00  0.00    -0.132 C  
HETATM    2  C   UNL     1      -7.173   9.190  63.372  1.00  0.00    -0.095 C  
ENDROOT
BRANCH   2   3
HETATM    3  C   UNL     1      -8.414   9.657  64.132  1.00  0.00    -0.180 C  
BRANCH   3   4
HETATM    4  N   UNL     1      -9.545   9.756  63.212  1.00  0.00    -0.513 NA 
HETATM    5  H   UNL     1     -10.278   9.082  63.435  1.00  0.00     0.000 HD 
BRANCH   4   6
HETATM    6  C   UNL     1     -10.057  11.133  63.182  1.00  0.00    -0.330 C  
BRANCH   6   7
HETATM    7  C   UNL     1     -10.436  11.612  64.595  1.00  0.00    -0.302 C  
HETATM    8  O   UNL     1      -9.406  12.453  65.135  1.00  0.00    -0.440 OA 
HETATM    9  H   UNL     1      -9.640  12.749  66.007  1.00  0.00     0.000 HD 
BRANCH   7  10
HETATM   10  C   UNL     1     -11.762  12.383  64.574  1.00  0.00    -0.362 C  
BRANCH  10  11
HETATM   11  O   UNL     1     -12.383  12.308  65.873  1.00  0.00    -0.618 OA 
BRANCH  11  12
HETATM   12  C   UNL     1     -11.901  13.196  66.801  1.00  0.00    -0.385 A  
HETATM   13  C   UNL     1     -11.621  12.747  68.108  1.00  0.00    -0.380 A  
HETATM   14  C   UNL     1     -11.745  14.557  66.498  1.00  0.00    -0.380 A  
HETATM   15  C   UNL     1     -11.130  13.660  69.056  1.00  0.00    -0.295 A  
HETATM   16  C   UNL     1     -11.275  15.454  67.456  1.00  0.00    -0.302 A  
HETATM   17  C   UNL     1     -10.962  15.007  68.733  1.00  0.00    -0.259 A  
BRANCH  13  18
HETATM   18  C   UNL     1     -11.804  11.315  68.512  1.00  0.00    -0.285 C  
HETATM   19  O   UNL     1     -12.755  10.985  69.217  1.00  0.00    -0.280 OA 
BRANCH  18  20
HETATM   20  C   UNL     1     -10.845  10.262  67.971  1.00  0.00    -0.325 C  
BRANCH  20  21
HETATM   21  C   UNL     1      -9.497  10.285  68.684  1.00  0.00    -0.169 C  
BRANCH  21  22
HETATM   22  C   UNL     1      -9.375   9.195  69.723  1.00  0.00    -0.190 A  
HETATM   23  C   UNL     1      -8.481   8.131  69.538  1.00  0.00    -0.127 A  
HETATM   24  C   UNL     1      -8.352   7.138  70.511  1.00  0.00    -0.131 A  
HETATM   25  C   UNL     1      -9.118   7.194  71.673  1.00  0.00    -0.141 A  
HETATM   26  C   UNL     1     -10.019   8.241  71.859  1.00  0.00    -0.299 A  
HETATM   27  C   UNL     1     -10.152   9.235  70.888  1.00  0.00    -0.373 A  
ENDBRANCH  21  22
ENDBRANCH  20  21
ENDBRANCH  18  20
ENDBRANCH  13  18
ENDBRANCH  11  12
ENDBRANCH  10  11
ENDBRANCH   7  10
ENDBRANCH   6   7
ENDBRANCH   4   6
ENDBRANCH   3   4
ENDBRANCH   2   3
TORSDOF 11
ENDMDL
MODEL      227
REMARK 921   NORMALIZED FREE ENERGY PREDICTED BY IDOCK:   -4.35 KCAL/MOL
REMARK 922        TOTAL FREE ENERGY PREDICTED BY IDOCK:   -8.16 KCAL/MOL
REMARK 923 INTER-LIGAND FREE ENERGY PREDICTED BY IDOCK:   -6.49 KCAL/MOL
REMARK 924 INTRA-LIGAND FREE ENERGY PREDICTED BY IDOCK:   -1.67 KCAL/MOL
REMARK 927      BINDING AFFINITY PREDICTED BY RF-SCORE:    0.00 PKD
ROOT
HETATM    1  C   UNL     1     -10.531  12.388  64.834  1.00  0.00    -0.327 C  
HETATM    2  C   UNL     1     -10.988  12.176  63.399  1.00  0.00    -0.480 C  
ENDROOT
BRANCH   2   3
HETATM    3  C   UNL     1     -10.031  11.254  62.645  1.00  0.00    -0.018 C  
BRANCH   3   4
HETATM    4  N   UNL     1      -9.799  10.041  63.426  1.00  0.00    -0.499 NA 
HETATM    5  H   UNL     1     -10.656   9.502  63.555  1.00  0.00     0.000 HD 
BRANCH   4   6
HETATM    6  C   UNL     1      -8.733   9.237  62.812  1.00  0.00    -0.214 C  
BRANCH   6   7
HETATM    7  C   UNL     1      -7.447   9.288  63.656  1.00  0.00    -0.106 C  
HETATM    8  O   UNL     1      -6.832  10.582  63.560  1.00  0.00    -0.317 OA 
HETATM    9  H   UNL     1      -6.039  10.612  64.081  1.00  0.00     0.000 HD 
BRANCH   7  10
HETATM   10  C   UNL     1      -7.746   8.975  65.128  1.00  0.00    -0.101 C  
BRANCH  10  11
HETATM   11  O   UNL     1      -8.274  10.151  65.772  1.00  0.00    -0.132 OA 
BRANCH  11  12
HETATM   12  C   UNL     1      -7.685  10.474  66.967  1.00  0.00    -0.110 A  
HETATM   13  C   UNL     1      -8.366  10.200  68.171  1.00  0.00    -0.117 A  
HETATM   14  C   UNL     1      -6.448  11.134  67.018  1.00  0.00    -0.107 A  
HETATM   15  C   UNL     1      -7.759  10.535  69.394  1.00  0.00    -0.157 A  
HETATM   16  C   UNL     1      -5.868  11.477  68.239  1.00  0.00    -0.045 A  
HETATM   17  C   UNL     1      -6.520  11.174  69.427  1.00  0.00    -0.100 A  
BRANCH  13  18
HETATM   18  C   UNL     1      -9.709   9.534  68.190  1.00  0.00    -0.147 C  
HETATM   19  O   UNL     1      -9.809   8.345  68.483  1.00  0.00    -0.164 OA 
BRANCH  18  20
HETATM   20  C   UNL     1     -10.955  10.368  67.922  1.00  0.00    -0.354 C  
BRANCH  20  21
HETATM   21  C   UNL     1     -10.827  11.791  68.457  1.00  0.00    -0.261 C  
BRANCH  21  22
HETATM   22  C   UNL     1     -11.667  12.022  69.691  1.00  0.00    -0.405 A  
HETATM   23  C   UNL     1     -12.194  10.937  70.408  1.00  0.00    -0.453 A  
HETATM   24  C   UNL     1     -12.951  11.151  71.561  1.00  0.00    -0.542 A  
HETATM   25  C   UNL     1     -13.193  12.448  72.006  1.00  0.00    -0.514 A  
HETATM   26  C   UNL     1     -12.686  13.533  71.294  1.00  0.00    -0.432 A  
HETATM   27  C   UNL     1     -11.930  13.322  70.139  1.00  0.00    -0.388 A  
ENDBRANCH  21  22
ENDBRANCH  20  21
ENDBRANCH  18  20
ENDBRANCH  13  18
ENDBRANCH  11  12
ENDBRANCH  10  11
ENDBRANCH   7  10
ENDBRANCH   6   7
ENDBRANCH   4   6
ENDBRANCH   3   4
ENDBRANCH   2   3
TORSDOF 11
ENDMDL
MODEL      228
REMARK 921   NORMALIZED FREE ENERGY PREDICTED BY IDOCK:   -4.35 KCAL/MOL
REMARK 922        TOTAL FREE ENERGY PREDICTED BY IDOCK:   -8.16 KCAL/MOL
REMARK 923 INTER-LIGAND FREE ENERGY PREDICTED BY IDOCK:   -7.08 KCAL/MOL
REMARK 924 INTRA-LIGAND FREE ENERGY PREDICTED BY IDOCK:   -1.08 KCAL/MOL
REMARK 927      BINDING AFFINITY PREDICTED BY RF-SCORE:    0.00 PKD
ROOT
HETATM    1  C   UNL     1      -5.961   7.231  64.565  1.00  0.00    -0.037 C  
HETATM    2  C   UNL     1      -7.068   8.269  64.674  1.00  0.00    -0.080 C  
ENDROOT
BRANCH   2   3
HETATM    3  C   UNL     1      -8.390   7.625  65.091  1.00  0.00    -0.093 C  
BRANCH   3   4
HETATM    4  N   UNL     1      -8.136   6.298  65.648  1.00  0.00    -0.122 NA 
HETATM    5  H   UNL     1      -7.139   6.128  65.789  1.00  0.00     0.000 HD 
BRANCH   4   6
HETATM    6  C   UNL     1      -8.905   6.110  66.886  1.00  0.00    -0.117 C  
BRANCH   6   7
HETATM    7  C   UNL     1     -10.418   6.177  66.611  1.00  0.00    -0.202 C  
HETATM    8  O   UNL     1     -10.863   4.983  65.950  1.00  0.00    -0.616 OA 
HETATM    9  H   UNL     1     -11.797   5.025  65.781  1.00  0.00     0.000 HD 
BRANCH   7  10
HETATM   10  C   UNL     1     -11.203   6.359  67.916  1.00  0.00    -0.154 C  
BRANCH  10  11
HETATM   11  O   UNL     1     -10.692   7.500  68.631  1.00  0.00    -0.171 OA 
BRANCH  11  12
HETATM   12  C   UNL     1     -11.013   7.545  69.963  1.00  0.00    -0.240 A  
HETATM   13  C   UNL     1     -11.072   8.791  70.620  1.00  0.00    -0.285 A  
HETATM   14  C   UNL     1     -11.218   6.372  70.706  1.00  0.00    -0.386 A  
HETATM   15  C   UNL     1     -11.399   8.833  71.986  1.00  0.00    -0.441 A  
HETATM   16  C   UNL     1     -11.523   6.429  72.065  1.00  0.00    -0.350 A  
HETATM   17  C   UNL     1     -11.619   7.658  72.705  1.00  0.00    -0.371 A  
BRANCH  13  18
HETATM   18  C   UNL     1     -10.824  10.082  69.898  1.00  0.00    -0.285 C  
HETATM   19  O   UNL     1      -9.685  10.396  69.560  1.00  0.00    -0.219 OA 
BRANCH  18  20
HETATM   20  C   UNL     1     -12.009  10.959  69.516  1.00  0.00    -0.401 C  
BRANCH  20  21
HETATM   21  C   UNL     1     -11.681  12.447  69.602  1.00  0.00    -0.377 C  
BRANCH  21  22
HETATM   22  C   UNL     1     -11.600  13.099  68.242  1.00  0.00    -0.370 A  
HETATM   23  C   UNL     1     -11.789  12.343  67.076  1.00  0.00    -0.368 A  
HETATM   24  C   UNL     1     -11.738  12.952  65.821  1.00  0.00    -0.437 A  
HETATM   25  C   UNL     1     -11.493  14.319  65.717  1.00  0.00    -0.335 A  
HETATM   26  C   UNL     1     -11.291  15.077  66.869  1.00  0.00    -0.302 A  
HETATM   27  C   UNL     1     -11.340  14.470  68.126  1.00  0.00    -0.319 A  
ENDBRANCH  21  22
ENDBRANCH  20  21
ENDBRANCH  18  20
ENDBRANCH  13  18
ENDBRANCH  11  12
ENDBRANCH  10  11
ENDBRANCH   7  10
ENDBRANCH   6   7
ENDBRANCH   4   6
ENDBRANCH   3   4
ENDBRANCH   2   3
TORSDOF 11
ENDMDL
MODEL      229
REMARK 921   NORMALIZED FREE ENERGY PREDICTED BY IDOCK:   -4.34 KCAL/MOL
REMARK 922        TOTAL FREE ENERGY PREDICTED BY IDOCK:   -8.14 KCAL/MOL
REMARK 923 INTER-LIGAND FREE ENERGY PREDICTED BY IDOCK:   -7.91 KCAL/MOL
REMARK 924 INTRA-LIGAND FREE ENERGY PREDICTED BY IDOCK:   -0.24 KCAL/MOL
REMARK 927      BINDING AFFINITY PREDICTED BY RF-SCORE:    0.00 PKD
ROOT
HETATM    1  C   UNL     1     -13.137  14.953  73.166  1.00  0.00    -0.615 C  
HETATM    2  C   UNL     1     -12.186  15.864  72.404  1.00  0.00    -0.591 C  
ENDROOT
BRANCH   2   3
HETATM    3  C   UNL     1     -12.357  15.704  70.895  1.00  0.00    -0.429 C  
BRANCH   3   4
HETATM    4  N   UNL     1     -13.126  14.493  70.613  1.00  0.00    -0.484 NA 
HETATM    5  H   UNL     1     -13.717  14.600  69.788  1.00  0.00     0.000 HD 
BRANCH   4   6
HETATM    6  C   UNL     1     -12.228  13.336  70.497  1.00  0.00    -0.340 C  
BRANCH   6   7
HETATM    7  C   UNL     1     -11.544  13.303  69.118  1.00  0.00    -0.319 C  
HETATM    8  O   UNL     1     -10.344  14.092  69.133  1.00  0.00    -0.389 OA 
HETATM    9  H   UNL     1      -9.923  14.071  68.282  1.00  0.00     0.000 HD 
BRANCH   7  10
HETATM   10  C   UNL     1     -11.202  11.865  68.711  1.00  0.00    -0.259 C  
BRANCH  10  11
HETATM   11  O   UNL     1     -11.974  11.496  67.552  1.00  0.00    -0.629 OA 
BRANCH  11  12
HETATM   12  C   UNL     1     -11.735  12.248  66.429  1.00  0.00    -0.365 A  
HETATM   13  C   UNL     1     -10.672  11.894  65.573  1.00  0.00    -0.329 A  
HETATM   14  C   UNL     1     -12.482  13.402  66.149  1.00  0.00    -0.389 A  
HETATM   15  C   UNL     1     -10.429  12.667  64.425  1.00  0.00    -0.398 A  
HETATM   16  C   UNL     1     -12.215  14.170  65.016  1.00  0.00    -0.450 A  
HETATM   17  C   UNL     1     -11.193  13.801  64.152  1.00  0.00    -0.238 A  
BRANCH  13  18
HETATM   18  C   UNL     1      -9.807  10.696  65.833  1.00  0.00    -0.243 C  
HETATM   19  O   UNL     1     -10.120   9.595  65.386  1.00  0.00    -0.272 OA 
BRANCH  18  20
HETATM   20  C   UNL     1      -8.497  10.877  66.588  1.00  0.00    -0.151 C  
BRANCH  20  21
HETATM   21  C   UNL     1      -7.793   9.550  66.854  1.00  0.00    -0.101 C  
BRANCH  21  22
HETATM   22  C   UNL     1      -8.208   8.930  68.167  1.00  0.00    -0.114 A  
HETATM   23  C   UNL     1      -8.300   9.712  69.328  1.00  0.00    -0.137 A  
HETATM   24  C   UNL     1      -8.708   9.142  70.535  1.00  0.00    -0.258 A  
HETATM   25  C   UNL     1      -9.022   7.786  70.597  1.00  0.00    -0.145 A  
HETATM   26  C   UNL     1      -8.921   6.998  69.452  1.00  0.00    -0.139 A  
HETATM   27  C   UNL     1      -8.512   7.565  68.243  1.00  0.00    -0.125 A  
ENDBRANCH  21  22
ENDBRANCH  20  21
ENDBRANCH  18  20
ENDBRANCH  13  18
ENDBRANCH  11  12
ENDBRANCH  10  11
ENDBRANCH   7  10
ENDBRANCH   6   7
ENDBRANCH   4   6
ENDBRANCH   3   4
ENDBRANCH   2   3
TORSDOF 11
ENDMDL
MODEL      230
REMARK 921   NORMALIZED FREE ENERGY PREDICTED BY IDOCK:   -4.33 KCAL/MOL
REMARK 922        TOTAL FREE ENERGY PREDICTED BY IDOCK:   -8.13 KCAL/MOL
REMARK 923 INTER-LIGAND FREE ENERGY PREDICTED BY IDOCK:   -6.76 KCAL/MOL
REMARK 924 INTRA-LIGAND FREE ENERGY PREDICTED BY IDOCK:   -1.38 KCAL/MOL
REMARK 927      BINDING AFFINITY PREDICTED BY RF-SCORE:    0.00 PKD
ROOT
HETATM    1  C   UNL     1     -12.725  13.976  65.318  1.00  0.00    -0.468 C  
HETATM    2  C   UNL     1     -12.121  12.582  65.399  1.00  0.00    -0.494 C  
ENDROOT
BRANCH   2   3
HETATM    3  C   UNL     1     -10.865  12.574  66.268  1.00  0.00    -0.268 C  
BRANCH   3   4
HETATM    4  N   UNL     1     -10.455  11.195  66.526  1.00  0.00    -0.247 NA 
HETATM    5  H   UNL     1     -10.497  10.620  65.684  1.00  0.00     0.000 HD 
BRANCH   4   6
HETATM    6  C   UNL     1      -9.120  11.168  67.141  1.00  0.00    -0.147 C  
BRANCH   6   7
HETATM    7  C   UNL     1      -8.775   9.757  67.650  1.00  0.00    -0.125 C  
HETATM    8  O   UNL     1      -7.580   9.787  68.446  1.00  0.00    -0.079 OA 
HETATM    9  H   UNL     1      -7.367   8.916  68.760  1.00  0.00     0.000 HD 
BRANCH   7  10
HETATM   10  C   UNL     1      -9.925   9.179  68.483  1.00  0.00    -0.174 C  
BRANCH  10  11
HETATM   11  O   UNL     1      -9.743   9.533  69.868  1.00  0.00    -0.194 OA 
BRANCH  11  12
HETATM   12  C   UNL     1     -10.866   9.997  70.503  1.00  0.00    -0.314 A  
HETATM   13  C   UNL     1     -11.328   9.339  71.661  1.00  0.00    -0.467 A  
HETATM   14  C   UNL     1     -11.605  11.073  69.988  1.00  0.00    -0.427 A  
HETATM   15  C   UNL     1     -12.481   9.817  72.308  1.00  0.00    -0.180 A  
HETATM   16  C   UNL     1     -12.758  11.523  70.632  1.00  0.00    -0.259 A  
HETATM   17  C   UNL     1     -13.193  10.899  71.793  1.00  0.00    -0.513 A  
BRANCH  13  18
HETATM   18  C   UNL     1     -10.610   8.158  72.243  1.00  0.00    -0.309 C  
HETATM   19  O   UNL     1      -9.448   8.265  72.629  1.00  0.00    -0.248 OA 
BRANCH  18  20
HETATM   20  C   UNL     1     -11.364   6.847  72.427  1.00  0.00    -0.308 C  
BRANCH  20  21
HETATM   21  C   UNL     1     -11.830   6.256  71.101  1.00  0.00    -0.234 C  
BRANCH  21  22
HETATM   22  C   UNL     1     -10.763   5.421  70.434  1.00  0.00    -0.276 A  
HETATM   23  C   UNL     1     -10.455   5.608  69.079  1.00  0.00    -0.321 A  
HETATM   24  C   UNL     1      -9.451   4.852  68.470  1.00  0.00    -0.194 A  
HETATM   25  C   UNL     1      -8.750   3.900  69.206  1.00  0.00    -0.127 A  
HETATM   26  C   UNL     1      -9.057   3.698  70.551  1.00  0.00    -0.186 A  
HETATM   27  C   UNL     1     -10.062   4.451  71.162  1.00  0.00    -0.196 A  
ENDBRANCH  21  22
ENDBRANCH  20  21
ENDBRANCH  18  20
ENDBRANCH  13  18
ENDBRANCH  11  12
ENDBRANCH  10  11
ENDBRANCH   7  10
ENDBRANCH   6   7
ENDBRANCH   4   6
ENDBRANCH   3   4
ENDBRANCH   2   3
TORSDOF 11
ENDMDL
MODEL      231
REMARK 921   NORMALIZED FREE ENERGY PREDICTED BY IDOCK:   -4.33 KCAL/MOL
REMARK 922        TOTAL FREE ENERGY PREDICTED BY IDOCK:   -8.13 KCAL/MOL
REMARK 923 INTER-LIGAND FREE ENERGY PREDICTED BY IDOCK:   -6.44 KCAL/MOL
REMARK 924 INTRA-LIGAND FREE ENERGY PREDICTED BY IDOCK:   -1.69 KCAL/MOL
REMARK 927      BINDING AFFINITY PREDICTED BY RF-SCORE:    0.00 PKD
ROOT
HETATM    1  C   UNL     1     -10.492  10.605  69.665  1.00  0.00    -0.219 C  
HETATM    2  C   UNL     1     -11.482  11.132  68.639  1.00  0.00    -0.363 C  
ENDROOT
BRANCH   2   3
HETATM    3  C   UNL     1     -12.125  12.436  69.110  1.00  0.00    -0.146 C  
BRANCH   3   4
HETATM    4  N   UNL     1     -11.133  13.247  69.814  1.00  0.00    -0.470 NA 
HETATM    5  H   UNL     1     -10.507  13.728  69.168  1.00  0.00     0.000 HD 
BRANCH   4   6
HETATM    6  C   UNL     1     -11.799  14.182  70.730  1.00  0.00    -0.242 C  
BRANCH   6   7
HETATM    7  C   UNL     1     -12.707  15.158  69.960  1.00  0.00    -0.164 C  
HETATM    8  O   UNL     1     -13.753  15.651  70.811  1.00  0.00    -0.843 OA 
HETATM    9  H   UNL     1     -14.313  16.253  70.336  1.00  0.00     0.000 HD 
BRANCH   7  10
HETATM   10  C   UNL     1     -11.899  16.340  69.411  1.00  0.00    -0.021 C  
BRANCH  10  11
HETATM   11  O   UNL     1     -11.275  15.960  68.169  1.00  0.00    -0.338 OA 
BRANCH  11  12
HETATM   12  C   UNL     1     -10.413  16.888  67.643  1.00  0.00    -0.332 A  
HETATM   13  C   UNL     1      -9.301  16.454  66.892  1.00  0.00    -0.244 A  
HETATM   14  C   UNL     1     -10.573  18.260  67.893  1.00  0.00    -0.392 A  
HETATM   15  C   UNL     1      -8.419  17.408  66.356  1.00  0.00    -0.292 A  
HETATM   16  C   UNL     1      -9.678  19.193  67.370  1.00  0.00    -0.389 A  
HETATM   17  C   UNL     1      -8.605  18.769  66.598  1.00  0.00    -0.306 A  
BRANCH  13  18
HETATM   18  C   UNL     1      -9.045  15.001  66.620  1.00  0.00    -0.280 C  
HETATM   19  O   UNL     1      -9.650  14.421  65.722  1.00  0.00    -0.273 OA 
BRANCH  18  20
HETATM   20  C   UNL     1      -7.969  14.275  67.417  1.00  0.00    -0.211 C  
BRANCH  20  21
HETATM   21  C   UNL     1      -8.390  12.862  67.807  1.00  0.00    -0.178 C  
BRANCH  21  22
HETATM   22  C   UNL     1      -7.596  11.803  67.078  1.00  0.00    -0.147 A  
HETATM   23  C   UNL     1      -8.246  10.718  66.471  1.00  0.00    -0.148 A  
HETATM   24  C   UNL     1      -7.513   9.752  65.778  1.00  0.00    -0.105 A  
HETATM   25  C   UNL     1      -6.127   9.858  65.689  1.00  0.00    -0.075 A  
HETATM   26  C   UNL     1      -5.472  10.925  66.300  1.00  0.00    -0.120 A  
HETATM   27  C   UNL     1      -6.201  11.891  66.995  1.00  0.00    -0.145 A  
ENDBRANCH  21  22
ENDBRANCH  20  21
ENDBRANCH  18  20
ENDBRANCH  13  18
ENDBRANCH  11  12
ENDBRANCH  10  11
ENDBRANCH   7  10
ENDBRANCH   6   7
ENDBRANCH   4   6
ENDBRANCH   3   4
ENDBRANCH   2   3
TORSDOF 11
ENDMDL
MODEL      232
REMARK 921   NORMALIZED FREE ENERGY PREDICTED BY IDOCK:   -4.32 KCAL/MOL
REMARK 922        TOTAL FREE ENERGY PREDICTED BY IDOCK:   -8.11 KCAL/MOL
REMARK 923 INTER-LIGAND FREE ENERGY PREDICTED BY IDOCK:   -7.59 KCAL/MOL
REMARK 924 INTRA-LIGAND FREE ENERGY PREDICTED BY IDOCK:   -0.52 KCAL/MOL
REMARK 927      BINDING AFFINITY PREDICTED BY RF-SCORE:    0.00 PKD
ROOT
HETATM    1  C   UNL     1      -7.614  18.639  67.551  1.00  0.00    -0.239 C  
HETATM    2  C   UNL     1      -8.375  19.940  67.343  1.00  0.00    -0.366 C  
ENDROOT
BRANCH   2   3
HETATM    3  C   UNL     1      -9.838  19.674  66.991  1.00  0.00    -0.374 C  
BRANCH   3   4
HETATM    4  N   UNL     1     -10.119  18.245  67.106  1.00  0.00    -0.339 NA 
HETATM    5  H   UNL     1     -10.842  18.053  67.800  1.00  0.00     0.000 HD 
BRANCH   4   6
HETATM    6  C   UNL     1     -10.461  17.686  65.791  1.00  0.00    -0.205 C  
BRANCH   6   7
HETATM    7  C   UNL     1     -10.790  16.186  65.896  1.00  0.00    -0.177 C  
HETATM    8  O   UNL     1     -10.807  15.582  64.593  1.00  0.00    -0.608 OA 
HETATM    9  H   UNL     1     -11.010  14.656  64.659  1.00  0.00     0.000 HD 
BRANCH   7  10
HETATM   10  C   UNL     1      -9.766  15.462  66.778  1.00  0.00    -0.240 C  
BRANCH  10  11
HETATM   11  O   UNL     1     -10.242  14.135  67.078  1.00  0.00    -0.256 OA 
BRANCH  11  12
HETATM   12  C   UNL     1     -10.909  14.011  68.270  1.00  0.00    -0.255 A  
HETATM   13  C   UNL     1     -11.563  12.800  68.575  1.00  0.00    -0.358 A  
HETATM   14  C   UNL     1     -11.013  15.087  69.165  1.00  0.00    -0.265 A  
HETATM   15  C   UNL     1     -12.247  12.678  69.796  1.00  0.00    -0.209 A  
HETATM   16  C   UNL     1     -11.713  14.956  70.364  1.00  0.00    -0.347 A  
HETATM   17  C   UNL     1     -12.325  13.751  70.683  1.00  0.00    -0.445 A  
BRANCH  13  18
HETATM   18  C   UNL     1     -11.527  11.623  67.646  1.00  0.00    -0.303 C  
HETATM   19  O   UNL     1     -11.808  11.760  66.458  1.00  0.00    -0.550 OA 
BRANCH  18  20
HETATM   20  C   UNL     1     -11.059  10.273  68.175  1.00  0.00    -0.324 C  
BRANCH  20  21
HETATM   21  C   UNL     1     -10.087  10.413  69.342  1.00  0.00    -0.251 C  
BRANCH  21  22
HETATM   22  C   UNL     1     -10.142   9.234  70.284  1.00  0.00    -0.262 A  
HETATM   23  C   UNL     1      -9.722   7.964  69.863  1.00  0.00    -0.176 A  
HETATM   24  C   UNL     1      -9.752   6.880  70.742  1.00  0.00    -0.176 A  
HETATM   25  C   UNL     1     -10.205   7.053  72.048  1.00  0.00    -0.209 A  
HETATM   26  C   UNL     1     -10.637   8.308  72.473  1.00  0.00    -0.407 A  
HETATM   27  C   UNL     1     -10.610   9.394  71.595  1.00  0.00    -0.248 A  
ENDBRANCH  21  22
ENDBRANCH  20  21
ENDBRANCH  18  20
ENDBRANCH  13  18
ENDBRANCH  11  12
ENDBRANCH  10  11
ENDBRANCH   7  10
ENDBRANCH   6   7
ENDBRANCH   4   6
ENDBRANCH   3   4
ENDBRANCH   2   3
TORSDOF 11
ENDMDL
MODEL      233
REMARK 921   NORMALIZED FREE ENERGY PREDICTED BY IDOCK:   -4.32 KCAL/MOL
REMARK 922        TOTAL FREE ENERGY PREDICTED BY IDOCK:   -8.11 KCAL/MOL
REMARK 923 INTER-LIGAND FREE ENERGY PREDICTED BY IDOCK:   -6.95 KCAL/MOL
REMARK 924 INTRA-LIGAND FREE ENERGY PREDICTED BY IDOCK:   -1.16 KCAL/MOL
REMARK 927      BINDING AFFINITY PREDICTED BY RF-SCORE:    0.00 PKD
ROOT
HETATM    1  C   UNL     1      -8.970  16.249  66.025  1.00  0.00    -0.325 C  
HETATM    2  C   UNL     1      -9.445  14.819  66.231  1.00  0.00    -0.332 C  
ENDROOT
BRANCH   2   3
HETATM    3  C   UNL     1     -10.465  14.417  65.166  1.00  0.00    -0.415 C  
BRANCH   3   4
HETATM    4  N   UNL     1     -11.611  13.771  65.803  1.00  0.00    -0.322 NA 
HETATM    5  H   UNL     1     -12.472  14.301  65.667  1.00  0.00     0.000 HD 
BRANCH   4   6
HETATM    6  C   UNL     1     -11.741  12.385  65.330  1.00  0.00    -0.402 C  
BRANCH   6   7
HETATM    7  C   UNL     1     -11.273  11.388  66.406  1.00  0.00    -0.183 C  
HETATM    8  O   UNL     1      -9.908  11.006  66.179  1.00  0.00    -0.209 OA 
HETATM    9  H   UNL     1      -9.620  10.391  66.843  1.00  0.00     0.000 HD 
BRANCH   7  10
HETATM   10  C   UNL     1     -11.404  11.995  67.808  1.00  0.00    -0.303 C  
BRANCH  10  11
HETATM   11  O   UNL     1     -10.540  11.290  68.721  1.00  0.00    -0.188 OA 
BRANCH  11  12
HETATM   12  C   UNL     1     -11.162  10.764  69.824  1.00  0.00    -0.297 A  
HETATM   13  C   UNL     1     -10.695   9.551  70.370  1.00  0.00    -0.341 A  
HETATM   14  C   UNL     1     -12.296  11.372  70.383  1.00  0.00    -0.404 A  
HETATM   15  C   UNL     1     -11.336   9.014  71.499  1.00  0.00    -0.416 A  
HETATM   16  C   UNL     1     -12.933  10.817  71.493  1.00  0.00    -0.562 A  
HETATM   17  C   UNL     1     -12.451   9.642  72.054  1.00  0.00    -0.412 A  
BRANCH  13  18
HETATM   18  C   UNL     1      -9.513   8.826  69.798  1.00  0.00    -0.167 C  
HETATM   19  O   UNL     1      -8.414   9.373  69.746  1.00  0.00    -0.133 OA 
BRANCH  18  20
HETATM   20  C   UNL     1      -9.673   7.376  69.358  1.00  0.00    -0.159 C  
BRANCH  20  21
HETATM   21  C   UNL     1     -10.616   7.232  68.168  1.00  0.00    -0.228 C  
BRANCH  21  22
HETATM   22  C   UNL     1      -9.975   6.509  67.008  1.00  0.00    -0.216 A  
HETATM   23  C   UNL     1     -10.482   5.277  66.568  1.00  0.00    -0.354 A  
HETATM   24  C   UNL     1      -9.903   4.621  65.479  1.00  0.00    -0.198 A  
HETATM   25  C   UNL     1      -8.812   5.186  64.824  1.00  0.00    -0.100 A  
HETATM   26  C   UNL     1      -8.293   6.403  65.262  1.00  0.00    -0.131 A  
HETATM   27  C   UNL     1      -8.868   7.061  66.351  1.00  0.00    -0.158 A  
ENDBRANCH  21  22
ENDBRANCH  20  21
ENDBRANCH  18  20
ENDBRANCH  13  18
ENDBRANCH  11  12
ENDBRANCH  10  11
ENDBRANCH   7  10
ENDBRANCH   6   7
ENDBRANCH   4   6
ENDBRANCH   3   4
ENDBRANCH   2   3
TORSDOF 11
ENDMDL
MODEL      234
REMARK 921   NORMALIZED FREE ENERGY PREDICTED BY IDOCK:   -4.32 KCAL/MOL
REMARK 922        TOTAL FREE ENERGY PREDICTED BY IDOCK:   -8.11 KCAL/MOL
REMARK 923 INTER-LIGAND FREE ENERGY PREDICTED BY IDOCK:   -6.84 KCAL/MOL
REMARK 924 INTRA-LIGAND FREE ENERGY PREDICTED BY IDOCK:   -1.26 KCAL/MOL
REMARK 927      BINDING AFFINITY PREDICTED BY RF-SCORE:    0.00 PKD
ROOT
HETATM    1  C   UNL     1     -12.831   9.646  71.861  1.00  0.00    -0.515 C  
HETATM    2  C   UNL     1     -11.416   9.799  71.325  1.00  0.00    -0.457 C  
ENDROOT
BRANCH   2   3
HETATM    3  C   UNL     1     -11.406   9.857  69.798  1.00  0.00    -0.193 C  
BRANCH   3   4
HETATM    4  N   UNL     1     -10.165   9.273  69.292  1.00  0.00    -0.199 NA 
HETATM    5  H   UNL     1      -9.348   9.617  69.798  1.00  0.00     0.000 HD 
BRANCH   4   6
HETATM    6  C   UNL     1     -10.248   7.806  69.317  1.00  0.00    -0.211 C  
BRANCH   6   7
HETATM    7  C   UNL     1     -10.318   7.232  67.890  1.00  0.00    -0.201 C  
HETATM    8  O   UNL     1     -11.590   6.607  67.662  1.00  0.00    -0.664 OA 
HETATM    9  H   UNL     1     -11.633   6.253  66.781  1.00  0.00     0.000 HD 
BRANCH   7  10
HETATM   10  C   UNL     1     -10.099   8.333  66.846  1.00  0.00    -0.296 C  
BRANCH  10  11
HETATM   11  O   UNL     1      -9.065   7.928  65.929  1.00  0.00    -0.161 OA 
BRANCH  11  12
HETATM   12  C   UNL     1      -7.993   8.779  65.845  1.00  0.00    -0.104 A  
HETATM   13  C   UNL     1      -7.917   9.695  64.776  1.00  0.00    -0.129 A  
HETATM   14  C   UNL     1      -6.934   8.714  66.764  1.00  0.00    -0.077 A  
HETATM   15  C   UNL     1      -6.816  10.564  64.693  1.00  0.00     0.068 A  
HETATM   16  C   UNL     1      -5.839   9.570  66.656  1.00  0.00    -0.055 A  
HETATM   17  C   UNL     1      -5.781  10.498  65.625  1.00  0.00    -0.123 A  
BRANCH  13  18
HETATM   18  C   UNL     1      -8.993   9.790  63.735  1.00  0.00    -0.240 C  
HETATM   19  O   UNL     1      -8.875   9.201  62.663  1.00  0.00    -0.227 OA 
BRANCH  18  20
HETATM   20  C   UNL     1     -10.269  10.559  64.054  1.00  0.00    -0.238 C  
BRANCH  20  21
HETATM   21  C   UNL     1     -10.163  12.036  63.689  1.00  0.00    -0.470 C  
BRANCH  21  22
HETATM   22  C   UNL     1     -10.673  12.940  64.786  1.00  0.00    -0.354 A  
HETATM   23  C   UNL     1     -11.394  12.412  65.867  1.00  0.00    -0.399 A  
HETATM   24  C   UNL     1     -11.844  13.246  66.893  1.00  0.00    -0.446 A  
HETATM   25  C   UNL     1     -11.584  14.613  66.846  1.00  0.00    -0.374 A  
HETATM   26  C   UNL     1     -10.880  15.149  65.770  1.00  0.00    -0.358 A  
HETATM   27  C   UNL     1     -10.429  14.318  64.742  1.00  0.00    -0.421 A  
ENDBRANCH  21  22
ENDBRANCH  20  21
ENDBRANCH  18  20
ENDBRANCH  13  18
ENDBRANCH  11  12
ENDBRANCH  10  11
ENDBRANCH   7  10
ENDBRANCH   6   7
ENDBRANCH   4   6
ENDBRANCH   3   4
ENDBRANCH   2   3
TORSDOF 11
ENDMDL
MODEL      235
REMARK 921   NORMALIZED FREE ENERGY PREDICTED BY IDOCK:   -4.29 KCAL/MOL
REMARK 922        TOTAL FREE ENERGY PREDICTED BY IDOCK:   -8.07 KCAL/MOL
REMARK 923 INTER-LIGAND FREE ENERGY PREDICTED BY IDOCK:   -6.81 KCAL/MOL
REMARK 924 INTRA-LIGAND FREE ENERGY PREDICTED BY IDOCK:   -1.26 KCAL/MOL
REMARK 927      BINDING AFFINITY PREDICTED BY RF-SCORE:    0.00 PKD
ROOT
HETATM    1  C   UNL     1      -9.833  20.373  66.538  1.00  0.00    -0.452 C  
HETATM    2  C   UNL     1     -10.010  18.887  66.813  1.00  0.00    -0.403 C  
ENDROOT
BRANCH   2   3
HETATM    3  C   UNL     1      -8.964  18.380  67.805  1.00  0.00    -0.281 C  
BRANCH   3   4
HETATM    4  N   UNL     1      -9.227  16.978  68.122  1.00  0.00    -0.238 NA 
HETATM    5  H   UNL     1      -9.431  16.430  67.286  1.00  0.00     0.000 HD 
BRANCH   4   6
HETATM    6  C   UNL     1      -8.108  16.412  68.889  1.00  0.00    -0.236 C  
BRANCH   6   7
HETATM    7  C   UNL     1      -7.684  15.045  68.321  1.00  0.00    -0.111 C  
HETATM    8  O   UNL     1      -8.015  13.993  69.240  1.00  0.00    -0.341 OA 
HETATM    9  H   UNL     1      -7.753  13.150  68.889  1.00  0.00     0.000 HD 
BRANCH   7  10
HETATM   10  C   UNL     1      -8.367  14.777  66.974  1.00  0.00    -0.198 C  
BRANCH  10  11
HETATM   11  O   UNL     1      -9.182  13.593  67.076  1.00  0.00    -0.232 OA 
BRANCH  11  12
HETATM   12  C   UNL     1     -10.202  13.508  66.162  1.00  0.00    -0.302 A  
HETATM   13  C   UNL     1     -11.207  12.535  66.335  1.00  0.00    -0.353 A  
HETATM   14  C   UNL     1     -10.231  14.324  65.021  1.00  0.00    -0.402 A  
HETATM   15  C   UNL     1     -12.248  12.449  65.395  1.00  0.00    -0.386 A  
HETATM   16  C   UNL     1     -11.261  14.214  64.088  1.00  0.00    -0.056 A  
HETATM   17  C   UNL     1     -12.272  13.282  64.276  1.00  0.00    -0.454 A  
BRANCH  13  18
HETATM   18  C   UNL     1     -11.215  11.602  67.509  1.00  0.00    -0.293 C  
HETATM   19  O   UNL     1     -12.165  11.593  68.289  1.00  0.00    -0.525 OA 
BRANCH  18  20
HETATM   20  C   UNL     1     -10.072  10.608  67.677  1.00  0.00    -0.208 C  
BRANCH  20  21
HETATM   21  C   UNL     1     -10.311   9.315  66.905  1.00  0.00    -0.316 C  
BRANCH  21  22
HETATM   22  C   UNL     1      -9.225   9.039  65.892  1.00  0.00    -0.290 A  
HETATM   23  C   UNL     1      -8.385   7.924  66.032  1.00  0.00    -0.128 A  
HETATM   24  C   UNL     1      -7.398   7.657  65.082  1.00  0.00    -0.076 A  
HETATM   25  C   UNL     1      -7.236   8.502  63.987  1.00  0.00    -0.093 A  
HETATM   26  C   UNL     1      -8.056   9.620  63.845  1.00  0.00    -0.152 A  
HETATM   27  C   UNL     1      -9.043   9.891  64.795  1.00  0.00    -0.283 A  
ENDBRANCH  21  22
ENDBRANCH  20  21
ENDBRANCH  18  20
ENDBRANCH  13  18
ENDBRANCH  11  12
ENDBRANCH  10  11
ENDBRANCH   7  10
ENDBRANCH   6   7
ENDBRANCH   4   6
ENDBRANCH   3   4
ENDBRANCH   2   3
TORSDOF 11
ENDMDL
MODEL      236
REMARK 921   NORMALIZED FREE ENERGY PREDICTED BY IDOCK:   -4.29 KCAL/MOL
REMARK 922        TOTAL FREE ENERGY PREDICTED BY IDOCK:   -8.07 KCAL/MOL
REMARK 923 INTER-LIGAND FREE ENERGY PREDICTED BY IDOCK:   -6.86 KCAL/MOL
REMARK 924 INTRA-LIGAND FREE ENERGY PREDICTED BY IDOCK:   -1.20 KCAL/MOL
REMARK 927      BINDING AFFINITY PREDICTED BY RF-SCORE:    0.00 PKD
ROOT
HETATM    1  C   UNL     1      -7.418   6.170  68.143  1.00  0.00    -0.090 C  
HETATM    2  C   UNL     1      -8.053   7.022  67.055  1.00  0.00    -0.117 C  
ENDROOT
BRANCH   2   3
HETATM    3  C   UNL     1      -7.186   8.237  66.728  1.00  0.00    -0.082 C  
BRANCH   3   4
HETATM    4  N   UNL     1      -7.539   9.344  67.615  1.00  0.00    -0.088 NA 
HETATM    5  H   UNL     1      -7.912   9.015  68.506  1.00  0.00     0.000 HD 
BRANCH   4   6
HETATM    6  C   UNL     1      -6.384  10.234  67.801  1.00  0.00    -0.057 C  
BRANCH   6   7
HETATM    7  C   UNL     1      -6.773  11.703  67.552  1.00  0.00    -0.096 C  
HETATM    8  O   UNL     1      -6.183  12.181  66.334  1.00  0.00    -0.461 OA 
HETATM    9  H   UNL     1      -6.423  13.087  66.181  1.00  0.00     0.000 HD 
BRANCH   7  10
HETATM   10  C   UNL     1      -8.296  11.860  67.474  1.00  0.00    -0.158 C  
BRANCH  10  11
HETATM   11  O   UNL     1      -8.629  12.838  66.470  1.00  0.00    -0.074 OA 
BRANCH  11  12
HETATM   12  C   UNL     1      -9.517  12.414  65.515  1.00  0.00     0.020 A  
HETATM   13  C   UNL     1     -10.665  13.188  65.244  1.00  0.00    -0.318 A  
HETATM   14  C   UNL     1      -9.346  11.192  64.848  1.00  0.00    -0.219 A  
HETATM   15  C   UNL     1     -11.574  12.749  64.267  1.00  0.00    -0.433 A  
HETATM   16  C   UNL     1     -10.268  10.761  63.895  1.00  0.00    -0.377 A  
HETATM   17  C   UNL     1     -11.378  11.540  63.600  1.00  0.00    -0.412 A  
BRANCH  13  18
HETATM   18  C   UNL     1     -10.932  14.485  65.949  1.00  0.00    -0.320 C  
HETATM   19  O   UNL     1     -11.493  14.494  67.042  1.00  0.00    -0.343 OA 
BRANCH  18  20
HETATM   20  C   UNL     1     -10.427  15.783  65.333  1.00  0.00    -0.438 C  
BRANCH  20  21
HETATM   21  C   UNL     1      -9.140  16.274  65.988  1.00  0.00    -0.332 C  
BRANCH  21  22
HETATM   22  C   UNL     1      -9.250  17.696  66.483  1.00  0.00    -0.286 A  
HETATM   23  C   UNL     1     -10.451  18.168  67.035  1.00  0.00    -0.385 A  
HETATM   24  C   UNL     1     -10.545  19.476  67.514  1.00  0.00    -0.599 A  
HETATM   25  C   UNL     1      -9.444  20.326  67.443  1.00  0.00    -0.547 A  
HETATM   26  C   UNL     1      -8.250  19.871  66.885  1.00  0.00    -0.358 A  
HETATM   27  C   UNL     1      -8.154  18.564  66.403  1.00  0.00    -0.295 A  
ENDBRANCH  21  22
ENDBRANCH  20  21
ENDBRANCH  18  20
ENDBRANCH  13  18
ENDBRANCH  11  12
ENDBRANCH  10  11
ENDBRANCH   7  10
ENDBRANCH   6   7
ENDBRANCH   4   6
ENDBRANCH   3   4
ENDBRANCH   2   3
TORSDOF 11
ENDMDL
MODEL      237
REMARK 921   NORMALIZED FREE ENERGY PREDICTED BY IDOCK:   -4.29 KCAL/MOL
REMARK 922        TOTAL FREE ENERGY PREDICTED BY IDOCK:   -8.06 KCAL/MOL
REMARK 923 INTER-LIGAND FREE ENERGY PREDICTED BY IDOCK:   -7.50 KCAL/MOL
REMARK 924 INTRA-LIGAND FREE ENERGY PREDICTED BY IDOCK:   -0.57 KCAL/MOL
REMARK 927      BINDING AFFINITY PREDICTED BY RF-SCORE:    0.00 PKD
ROOT
HETATM    1  C   UNL     1     -12.623  11.722  63.498  1.00  0.00    -0.485 C  
HETATM    2  C   UNL     1     -11.286  12.395  63.226  1.00  0.00    -0.399 C  
ENDROOT
BRANCH   2   3
HETATM    3  C   UNL     1     -10.735  13.059  64.488  1.00  0.00    -0.385 C  
BRANCH   3   4
HETATM    4  N   UNL     1     -11.802  13.195  65.477  1.00  0.00    -0.358 NA 
HETATM    5  H   UNL     1     -11.619  12.640  66.314  1.00  0.00     0.000 HD 
BRANCH   4   6
HETATM    6  C   UNL     1     -12.022  14.613  65.796  1.00  0.00    -0.235 C  
BRANCH   6   7
HETATM    7  C   UNL     1     -11.099  15.517  64.959  1.00  0.00    -0.401 C  
HETATM    8  O   UNL     1     -11.843  16.174  63.923  1.00  0.00    -1.359 OA 
HETATM    9  H   UNL     1     -11.273  16.732  63.407  1.00  0.00     0.000 HD 
BRANCH   7  10
HETATM   10  C   UNL     1     -10.418  16.570  65.842  1.00  0.00    -0.323 C  
BRANCH  10  11
HETATM   11  O   UNL     1      -9.824  15.927  66.987  1.00  0.00    -0.226 OA 
BRANCH  11  12
HETATM   12  C   UNL     1      -8.857  16.658  67.628  1.00  0.00    -0.201 A  
HETATM   13  C   UNL     1      -7.748  15.994  68.192  1.00  0.00    -0.136 A  
HETATM   14  C   UNL     1      -8.979  18.046  67.796  1.00  0.00    -0.255 A  
HETATM   15  C   UNL     1      -6.760  16.746  68.851  1.00  0.00    -0.195 A  
HETATM   16  C   UNL     1      -8.000  18.775  68.469  1.00  0.00    -0.377 A  
HETATM   17  C   UNL     1      -6.888  18.128  68.992  1.00  0.00    -0.257 A  
BRANCH  13  18
HETATM   18  C   UNL     1      -7.574  14.508  68.087  1.00  0.00    -0.125 C  
HETATM   19  O   UNL     1      -6.598  13.960  68.593  1.00  0.00    -0.082 OA 
BRANCH  18  20
HETATM   20  C   UNL     1      -8.662  13.679  67.417  1.00  0.00    -0.214 C  
BRANCH  20  21
HETATM   21  C   UNL     1      -9.491  12.889  68.423  1.00  0.00    -0.162 C  
BRANCH  21  22
HETATM   22  C   UNL     1      -9.758  11.474  67.968  1.00  0.00    -0.187 A  
HETATM   23  C   UNL     1     -10.595  10.631  68.713  1.00  0.00    -0.234 A  
HETATM   24  C   UNL     1     -10.860   9.331  68.278  1.00  0.00    -0.132 A  
HETATM   25  C   UNL     1     -10.288   8.859  67.099  1.00  0.00    -0.351 A  
HETATM   26  C   UNL     1      -9.444   9.685  66.358  1.00  0.00    -0.244 A  
HETATM   27  C   UNL     1      -9.176  10.985  66.791  1.00  0.00    -0.174 A  
ENDBRANCH  21  22
ENDBRANCH  20  21
ENDBRANCH  18  20
ENDBRANCH  13  18
ENDBRANCH  11  12
ENDBRANCH  10  11
ENDBRANCH   7  10
ENDBRANCH   6   7
ENDBRANCH   4   6
ENDBRANCH   3   4
ENDBRANCH   2   3
TORSDOF 11
ENDMDL
MODEL      238
REMARK 921   NORMALIZED FREE ENERGY PREDICTED BY IDOCK:   -4.29 KCAL/MOL
REMARK 922        TOTAL FREE ENERGY PREDICTED BY IDOCK:   -8.06 KCAL/MOL
REMARK 923 INTER-LIGAND FREE ENERGY PREDICTED BY IDOCK:   -7.01 KCAL/MOL
REMARK 924 INTRA-LIGAND FREE ENERGY PREDICTED BY IDOCK:   -1.05 KCAL/MOL
REMARK 927      BINDING AFFINITY PREDICTED BY RF-SCORE:    0.00 PKD
ROOT
HETATM    1  C   UNL     1      -7.830   8.286  63.965  1.00  0.00    -0.146 C  
HETATM    2  C   UNL     1      -6.723   7.963  64.958  1.00  0.00    -0.051 C  
ENDROOT
BRANCH   2   3
HETATM    3  C   UNL     1      -7.118   8.368  66.377  1.00  0.00    -0.071 C  
BRANCH   3   4
HETATM    4  N   UNL     1      -7.663   9.724  66.367  1.00  0.00    -0.101 NA 
HETATM    5  H   UNL     1      -8.636   9.742  66.059  1.00  0.00     0.000 HD 
BRANCH   4   6
HETATM    6  C   UNL     1      -7.494  10.349  67.686  1.00  0.00    -0.089 C  
BRANCH   6   7
HETATM    7  C   UNL     1      -7.354  11.877  67.560  1.00  0.00    -0.132 C  
HETATM    8  O   UNL     1      -6.420  12.212  66.522  1.00  0.00    -0.438 OA 
HETATM    9  H   UNL     1      -6.333  13.155  66.444  1.00  0.00     0.000 HD 
BRANCH   7  10
HETATM   10  C   UNL     1      -8.708  12.528  67.255  1.00  0.00    -0.193 C  
BRANCH  10  11
HETATM   11  O   UNL     1      -8.973  13.563  68.222  1.00  0.00    -0.183 OA 
BRANCH  11  12
HETATM   12  C   UNL     1      -9.391  14.759  67.696  1.00  0.00    -0.195 A  
HETATM   13  C   UNL     1     -10.418  15.478  68.341  1.00  0.00    -0.240 A  
HETATM   14  C   UNL     1      -8.866  15.251  66.492  1.00  0.00    -0.335 A  
HETATM   15  C   UNL     1     -10.844  16.702  67.798  1.00  0.00    -0.292 A  
HETATM   16  C   UNL     1      -9.313  16.458  65.955  1.00  0.00    -0.335 A  
HETATM   17  C   UNL     1     -10.298  17.186  66.609  1.00  0.00    -0.310 A  
BRANCH  13  18
HETATM   18  C   UNL     1     -11.052  14.991  69.610  1.00  0.00    -0.273 C  
HETATM   19  O   UNL     1     -10.751  15.494  70.689  1.00  0.00    -0.325 OA 
BRANCH  18  20
HETATM   20  C   UNL     1     -12.135  13.921  69.535  1.00  0.00    -0.393 C  
BRANCH  20  21
HETATM   21  C   UNL     1     -12.542  13.411  70.914  1.00  0.00    -0.406 C  
BRANCH  21  22
HETATM   22  C   UNL     1     -12.433  11.909  71.029  1.00  0.00    -0.390 A  
HETATM   23  C   UNL     1     -13.259  11.200  71.913  1.00  0.00    -0.488 A  
HETATM   24  C   UNL     1     -13.173   9.810  72.001  1.00  0.00    -0.557 A  
HETATM   25  C   UNL     1     -12.260   9.115  71.212  1.00  0.00    -0.395 A  
HETATM   26  C   UNL     1     -11.425   9.812  70.339  1.00  0.00    -0.347 A  
HETATM   27  C   UNL     1     -11.508  11.203  70.251  1.00  0.00    -0.329 A  
ENDBRANCH  21  22
ENDBRANCH  20  21
ENDBRANCH  18  20
ENDBRANCH  13  18
ENDBRANCH  11  12
ENDBRANCH  10  11
ENDBRANCH   7  10
ENDBRANCH   6   7
ENDBRANCH   4   6
ENDBRANCH   3   4
ENDBRANCH   2   3
TORSDOF 11
ENDMDL
MODEL      239
REMARK 921   NORMALIZED FREE ENERGY PREDICTED BY IDOCK:   -4.28 KCAL/MOL
REMARK 922        TOTAL FREE ENERGY PREDICTED BY IDOCK:   -8.04 KCAL/MOL
REMARK 923 INTER-LIGAND FREE ENERGY PREDICTED BY IDOCK:   -6.78 KCAL/MOL
REMARK 924 INTRA-LIGAND FREE ENERGY PREDICTED BY IDOCK:   -1.26 KCAL/MOL
REMARK 927      BINDING AFFINITY PREDICTED BY RF-SCORE:    0.00 PKD
ROOT
HETATM    1  C   UNL     1      -7.995   4.391  72.365  1.00  0.00    -0.092 C  
HETATM    2  C   UNL     1      -7.519   5.832  72.260  1.00  0.00    -0.099 C  
ENDROOT
BRANCH   2   3
HETATM    3  C   UNL     1      -7.974   6.470  70.949  1.00  0.00    -0.111 C  
BRANCH   3   4
HETATM    4  N   UNL     1      -8.742   5.500  70.171  1.00  0.00    -0.127 NA 
HETATM    5  H   UNL     1      -9.385   4.966  70.756  1.00  0.00     0.000 HD 
BRANCH   4   6
HETATM    6  C   UNL     1      -9.438   6.173  69.065  1.00  0.00    -0.127 C  
BRANCH   6   7
HETATM    7  C   UNL     1      -8.746   7.499  68.701  1.00  0.00    -0.128 C  
HETATM    8  O   UNL     1      -8.000   7.360  67.483  1.00  0.00    -0.110 OA 
HETATM    9  H   UNL     1      -7.574   8.179  67.259  1.00  0.00     0.000 HD 
BRANCH   7  10
HETATM   10  C   UNL     1      -9.773   8.626  68.543  1.00  0.00    -0.163 C  
BRANCH  10  11
HETATM   11  O   UNL     1      -9.655   9.544  69.647  1.00  0.00    -0.177 OA 
BRANCH  11  12
HETATM   12  C   UNL     1     -10.734   9.581  70.493  1.00  0.00    -0.298 A  
HETATM   13  C   UNL     1     -11.767  10.511  70.258  1.00  0.00    -0.420 A  
HETATM   14  C   UNL     1     -10.802   8.759  71.628  1.00  0.00    -0.399 A  
HETATM   15  C   UNL     1     -12.870  10.547  71.127  1.00  0.00    -0.513 A  
HETATM   16  C   UNL     1     -11.894   8.820  72.493  1.00  0.00    -0.272 A  
HETATM   17  C   UNL     1     -12.930   9.709  72.241  1.00  0.00    -0.440 A  
BRANCH  13  18
HETATM   18  C   UNL     1     -11.740  11.448  69.087  1.00  0.00    -0.342 C  
HETATM   19  O   UNL     1     -12.283  11.137  68.029  1.00  0.00    -0.584 OA 
BRANCH  18  20
HETATM   20  C   UNL     1     -11.103  12.823  69.250  1.00  0.00    -0.193 C  
BRANCH  20  21
HETATM   21  C   UNL     1      -9.876  13.002  68.362  1.00  0.00    -0.203 C  
BRANCH  21  22
HETATM   22  C   UNL     1     -10.154  13.879  67.164  1.00  0.00    -0.252 A  
HETATM   23  C   UNL     1     -10.368  13.311  65.900  1.00  0.00    -0.293 A  
HETATM   24  C   UNL     1     -10.649  14.121  64.798  1.00  0.00    -0.439 A  
HETATM   25  C   UNL     1     -10.714  15.504  64.947  1.00  0.00    -0.415 A  
HETATM   26  C   UNL     1     -10.490  16.079  66.196  1.00  0.00    -0.334 A  
HETATM   27  C   UNL     1     -10.207  15.272  67.300  1.00  0.00    -0.248 A  
ENDBRANCH  21  22
ENDBRANCH  20  21
ENDBRANCH  18  20
ENDBRANCH  13  18
ENDBRANCH  11  12
ENDBRANCH  10  11
ENDBRANCH   7  10
ENDBRANCH   6   7
ENDBRANCH   4   6
ENDBRANCH   3   4
ENDBRANCH   2   3
TORSDOF 11
ENDMDL
MODEL      240
REMARK 921   NORMALIZED FREE ENERGY PREDICTED BY IDOCK:   -4.28 KCAL/MOL
REMARK 922        TOTAL FREE ENERGY PREDICTED BY IDOCK:   -8.04 KCAL/MOL
REMARK 923 INTER-LIGAND FREE ENERGY PREDICTED BY IDOCK:   -6.74 KCAL/MOL
REMARK 924 INTRA-LIGAND FREE ENERGY PREDICTED BY IDOCK:   -1.30 KCAL/MOL
REMARK 927      BINDING AFFINITY PREDICTED BY RF-SCORE:    0.00 PKD
ROOT
HETATM    1  C   UNL     1     -12.096  12.590  63.822  1.00  0.00    -0.615 C  
HETATM    2  C   UNL     1     -12.163  12.616  65.341  1.00  0.00    -0.517 C  
ENDROOT
BRANCH   2   3
HETATM    3  C   UNL     1     -11.200  11.600  65.954  1.00  0.00    -0.238 C  
BRANCH   3   4
HETATM    4  N   UNL     1     -11.709  11.163  67.253  1.00  0.00    -0.506 NA 
HETATM    5  H   UNL     1     -12.206  10.275  67.189  1.00  0.00     0.000 HD 
BRANCH   4   6
HETATM    6  C   UNL     1     -10.617  11.111  68.235  1.00  0.00    -0.190 C  
BRANCH   6   7
HETATM    7  C   UNL     1     -10.173   9.660  68.491  1.00  0.00    -0.193 C  
HETATM    8  O   UNL     1     -11.181   8.739  68.047  1.00  0.00    -0.402 OA 
HETATM    9  H   UNL     1     -10.907   7.843  68.205  1.00  0.00     0.000 HD 
BRANCH   7  10
HETATM   10  C   UNL     1      -8.854   9.355  67.771  1.00  0.00    -0.123 C  
BRANCH  10  11
HETATM   11  O   UNL     1      -8.672   7.929  67.683  1.00  0.00    -0.126 OA 
BRANCH  11  12
HETATM   12  C   UNL     1      -7.872   7.383  68.654  1.00  0.00    -0.122 A  
HETATM   13  C   UNL     1      -8.312   6.239  69.352  1.00  0.00    -0.121 A  
HETATM   14  C   UNL     1      -6.654   7.977  69.018  1.00  0.00    -0.048 A  
HETATM   15  C   UNL     1      -7.490   5.684  70.348  1.00  0.00    -0.080 A  
HETATM   16  C   UNL     1      -5.859   7.425  70.022  1.00  0.00    -0.024 A  
HETATM   17  C   UNL     1      -6.273   6.277  70.684  1.00  0.00    -0.039 A  
BRANCH  13  18
HETATM   18  C   UNL     1      -9.621   5.576  69.043  1.00  0.00    -0.136 C  
HETATM   19  O   UNL     1      -9.783   4.985  67.978  1.00  0.00    -0.138 OA 
BRANCH  18  20
HETATM   20  C   UNL     1     -10.719   5.573  70.099  1.00  0.00    -0.348 C  
BRANCH  20  21
HETATM   21  C   UNL     1     -10.521   6.667  71.144  1.00  0.00    -0.247 C  
BRANCH  21  22
HETATM   22  C   UNL     1     -11.788   7.445  71.412  1.00  0.00    -0.329 A  
HETATM   23  C   UNL     1     -13.043   6.843  71.244  1.00  0.00    -0.273 A  
HETATM   24  C   UNL     1     -14.212   7.557  71.515  1.00  0.00    -0.580 A  
HETATM   25  C   UNL     1     -14.139   8.878  71.950  1.00  0.00    -0.453 A  
HETATM   26  C   UNL     1     -12.897   9.489  72.107  1.00  0.00    -0.471 A  
HETATM   27  C   UNL     1     -11.726   8.779  71.835  1.00  0.00    -0.429 A  
ENDBRANCH  21  22
ENDBRANCH  20  21
ENDBRANCH  18  20
ENDBRANCH  13  18
ENDBRANCH  11  12
ENDBRANCH  10  11
ENDBRANCH   7  10
ENDBRANCH   6   7
ENDBRANCH   4   6
ENDBRANCH   3   4
ENDBRANCH   2   3
TORSDOF 11
ENDMDL
MODEL      241
REMARK 921   NORMALIZED FREE ENERGY PREDICTED BY IDOCK:   -4.27 KCAL/MOL
REMARK 922        TOTAL FREE ENERGY PREDICTED BY IDOCK:   -8.04 KCAL/MOL
REMARK 923 INTER-LIGAND FREE ENERGY PREDICTED BY IDOCK:   -6.00 KCAL/MOL
REMARK 924 INTRA-LIGAND FREE ENERGY PREDICTED BY IDOCK:   -2.04 KCAL/MOL
REMARK 927      BINDING AFFINITY PREDICTED BY RF-SCORE:    0.00 PKD
ROOT
HETATM    1  C   UNL     1     -13.146  11.112  71.711  1.00  0.00    -0.536 C  
HETATM    2  C   UNL     1     -13.340   9.617  71.507  1.00  0.00    -0.468 C  
ENDROOT
BRANCH   2   3
HETATM    3  C   UNL     1     -12.258   8.816  72.230  1.00  0.00    -0.358 C  
BRANCH   3   4
HETATM    4  N   UNL     1     -11.246   8.379  71.269  1.00  0.00    -0.250 NA 
HETATM    5  H   UNL     1     -11.577   8.453  70.307  1.00  0.00     0.000 HD 
BRANCH   4   6
HETATM    6  C   UNL     1      -9.995   9.121  71.477  1.00  0.00    -0.287 C  
BRANCH   6   7
HETATM    7  C   UNL     1      -8.838   8.167  71.826  1.00  0.00    -0.155 C  
HETATM    8  O   UNL     1      -9.148   7.411  73.007  1.00  0.00    -0.135 OA 
HETATM    9  H   UNL     1      -8.434   6.823  73.222  1.00  0.00     0.000 HD 
BRANCH   7  10
HETATM   10  C   UNL     1      -8.554   7.204  70.667  1.00  0.00    -0.143 C  
BRANCH  10  11
HETATM   11  O   UNL     1      -8.915   7.831  69.421  1.00  0.00    -0.142 OA 
BRANCH  11  12
HETATM   12  C   UNL     1      -9.319   6.972  68.432  1.00  0.00    -0.130 A  
HETATM   13  C   UNL     1      -8.726   7.056  67.155  1.00  0.00    -0.121 A  
HETATM   14  C   UNL     1     -10.360   6.054  68.641  1.00  0.00    -0.264 A  
HETATM   15  C   UNL     1      -9.144   6.175  66.144  1.00  0.00    -0.158 A  
HETATM   16  C   UNL     1     -10.777   5.199  67.621  1.00  0.00     0.052 A  
HETATM   17  C   UNL     1     -10.167   5.255  66.375  1.00  0.00    -0.289 A  
BRANCH  13  18
HETATM   18  C   UNL     1      -7.637   8.041  66.850  1.00  0.00    -0.095 C  
HETATM   19  O   UNL     1      -6.460   7.689  66.860  1.00  0.00    -0.051 OA 
BRANCH  18  20
HETATM   20  C   UNL     1      -8.012   9.461  66.446  1.00  0.00    -0.108 C  
BRANCH  20  21
HETATM   21  C   UNL     1      -9.389   9.534  65.794  1.00  0.00    -0.293 C  
BRANCH  21  22
HETATM   22  C   UNL     1     -10.280  10.567  66.442  1.00  0.00    -0.296 A  
HETATM   23  C   UNL     1     -10.860  10.323  67.696  1.00  0.00    -0.363 A  
HETATM   24  C   UNL     1     -11.664  11.289  68.304  1.00  0.00    -0.344 A  
HETATM   25  C   UNL     1     -11.901  12.504  67.665  1.00  0.00    -0.381 A  
HETATM   26  C   UNL     1     -11.341  12.750  66.413  1.00  0.00    -0.369 A  
HETATM   27  C   UNL     1     -10.538  11.786  65.801  1.00  0.00    -0.312 A  
ENDBRANCH  21  22
ENDBRANCH  20  21
ENDBRANCH  18  20
ENDBRANCH  13  18
ENDBRANCH  11  12
ENDBRANCH  10  11
ENDBRANCH   7  10
ENDBRANCH   6   7
ENDBRANCH   4   6
ENDBRANCH   3   4
ENDBRANCH   2   3
TORSDOF 11
ENDMDL
MODEL      242
REMARK 921   NORMALIZED FREE ENERGY PREDICTED BY IDOCK:   -4.26 KCAL/MOL
REMARK 922        TOTAL FREE ENERGY PREDICTED BY IDOCK:   -8.02 KCAL/MOL
REMARK 923 INTER-LIGAND FREE ENERGY PREDICTED BY IDOCK:   -6.66 KCAL/MOL
REMARK 924 INTRA-LIGAND FREE ENERGY PREDICTED BY IDOCK:   -1.36 KCAL/MOL
REMARK 927      BINDING AFFINITY PREDICTED BY RF-SCORE:    0.00 PKD
ROOT
HETATM    1  C   UNL     1     -11.679  14.423  69.113  1.00  0.00    -0.354 C  
HETATM    2  C   UNL     1     -10.951  15.098  67.961  1.00  0.00    -0.295 C  
ENDROOT
BRANCH   2   3
HETATM    3  C   UNL     1     -11.774  15.036  66.675  1.00  0.00    -0.139 C  
BRANCH   3   4
HETATM    4  N   UNL     1     -12.318  13.690  66.504  1.00  0.00    -0.395 NA 
HETATM    5  H   UNL     1     -13.063  13.493  67.173  1.00  0.00     0.000 HD 
BRANCH   4   6
HETATM    6  C   UNL     1     -12.761  13.493  65.117  1.00  0.00    -0.399 C  
BRANCH   6   7
HETATM    7  C   UNL     1     -12.006  12.326  64.456  1.00  0.00    -0.383 C  
HETATM    8  O   UNL     1     -12.028  12.457  63.027  1.00  0.00    -0.691 OA 
HETATM    9  H   UNL     1     -11.562  11.736  62.619  1.00  0.00     0.000 HD 
BRANCH   7  10
HETATM   10  C   UNL     1     -10.552  12.271  64.939  1.00  0.00    -0.293 C  
BRANCH  10  11
HETATM   11  O   UNL     1     -10.459  11.411  66.091  1.00  0.00    -0.240 OA 
BRANCH  11  12
HETATM   12  C   UNL     1      -9.558  10.383  65.980  1.00  0.00    -0.201 A  
HETATM   13  C   UNL     1      -8.816   9.986  67.111  1.00  0.00    -0.142 A  
HETATM   14  C   UNL     1      -9.308   9.760  64.748  1.00  0.00    -0.327 A  
HETATM   15  C   UNL     1      -7.892   8.934  66.993  1.00  0.00    -0.102 A  
HETATM   16  C   UNL     1      -8.374   8.730  64.642  1.00  0.00    -0.175 A  
HETATM   17  C   UNL     1      -7.670   8.313  65.764  1.00  0.00    -0.091 A  
BRANCH  13  18
HETATM   18  C   UNL     1      -9.002  10.636  68.450  1.00  0.00    -0.149 C  
HETATM   19  O   UNL     1      -8.107  11.321  68.939  1.00  0.00    -0.140 OA 
BRANCH  18  20
HETATM   20  C   UNL     1     -10.344  10.505  69.159  1.00  0.00    -0.240 C  
BRANCH  20  21
HETATM   21  C   UNL     1     -10.760   9.049  69.348  1.00  0.00    -0.202 C  
BRANCH  21  22
HETATM   22  C   UNL     1     -10.436   8.531  70.729  1.00  0.00    -0.239 A  
HETATM   23  C   UNL     1      -9.115   8.216  71.081  1.00  0.00    -0.183 A  
HETATM   24  C   UNL     1      -8.814   7.760  72.366  1.00  0.00    -0.192 A  
HETATM   25  C   UNL     1      -9.828   7.609  73.309  1.00  0.00    -0.360 A  
HETATM   26  C   UNL     1     -11.145   7.907  72.965  1.00  0.00    -0.379 A  
HETATM   27  C   UNL     1     -11.450   8.362  71.681  1.00  0.00    -0.349 A  
ENDBRANCH  21  22
ENDBRANCH  20  21
ENDBRANCH  18  20
ENDBRANCH  13  18
ENDBRANCH  11  12
ENDBRANCH  10  11
ENDBRANCH   7  10
ENDBRANCH   6   7
ENDBRANCH   4   6
ENDBRANCH   3   4
ENDBRANCH   2   3
TORSDOF 11
ENDMDL
MODEL      243
REMARK 921   NORMALIZED FREE ENERGY PREDICTED BY IDOCK:   -4.26 KCAL/MOL
REMARK 922        TOTAL FREE ENERGY PREDICTED BY IDOCK:   -8.02 KCAL/MOL
REMARK 923 INTER-LIGAND FREE ENERGY PREDICTED BY IDOCK:   -6.55 KCAL/MOL
REMARK 924 INTRA-LIGAND FREE ENERGY PREDICTED BY IDOCK:   -1.46 KCAL/MOL
REMARK 927      BINDING AFFINITY PREDICTED BY RF-SCORE:    0.00 PKD
ROOT
HETATM    1  C   UNL     1     -10.976   6.151  72.363  1.00  0.00    -0.299 C  
HETATM    2  C   UNL     1     -11.582   7.171  71.411  1.00  0.00    -0.316 C  
ENDROOT
BRANCH   2   3
HETATM    3  C   UNL     1     -10.558   8.232  71.012  1.00  0.00    -0.204 C  
BRANCH   3   4
HETATM    4  N   UNL     1     -11.090   9.562  71.302  1.00  0.00    -0.361 NA 
HETATM    5  H   UNL     1     -10.755   9.920  72.197  1.00  0.00     0.000 HD 
BRANCH   4   6
HETATM    6  C   UNL     1     -10.788  10.482  70.196  1.00  0.00    -0.227 C  
BRANCH   6   7
HETATM    7  C   UNL     1     -11.502  10.047  68.904  1.00  0.00     0.002 C  
HETATM    8  O   UNL     1     -12.377  11.086  68.438  1.00  0.00    -0.762 OA 
HETATM    9  H   UNL     1     -12.818  10.817  67.641  1.00  0.00     0.000 HD 
BRANCH   7  10
HETATM   10  C   UNL     1     -10.488   9.706  67.806  1.00  0.00    -0.256 C  
BRANCH  10  11
HETATM   11  O   UNL     1     -10.087  10.914  67.130  1.00  0.00    -0.187 OA 
BRANCH  11  12
HETATM   12  C   UNL     1      -8.734  11.136  67.087  1.00  0.00    -0.141 A  
HETATM   13  C   UNL     1      -8.002  10.731  65.952  1.00  0.00    -0.140 A  
HETATM   14  C   UNL     1      -8.050  11.696  68.176  1.00  0.00    -0.148 A  
HETATM   15  C   UNL     1      -6.615  10.958  65.912  1.00  0.00    -0.048 A  
HETATM   16  C   UNL     1      -6.671  11.897  68.129  1.00  0.00    -0.062 A  
HETATM   17  C   UNL     1      -5.954  11.534  66.997  1.00  0.00    -0.125 A  
BRANCH  13  18
HETATM   18  C   UNL     1      -8.662  10.089  64.768  1.00  0.00    -0.187 C  
HETATM   19  O   UNL     1      -8.874   8.879  64.756  1.00  0.00    -0.173 OA 
BRANCH  18  20
HETATM   20  C   UNL     1      -9.140  10.966  63.618  1.00  0.00    -0.196 C  
BRANCH  20  21
HETATM   21  C   UNL     1     -10.658  11.119  63.598  1.00  0.00    -0.414 C  
BRANCH  21  22
HETATM   22  C   UNL     1     -11.119  12.380  64.290  1.00  0.00    -0.399 A  
HETATM   23  C   UNL     1     -10.234  13.451  64.485  1.00  0.00    -0.321 A  
HETATM   24  C   UNL     1     -10.669  14.625  65.103  1.00  0.00    -0.430 A  
HETATM   25  C   UNL     1     -11.987  14.739  65.538  1.00  0.00    -0.189 A  
HETATM   26  C   UNL     1     -12.871  13.675  65.361  1.00  0.00    -0.440 A  
HETATM   27  C   UNL     1     -12.439  12.499  64.744  1.00  0.00    -0.532 A  
ENDBRANCH  21  22
ENDBRANCH  20  21
ENDBRANCH  18  20
ENDBRANCH  13  18
ENDBRANCH  11  12
ENDBRANCH  10  11
ENDBRANCH   7  10
ENDBRANCH   6   7
ENDBRANCH   4   6
ENDBRANCH   3   4
ENDBRANCH   2   3
TORSDOF 11
ENDMDL
MODEL      244
REMARK 921   NORMALIZED FREE ENERGY PREDICTED BY IDOCK:   -4.25 KCAL/MOL
REMARK 922        TOTAL FREE ENERGY PREDICTED BY IDOCK:   -8.00 KCAL/MOL
REMARK 923 INTER-LIGAND FREE ENERGY PREDICTED BY IDOCK:   -6.07 KCAL/MOL
REMARK 924 INTRA-LIGAND FREE ENERGY PREDICTED BY IDOCK:   -1.93 KCAL/MOL
REMARK 927      BINDING AFFINITY PREDICTED BY RF-SCORE:    0.00 PKD
ROOT
HETATM    1  C   UNL     1     -11.690  16.052  70.325  1.00  0.00    -0.304 C  
HETATM    2  C   UNL     1     -11.607  15.350  68.978  1.00  0.00    -0.361 C  
ENDROOT
BRANCH   2   3
HETATM    3  C   UNL     1     -10.907  13.998  69.101  1.00  0.00    -0.206 C  
BRANCH   3   4
HETATM    4  N   UNL     1     -11.645  12.991  68.341  1.00  0.00    -0.312 NA 
HETATM    5  H   UNL     1     -12.636  13.223  68.263  1.00  0.00     0.000 HD 
BRANCH   4   6
HETATM    6  C   UNL     1     -11.024  12.793  67.024  1.00  0.00    -0.263 C  
BRANCH   6   7
HETATM    7  C   UNL     1     -11.081  11.313  66.604  1.00  0.00    -0.235 C  
HETATM    8  O   UNL     1     -10.058  11.024  65.638  1.00  0.00    -0.235 OA 
HETATM    9  H   UNL     1     -10.093  10.111  65.379  1.00  0.00     0.000 HD 
BRANCH   7  10
HETATM   10  C   UNL     1     -10.909  10.392  67.817  1.00  0.00    -0.297 C  
BRANCH  10  11
HETATM   11  O   UNL     1      -9.980   9.339  67.495  1.00  0.00    -0.178 OA 
BRANCH  11  12
HETATM   12  C   UNL     1      -9.066   9.047  68.475  1.00  0.00    -0.133 A  
HETATM   13  C   UNL     1      -8.708   7.704  68.711  1.00  0.00    -0.128 A  
HETATM   14  C   UNL     1      -8.529  10.051  69.296  1.00  0.00    -0.165 A  
HETATM   15  C   UNL     1      -7.773   7.409  69.718  1.00  0.00    -0.103 A  
HETATM   16  C   UNL     1      -7.617   9.739  70.304  1.00  0.00    -0.184 A  
HETATM   17  C   UNL     1      -7.235   8.421  70.512  1.00  0.00    -0.042 A  
BRANCH  13  18
HETATM   18  C   UNL     1      -9.274   6.577  67.899  1.00  0.00    -0.110 C  
HETATM   19  O   UNL     1      -8.897   6.393  66.744  1.00  0.00    -0.118 OA 
BRANCH  18  20
HETATM   20  C   UNL     1     -10.261   5.615  68.549  1.00  0.00    -0.253 C  
BRANCH  20  21
HETATM   21  C   UNL     1     -11.411   6.343  69.239  1.00  0.00    -0.405 C  
BRANCH  21  22
HETATM   22  C   UNL     1     -11.116   6.643  70.689  1.00  0.00    -0.349 A  
HETATM   23  C   UNL     1     -11.392   7.910  71.225  1.00  0.00    -0.289 A  
HETATM   24  C   UNL     1     -11.142   8.179  72.572  1.00  0.00    -0.446 A  
HETATM   25  C   UNL     1     -10.609   7.189  73.394  1.00  0.00    -0.424 A  
HETATM   26  C   UNL     1     -10.319   5.932  72.868  1.00  0.00    -0.224 A  
HETATM   27  C   UNL     1     -10.567   5.660  71.521  1.00  0.00    -0.306 A  
ENDBRANCH  21  22
ENDBRANCH  20  21
ENDBRANCH  18  20
ENDBRANCH  13  18
ENDBRANCH  11  12
ENDBRANCH  10  11
ENDBRANCH   7  10
ENDBRANCH   6   7
ENDBRANCH   4   6
ENDBRANCH   3   4
ENDBRANCH   2   3
TORSDOF 11
ENDMDL
MODEL      245
REMARK 921   NORMALIZED FREE ENERGY PREDICTED BY IDOCK:   -4.25 KCAL/MOL
REMARK 922        TOTAL FREE ENERGY PREDICTED BY IDOCK:   -8.00 KCAL/MOL
REMARK 923 INTER-LIGAND FREE ENERGY PREDICTED BY IDOCK:   -5.88 KCAL/MOL
REMARK 924 INTRA-LIGAND FREE ENERGY PREDICTED BY IDOCK:   -2.12 KCAL/MOL
REMARK 927      BINDING AFFINITY PREDICTED BY RF-SCORE:    0.00 PKD
ROOT
HETATM    1  C   UNL     1     -13.250  11.905  71.862  1.00  0.00    -0.467 C  
HETATM    2  C   UNL     1     -12.680  10.588  71.357  1.00  0.00    -0.547 C  
ENDROOT
BRANCH   2   3
HETATM    3  C   UNL     1     -11.448  10.818  70.483  1.00  0.00    -0.275 C  
BRANCH   3   4
HETATM    4  N   UNL     1     -11.647  10.192  69.178  1.00  0.00    -0.476 NA 
HETATM    5  H   UNL     1     -12.636  10.053  68.969  1.00  0.00     0.000 HD 
BRANCH   4   6
HETATM    6  C   UNL     1     -10.970  10.970  68.131  1.00  0.00    -0.247 C  
BRANCH   6   7
HETATM    7  C   UNL     1      -9.979  10.094  67.345  1.00  0.00    -0.195 C  
HETATM    8  O   UNL     1      -8.803   9.837  68.128  1.00  0.00    -0.119 OA 
HETATM    9  H   UNL     1      -8.191   9.297  67.642  1.00  0.00     0.000 HD 
BRANCH   7  10
HETATM   10  C   UNL     1     -10.624   8.761  66.946  1.00  0.00    -0.193 C  
BRANCH  10  11
HETATM   11  O   UNL     1     -10.239   7.739  67.886  1.00  0.00    -0.186 OA 
BRANCH  11  12
HETATM   12  C   UNL     1      -9.944   6.520  67.333  1.00  0.00    -0.143 A  
HETATM   13  C   UNL     1      -8.715   5.900  67.639  1.00  0.00    -0.104 A  
HETATM   14  C   UNL     1     -10.808   5.904  66.415  1.00  0.00    -0.110 A  
HETATM   15  C   UNL     1      -8.415   4.651  67.068  1.00  0.00    -0.105 A  
HETATM   16  C   UNL     1     -10.488   4.674  65.843  1.00  0.00    -0.305 A  
HETATM   17  C   UNL     1      -9.295   4.045  66.172  1.00  0.00    -0.174 A  
BRANCH  13  18
HETATM   18  C   UNL     1      -7.725   6.521  68.580  1.00  0.00    -0.105 C  
HETATM   19  O   UNL     1      -7.034   7.470  68.217  1.00  0.00    -0.064 OA 
BRANCH  18  20
HETATM   20  C   UNL     1      -7.646   6.014  70.014  1.00  0.00    -0.087 C  
BRANCH  20  21
HETATM   21  C   UNL     1      -8.899   5.251  70.430  1.00  0.00    -0.146 C  
BRANCH  21  22
HETATM   22  C   UNL     1      -9.838   6.093  71.261  1.00  0.00    -0.204 A  
HETATM   23  C   UNL     1     -11.188   6.222  70.901  1.00  0.00    -0.386 A  
HETATM   24  C   UNL     1     -12.060   6.981  71.684  1.00  0.00    -0.384 A  
HETATM   25  C   UNL     1     -11.593   7.621  72.830  1.00  0.00    -0.334 A  
HETATM   26  C   UNL     1     -10.251   7.509  73.189  1.00  0.00    -0.382 A  
HETATM   27  C   UNL     1      -9.376   6.752  72.407  1.00  0.00    -0.146 A  
ENDBRANCH  21  22
ENDBRANCH  20  21
ENDBRANCH  18  20
ENDBRANCH  13  18
ENDBRANCH  11  12
ENDBRANCH  10  11
ENDBRANCH   7  10
ENDBRANCH   6   7
ENDBRANCH   4   6
ENDBRANCH   3   4
ENDBRANCH   2   3
TORSDOF 11
ENDMDL
MODEL      246
REMARK 921   NORMALIZED FREE ENERGY PREDICTED BY IDOCK:   -4.24 KCAL/MOL
REMARK 922        TOTAL FREE ENERGY PREDICTED BY IDOCK:   -7.98 KCAL/MOL
REMARK 923 INTER-LIGAND FREE ENERGY PREDICTED BY IDOCK:   -7.11 KCAL/MOL
REMARK 924 INTRA-LIGAND FREE ENERGY PREDICTED BY IDOCK:   -0.87 KCAL/MOL
REMARK 927      BINDING AFFINITY PREDICTED BY RF-SCORE:    0.00 PKD
ROOT
HETATM    1  C   UNL     1      -6.338   3.985  73.382  1.00  0.00    -0.032 C  
HETATM    2  C   UNL     1      -6.907   5.396  73.400  1.00  0.00    -0.083 C  
ENDROOT
BRANCH   2   3
HETATM    3  C   UNL     1      -8.109   5.519  72.464  1.00  0.00    -0.103 C  
BRANCH   3   4
HETATM    4  N   UNL     1      -8.920   4.305  72.544  1.00  0.00    -0.110 NA 
HETATM    5  H   UNL     1      -9.107   4.035  73.510  1.00  0.00     0.000 HD 
BRANCH   4   6
HETATM    6  C   UNL     1     -10.158   4.469  71.771  1.00  0.00    -0.184 C  
BRANCH   6   7
HETATM    7  C   UNL     1      -9.919   5.338  70.522  1.00  0.00    -0.229 C  
HETATM    8  O   UNL     1      -9.990   4.538  69.332  1.00  0.00    -0.204 OA 
HETATM    9  H   UNL     1      -9.843   5.075  68.562  1.00  0.00     0.000 HD 
BRANCH   7  10
HETATM   10  C   UNL     1     -10.950   6.470  70.437  1.00  0.00    -0.298 C  
BRANCH  10  11
HETATM   11  O   UNL     1     -10.270   7.727  70.251  1.00  0.00    -0.195 OA 
BRANCH  11  12
HETATM   12  C   UNL     1     -11.042   8.842  70.455  1.00  0.00    -0.246 A  
HETATM   13  C   UNL     1     -11.018   9.884  69.506  1.00  0.00    -0.274 A  
HETATM   14  C   UNL     1     -11.806   8.999  71.622  1.00  0.00    -0.431 A  
HETATM   15  C   UNL     1     -11.808  11.026  69.720  1.00  0.00    -0.421 A  
HETATM   16  C   UNL     1     -12.570  10.147  71.829  1.00  0.00    -0.500 A  
HETATM   17  C   UNL     1     -12.576  11.158  70.877  1.00  0.00    -0.483 A  
BRANCH  13  18
HETATM   18  C   UNL     1     -10.193   9.801  68.257  1.00  0.00    -0.183 C  
HETATM   19  O   UNL     1     -10.406   8.918  67.429  1.00  0.00    -0.232 OA 
BRANCH  18  20
HETATM   20  C   UNL     1      -9.143  10.872  67.987  1.00  0.00    -0.152 C  
BRANCH  20  21
HETATM   21  C   UNL     1      -9.765  12.202  67.575  1.00  0.00    -0.185 C  
BRANCH  21  22
HETATM   22  C   UNL     1     -10.423  12.135  66.217  1.00  0.00    -0.270 A  
HETATM   23  C   UNL     1     -11.721  12.633  66.028  1.00  0.00    -0.470 A  
HETATM   24  C   UNL     1     -12.319  12.593  64.767  1.00  0.00    -0.556 A  
HETATM   25  C   UNL     1     -11.629  12.051  63.685  1.00  0.00    -0.578 A  
HETATM   26  C   UNL     1     -10.345  11.542  63.865  1.00  0.00    -0.422 A  
HETATM   27  C   UNL     1      -9.745  11.579  65.125  1.00  0.00    -0.268 A  
ENDBRANCH  21  22
ENDBRANCH  20  21
ENDBRANCH  18  20
ENDBRANCH  13  18
ENDBRANCH  11  12
ENDBRANCH  10  11
ENDBRANCH   7  10
ENDBRANCH   6   7
ENDBRANCH   4   6
ENDBRANCH   3   4
ENDBRANCH   2   3
TORSDOF 11
ENDMDL
MODEL      247
REMARK 921   NORMALIZED FREE ENERGY PREDICTED BY IDOCK:   -4.24 KCAL/MOL
REMARK 922        TOTAL FREE ENERGY PREDICTED BY IDOCK:   -7.98 KCAL/MOL
REMARK 923 INTER-LIGAND FREE ENERGY PREDICTED BY IDOCK:   -6.24 KCAL/MOL
REMARK 924 INTRA-LIGAND FREE ENERGY PREDICTED BY IDOCK:   -1.74 KCAL/MOL
REMARK 927      BINDING AFFINITY PREDICTED BY RF-SCORE:    0.00 PKD
ROOT
HETATM    1  C   UNL     1      -5.264  12.163  69.296  1.00  0.00    -0.060 C  
HETATM    2  C   UNL     1      -5.225  11.778  67.826  1.00  0.00    -0.057 C  
ENDROOT
BRANCH   2   3
HETATM    3  C   UNL     1      -5.785  10.373  67.606  1.00  0.00    -0.044 C  
BRANCH   3   4
HETATM    4  N   UNL     1      -7.239  10.439  67.476  1.00  0.00    -0.086 NA 
HETATM    5  H   UNL     1      -7.642  11.170  68.062  1.00  0.00     0.000 HD 
BRANCH   4   6
HETATM    6  C   UNL     1      -7.616  10.599  66.064  1.00  0.00    -0.142 C  
BRANCH   6   7
HETATM    7  C   UNL     1      -8.682   9.566  65.656  1.00  0.00    -0.149 C  
HETATM    8  O   UNL     1      -9.353   9.051  66.816  1.00  0.00    -0.147 OA 
HETATM    9  H   UNL     1     -10.011   8.414  66.564  1.00  0.00     0.000 HD 
BRANCH   7  10
HETATM   10  C   UNL     1      -9.713  10.190  64.708  1.00  0.00    -0.322 C  
BRANCH  10  11
HETATM   11  O   UNL     1     -10.844  10.659  65.468  1.00  0.00    -0.092 OA 
BRANCH  11  12
HETATM   12  C   UNL     1     -11.304  11.903  65.120  1.00  0.00    -0.269 A  
HETATM   13  C   UNL     1     -11.474  12.883  66.119  1.00  0.00    -0.393 A  
HETATM   14  C   UNL     1     -11.674  12.203  63.800  1.00  0.00    -0.576 A  
HETATM   15  C   UNL     1     -11.948  14.157  65.759  1.00  0.00    -0.410 A  
HETATM   16  C   UNL     1     -12.161  13.466  63.462  1.00  0.00    -0.497 A  
HETATM   17  C   UNL     1     -12.293  14.444  64.439  1.00  0.00    -0.428 A  
BRANCH  13  18
HETATM   18  C   UNL     1     -11.137  12.618  67.557  1.00  0.00    -0.272 C  
HETATM   19  O   UNL     1     -10.107  12.018  67.853  1.00  0.00    -0.186 OA 
BRANCH  18  20
HETATM   20  C   UNL     1     -12.045  13.174  68.647  1.00  0.00    -0.222 C  
BRANCH  20  21
HETATM   21  C   UNL     1     -11.264  13.905  69.734  1.00  0.00    -0.149 C  
BRANCH  21  22
HETATM   22  C   UNL     1     -10.575  15.145  69.215  1.00  0.00    -0.253 A  
HETATM   23  C   UNL     1      -9.181  15.276  69.305  1.00  0.00    -0.233 A  
HETATM   24  C   UNL     1      -8.543  16.412  68.803  1.00  0.00    -0.250 A  
HETATM   25  C   UNL     1      -9.289  17.428  68.212  1.00  0.00    -0.278 A  
HETATM   26  C   UNL     1     -10.676  17.314  68.130  1.00  0.00    -0.363 A  
HETATM   27  C   UNL     1     -11.317  16.180  68.633  1.00  0.00    -0.365 A  
ENDBRANCH  21  22
ENDBRANCH  20  21
ENDBRANCH  18  20
ENDBRANCH  13  18
ENDBRANCH  11  12
ENDBRANCH  10  11
ENDBRANCH   7  10
ENDBRANCH   6   7
ENDBRANCH   4   6
ENDBRANCH   3   4
ENDBRANCH   2   3
TORSDOF 11
ENDMDL
MODEL      248
REMARK 921   NORMALIZED FREE ENERGY PREDICTED BY IDOCK:   -4.22 KCAL/MOL
REMARK 922        TOTAL FREE ENERGY PREDICTED BY IDOCK:   -7.95 KCAL/MOL
REMARK 923 INTER-LIGAND FREE ENERGY PREDICTED BY IDOCK:   -6.40 KCAL/MOL
REMARK 924 INTRA-LIGAND FREE ENERGY PREDICTED BY IDOCK:   -1.55 KCAL/MOL
REMARK 927      BINDING AFFINITY PREDICTED BY RF-SCORE:    0.00 PKD
ROOT
HETATM    1  C   UNL     1      -5.629  10.322  65.830  1.00  0.00    -0.079 C  
HETATM    2  C   UNL     1      -6.763   9.623  66.564  1.00  0.00    -0.079 C  
ENDROOT
BRANCH   2   3
HETATM    3  C   UNL     1      -7.659   8.854  65.594  1.00  0.00    -0.086 C  
BRANCH   3   4
HETATM    4  N   UNL     1      -8.977   8.656  66.195  1.00  0.00    -0.168 NA 
HETATM    5  H   UNL     1      -8.930   8.626  67.214  1.00  0.00     0.000 HD 
BRANCH   4   6
HETATM    6  C   UNL     1      -9.913   9.684  65.719  1.00  0.00    -0.272 C  
BRANCH   6   7
HETATM    7  C   UNL     1     -10.424  10.549  66.886  1.00  0.00    -0.246 C  
HETATM    8  O   UNL     1     -11.457  11.440  66.437  1.00  0.00    -0.349 OA 
HETATM    9  H   UNL     1     -11.772  11.973  67.157  1.00  0.00     0.000 HD 
BRANCH   7  10
HETATM   10  C   UNL     1     -10.968   9.672  68.020  1.00  0.00    -0.140 C  
BRANCH  10  11
HETATM   11  O   UNL     1     -10.797  10.352  69.279  1.00  0.00    -0.210 OA 
BRANCH  11  12
HETATM   12  C   UNL     1      -9.941   9.741  70.159  1.00  0.00    -0.263 A  
HETATM   13  C   UNL     1     -10.455   9.170  71.342  1.00  0.00    -0.414 A  
HETATM   14  C   UNL     1      -8.555   9.729  69.943  1.00  0.00    -0.236 A  
HETATM   15  C   UNL     1      -9.575   8.547  72.243  1.00  0.00    -0.377 A  
HETATM   16  C   UNL     1      -7.692   9.123  70.856  1.00  0.00    -0.152 A  
HETATM   17  C   UNL     1      -8.201   8.528  72.003  1.00  0.00    -0.192 A  
BRANCH  13  18
HETATM   18  C   UNL     1     -11.922   9.183  71.657  1.00  0.00    -0.367 C  
HETATM   19  O   UNL     1     -12.439  10.173  72.167  1.00  0.00    -0.278 OA 
BRANCH  18  20
HETATM   20  C   UNL     1     -12.776   7.985  71.261  1.00  0.00    -0.234 C  
BRANCH  20  21
HETATM   21  C   UNL     1     -12.211   6.670  71.789  1.00  0.00    -0.400 C  
BRANCH  21  22
HETATM   22  C   UNL     1     -11.276   6.008  70.805  1.00  0.00    -0.340 A  
HETATM   23  C   UNL     1     -10.396   5.000  71.225  1.00  0.00    -0.255 A  
HETATM   24  C   UNL     1      -9.549   4.372  70.310  1.00  0.00    -0.263 A  
HETATM   25  C   UNL     1      -9.569   4.748  68.969  1.00  0.00    -0.233 A  
HETATM   26  C   UNL     1     -10.430   5.757  68.543  1.00  0.00    -0.290 A  
HETATM   27  C   UNL     1     -11.278   6.388  69.457  1.00  0.00    -0.477 A  
ENDBRANCH  21  22
ENDBRANCH  20  21
ENDBRANCH  18  20
ENDBRANCH  13  18
ENDBRANCH  11  12
ENDBRANCH  10  11
ENDBRANCH   7  10
ENDBRANCH   6   7
ENDBRANCH   4   6
ENDBRANCH   3   4
ENDBRANCH   2   3
TORSDOF 11
ENDMDL
MODEL      249
REMARK 921   NORMALIZED FREE ENERGY PREDICTED BY IDOCK:   -4.20 KCAL/MOL
REMARK 922        TOTAL FREE ENERGY PREDICTED BY IDOCK:   -7.91 KCAL/MOL
REMARK 923 INTER-LIGAND FREE ENERGY PREDICTED BY IDOCK:   -7.44 KCAL/MOL
REMARK 924 INTRA-LIGAND FREE ENERGY PREDICTED BY IDOCK:   -0.47 KCAL/MOL
REMARK 927      BINDING AFFINITY PREDICTED BY RF-SCORE:    0.00 PKD
ROOT
HETATM    1  C   UNL     1      -5.593   6.763  67.520  1.00  0.00    -0.016 C  
HETATM    2  C   UNL     1      -6.104   8.100  67.006  1.00  0.00    -0.054 C  
ENDROOT
BRANCH   2   3
HETATM    3  C   UNL     1      -7.631   8.141  66.993  1.00  0.00    -0.096 C  
BRANCH   3   4
HETATM    4  N   UNL     1      -8.122   8.576  68.299  1.00  0.00    -0.118 NA 
HETATM    5  H   UNL     1      -7.834   9.531  68.516  1.00  0.00     0.000 HD 
BRANCH   4   6
HETATM    6  C   UNL     1      -9.580   8.412  68.375  1.00  0.00    -0.148 C  
BRANCH   6   7
HETATM    7  C   UNL     1     -10.239   9.627  69.052  1.00  0.00    -0.199 C  
HETATM    8  O   UNL     1      -9.242  10.476  69.641  1.00  0.00    -0.390 OA 
HETATM    9  H   UNL     1      -9.649  11.226  70.059  1.00  0.00     0.000 HD 
BRANCH   7  10
HETATM   10  C   UNL     1     -11.062  10.436  68.043  1.00  0.00    -0.298 C  
BRANCH  10  11
HETATM   11  O   UNL     1     -12.148  11.093  68.725  1.00  0.00    -0.522 OA 
BRANCH  11  12
HETATM   12  C   UNL     1     -11.894  12.382  69.119  1.00  0.00    -0.300 A  
HETATM   13  C   UNL     1     -12.302  12.808  70.400  1.00  0.00    -0.324 A  
HETATM   14  C   UNL     1     -11.296  13.308  68.250  1.00  0.00    -0.335 A  
HETATM   15  C   UNL     1     -12.041  14.130  70.799  1.00  0.00    -0.419 A  
HETATM   16  C   UNL     1     -11.062  14.622  68.655  1.00  0.00    -0.276 A  
HETATM   17  C   UNL     1     -11.429  15.032  69.930  1.00  0.00    -0.320 A  
BRANCH  13  18
HETATM   18  C   UNL     1     -12.983  11.883  71.364  1.00  0.00    -0.284 C  
HETATM   19  O   UNL     1     -13.480  12.320  72.399  1.00  0.00    -0.467 OA 
BRANCH  18  20
HETATM   20  C   UNL     1     -13.123  10.409  71.007  1.00  0.00    -0.450 C  
BRANCH  20  21
HETATM   21  C   UNL     1     -12.925   9.498  72.214  1.00  0.00    -0.466 C  
BRANCH  21  22
HETATM   22  C   UNL     1     -11.959   8.371  71.935  1.00  0.00    -0.397 A  
HETATM   23  C   UNL     1     -12.354   7.268  71.164  1.00  0.00    -0.381 A  
HETATM   24  C   UNL     1     -11.453   6.238  70.887  1.00  0.00    -0.377 A  
HETATM   25  C   UNL     1     -10.152   6.298  71.379  1.00  0.00    -0.222 A  
HETATM   26  C   UNL     1      -9.753   7.383  72.157  1.00  0.00    -0.182 A  
HETATM   27  C   UNL     1     -10.653   8.414  72.438  1.00  0.00    -0.405 A  
ENDBRANCH  21  22
ENDBRANCH  20  21
ENDBRANCH  18  20
ENDBRANCH  13  18
ENDBRANCH  11  12
ENDBRANCH  10  11
ENDBRANCH   7  10
ENDBRANCH   6   7
ENDBRANCH   4   6
ENDBRANCH   3   4
ENDBRANCH   2   3
TORSDOF 11
ENDMDL
MODEL      250
REMARK 921   NORMALIZED FREE ENERGY PREDICTED BY IDOCK:   -4.20 KCAL/MOL
REMARK 922        TOTAL FREE ENERGY PREDICTED BY IDOCK:   -7.91 KCAL/MOL
REMARK 923 INTER-LIGAND FREE ENERGY PREDICTED BY IDOCK:   -5.92 KCAL/MOL
REMARK 924 INTRA-LIGAND FREE ENERGY PREDICTED BY IDOCK:   -1.99 KCAL/MOL
REMARK 927      BINDING AFFINITY PREDICTED BY RF-SCORE:    0.00 PKD
ROOT
HETATM    1  C   UNL     1     -11.307  14.994  70.890  1.00  0.00    -0.305 C  
HETATM    2  C   UNL     1     -12.606  14.214  70.756  1.00  0.00    -0.432 C  
ENDROOT
BRANCH   2   3
HETATM    3  C   UNL     1     -12.339  12.719  70.591  1.00  0.00    -0.297 C  
BRANCH   3   4
HETATM    4  N   UNL     1     -12.591  12.032  71.856  1.00  0.00    -0.060 NA 
HETATM    5  H   UNL     1     -13.119  12.614  72.507  1.00  0.00     0.000 HD 
BRANCH   4   6
HETATM    6  C   UNL     1     -13.252  10.743  71.612  1.00  0.00    -0.383 C  
BRANCH   6   7
HETATM    7  C   UNL     1     -12.557   9.609  72.386  1.00  0.00    -0.129 C  
HETATM    8  O   UNL     1     -13.528   8.767  73.026  1.00  0.00    -0.873 OA 
HETATM    9  H   UNL     1     -13.099   8.067  73.504  1.00  0.00     0.000 HD 
BRANCH   7  10
HETATM   10  C   UNL     1     -11.686   8.761  71.452  1.00  0.00    -0.305 C  
BRANCH  10  11
HETATM   11  O   UNL     1     -10.957   9.625  70.558  1.00  0.00    -0.262 OA 
BRANCH  11  12
HETATM   12  C   UNL     1      -9.601   9.422  70.528  1.00  0.00    -0.271 A  
HETATM   13  C   UNL     1      -8.838   9.993  69.489  1.00  0.00    -0.209 A  
HETATM   14  C   UNL     1      -8.964   8.601  71.471  1.00  0.00    -0.302 A  
HETATM   15  C   UNL     1      -7.449   9.781  69.461  1.00  0.00    -0.101 A  
HETATM   16  C   UNL     1      -7.587   8.385  71.418  1.00  0.00    -0.109 A  
HETATM   17  C   UNL     1      -6.829   8.977  70.418  1.00  0.00    -0.055 A  
BRANCH  13  18
HETATM   18  C   UNL     1      -9.460  10.847  68.424  1.00  0.00    -0.178 C  
HETATM   19  O   UNL     1      -9.660  12.043  68.625  1.00  0.00    -0.175 OA 
BRANCH  18  20
HETATM   20  C   UNL     1      -9.764  10.233  67.064  1.00  0.00    -0.217 C  
BRANCH  20  21
HETATM   21  C   UNL     1     -10.704   9.036  67.164  1.00  0.00    -0.206 C  
BRANCH  21  22
HETATM   22  C   UNL     1      -9.960   7.724  67.243  1.00  0.00    -0.277 A  
HETATM   23  C   UNL     1     -10.308   6.765  68.206  1.00  0.00    -0.215 A  
HETATM   24  C   UNL     1      -9.636   5.542  68.262  1.00  0.00    -0.148 A  
HETATM   25  C   UNL     1      -8.608   5.268  67.362  1.00  0.00    -0.104 A  
HETATM   26  C   UNL     1      -8.247   6.220  66.411  1.00  0.00    -0.114 A  
HETATM   27  C   UNL     1      -8.916   7.444  66.353  1.00  0.00    -0.190 A  
ENDBRANCH  21  22
ENDBRANCH  20  21
ENDBRANCH  18  20
ENDBRANCH  13  18
ENDBRANCH  11  12
ENDBRANCH  10  11
ENDBRANCH   7  10
ENDBRANCH   6   7
ENDBRANCH   4   6
ENDBRANCH   3   4
ENDBRANCH   2   3
TORSDOF 11
ENDMDL
MODEL      251
REMARK 921   NORMALIZED FREE ENERGY PREDICTED BY IDOCK:   -4.18 KCAL/MOL
REMARK 922        TOTAL FREE ENERGY PREDICTED BY IDOCK:   -7.89 KCAL/MOL
REMARK 923 INTER-LIGAND FREE ENERGY PREDICTED BY IDOCK:   -5.82 KCAL/MOL
REMARK 924 INTRA-LIGAND FREE ENERGY PREDICTED BY IDOCK:   -2.07 KCAL/MOL
REMARK 927      BINDING AFFINITY PREDICTED BY RF-SCORE:    0.00 PKD
ROOT
HETATM    1  C   UNL     1     -11.598  12.973  64.106  1.00  0.00    -0.462 C  
HETATM    2  C   UNL     1     -11.147  12.466  65.467  1.00  0.00    -0.338 C  
ENDROOT
BRANCH   2   3
HETATM    3  C   UNL     1     -10.449  11.111  65.349  1.00  0.00    -0.259 C  
BRANCH   3   4
HETATM    4  N   UNL     1      -9.224  11.118  66.146  1.00  0.00    -0.192 NA 
HETATM    5  H   UNL     1      -8.415  10.811  65.604  1.00  0.00     0.000 HD 
BRANCH   4   6
HETATM    6  C   UNL     1      -9.013  12.445  66.742  1.00  0.00    -0.205 C  
BRANCH   6   7
HETATM    7  C   UNL     1      -8.793  12.338  68.262  1.00  0.00    -0.178 C  
HETATM    8  O   UNL     1     -10.045  12.154  68.940  1.00  0.00    -0.394 OA 
HETATM    9  H   UNL     1      -9.909  12.089  69.878  1.00  0.00     0.000 HD 
BRANCH   7  10
HETATM   10  C   UNL     1      -7.856  11.172  68.599  1.00  0.00    -0.138 C  
BRANCH  10  11
HETATM   11  O   UNL     1      -8.628  10.064  69.100  1.00  0.00    -0.135 OA 
BRANCH  11  12
HETATM   12  C   UNL     1      -7.917   8.914  69.328  1.00  0.00    -0.104 A  
HETATM   13  C   UNL     1      -8.153   7.781  68.522  1.00  0.00    -0.123 A  
HETATM   14  C   UNL     1      -7.005   8.817  70.390  1.00  0.00    -0.047 A  
HETATM   15  C   UNL     1      -7.424   6.604  68.761  1.00  0.00    -0.096 A  
HETATM   16  C   UNL     1      -6.302   7.636  70.626  1.00  0.00    -0.038 A  
HETATM   17  C   UNL     1      -6.507   6.531  69.809  1.00  0.00    -0.043 A  
BRANCH  13  18
HETATM   18  C   UNL     1      -9.143   7.802  67.396  1.00  0.00    -0.126 C  
HETATM   19  O   UNL     1      -8.759   7.900  66.233  1.00  0.00    -0.138 OA 
BRANCH  18  20
HETATM   20  C   UNL     1     -10.624   7.616  67.705  1.00  0.00    -0.294 C  
BRANCH  20  21
HETATM   21  C   UNL     1     -10.943   6.206  68.189  1.00  0.00    -0.398 C  
BRANCH  21  22
HETATM   22  C   UNL     1     -11.057   6.123  69.692  1.00  0.00    -0.489 A  
HETATM   23  C   UNL     1     -12.052   6.842  70.372  1.00  0.00    -0.250 A  
HETATM   24  C   UNL     1     -12.172   6.747  71.759  1.00  0.00    -0.402 A  
HETATM   25  C   UNL     1     -11.298   5.938  72.482  1.00  0.00    -0.352 A  
HETATM   26  C   UNL     1     -10.298   5.230  71.817  1.00  0.00    -0.277 A  
HETATM   27  C   UNL     1     -10.174   5.325  70.430  1.00  0.00    -0.338 A  
ENDBRANCH  21  22
ENDBRANCH  20  21
ENDBRANCH  18  20
ENDBRANCH  13  18
ENDBRANCH  11  12
ENDBRANCH  10  11
ENDBRANCH   7  10
ENDBRANCH   6   7
ENDBRANCH   4   6
ENDBRANCH   3   4
ENDBRANCH   2   3
TORSDOF 11
ENDMDL
MODEL      252
REMARK 921   NORMALIZED FREE ENERGY PREDICTED BY IDOCK:   -4.17 KCAL/MOL
REMARK 922        TOTAL FREE ENERGY PREDICTED BY IDOCK:   -7.87 KCAL/MOL
REMARK 923 INTER-LIGAND FREE ENERGY PREDICTED BY IDOCK:   -6.15 KCAL/MOL
REMARK 924 INTRA-LIGAND FREE ENERGY PREDICTED BY IDOCK:   -1.72 KCAL/MOL
REMARK 927      BINDING AFFINITY PREDICTED BY RF-SCORE:    0.00 PKD
ROOT
HETATM    1  C   UNL     1     -12.954  15.446  70.898  1.00  0.00    -0.539 C  
HETATM    2  C   UNL     1     -11.880  15.491  69.822  1.00  0.00    -0.376 C  
ENDROOT
BRANCH   2   3
HETATM    3  C   UNL     1     -11.283  14.106  69.578  1.00  0.00    -0.221 C  
BRANCH   3   4
HETATM    4  N   UNL     1     -12.032  13.425  68.524  1.00  0.00    -0.355 NA 
HETATM    5  H   UNL     1     -12.869  12.968  68.885  1.00  0.00     0.000 HD 
BRANCH   4   6
HETATM    6  C   UNL     1     -12.345  14.364  67.437  1.00  0.00    -0.032 C  
BRANCH   6   7
HETATM    7  C   UNL     1     -11.751  13.881  66.102  1.00  0.00    -0.376 C  
HETATM    8  O   UNL     1     -12.737  13.946  65.059  1.00  0.00    -0.635 OA 
HETATM    9  H   UNL     1     -12.370  13.648  64.235  1.00  0.00     0.000 HD 
BRANCH   7  10
HETATM   10  C   UNL     1     -10.536  14.728  65.705  1.00  0.00    -0.334 C  
BRANCH  10  11
HETATM   11  O   UNL     1      -9.338  14.127  66.234  1.00  0.00    -0.262 OA 
BRANCH  11  12
HETATM   12  C   UNL     1      -8.699  14.857  67.204  1.00  0.00    -0.219 A  
HETATM   13  C   UNL     1      -7.665  14.259  67.952  1.00  0.00    -0.157 A  
HETATM   14  C   UNL     1      -9.097  16.166  67.515  1.00  0.00    -0.207 A  
HETATM   15  C   UNL     1      -7.014  15.009  68.947  1.00  0.00    -0.114 A  
HETATM   16  C   UNL     1      -8.454  16.891  68.518  1.00  0.00    -0.258 A  
HETATM   17  C   UNL     1      -7.411  16.316  69.230  1.00  0.00    -0.221 A  
BRANCH  13  18
HETATM   18  C   UNL     1      -7.216  12.850  67.701  1.00  0.00    -0.147 C  
HETATM   19  O   UNL     1      -6.381  12.609  66.831  1.00  0.00    -0.170 OA 
BRANCH  18  20
HETATM   20  C   UNL     1      -7.744  11.732  68.591  1.00  0.00    -0.126 C  
BRANCH  20  21
HETATM   21  C   UNL     1      -9.159  11.307  68.209  1.00  0.00    -0.173 C  
BRANCH  21  22
HETATM   22  C   UNL     1      -9.206   9.911  67.635  1.00  0.00    -0.146 A  
HETATM   23  C   UNL     1     -10.431   9.329  67.277  1.00  0.00    -0.334 A  
HETATM   24  C   UNL     1     -10.472   8.047  66.724  1.00  0.00    -0.319 A  
HETATM   25  C   UNL     1      -9.292   7.334  66.528  1.00  0.00    -0.216 A  
HETATM   26  C   UNL     1      -8.071   7.898  66.893  1.00  0.00    -0.115 A  
HETATM   27  C   UNL     1      -8.027   9.179  67.447  1.00  0.00    -0.103 A  
ENDBRANCH  21  22
ENDBRANCH  20  21
ENDBRANCH  18  20
ENDBRANCH  13  18
ENDBRANCH  11  12
ENDBRANCH  10  11
ENDBRANCH   7  10
ENDBRANCH   6   7
ENDBRANCH   4   6
ENDBRANCH   3   4
ENDBRANCH   2   3
TORSDOF 11
ENDMDL
MODEL      253
REMARK 921   NORMALIZED FREE ENERGY PREDICTED BY IDOCK:   -4.16 KCAL/MOL
REMARK 922        TOTAL FREE ENERGY PREDICTED BY IDOCK:   -7.85 KCAL/MOL
REMARK 923 INTER-LIGAND FREE ENERGY PREDICTED BY IDOCK:   -6.49 KCAL/MOL
REMARK 924 INTRA-LIGAND FREE ENERGY PREDICTED BY IDOCK:   -1.36 KCAL/MOL
REMARK 927      BINDING AFFINITY PREDICTED BY RF-SCORE:    0.00 PKD
ROOT
HETATM    1  C   UNL     1      -9.140   4.566  63.974  1.00  0.00    -0.123 C  
HETATM    2  C   UNL     1     -10.539   4.363  64.537  1.00  0.00    -0.008 C  
ENDROOT
BRANCH   2   3
HETATM    3  C   UNL     1     -10.566   4.599  66.047  1.00  0.00    -0.200 C  
BRANCH   3   4
HETATM    4  N   UNL     1     -11.072   5.942  66.325  1.00  0.00    -0.724 NA 
HETATM    5  H   UNL     1     -12.046   5.926  66.631  1.00  0.00     0.000 HD 
BRANCH   4   6
HETATM    6  C   UNL     1     -10.203   6.621  67.296  1.00  0.00    -0.198 C  
BRANCH   6   7
HETATM    7  C   UNL     1     -10.246   5.915  68.664  1.00  0.00    -0.192 C  
HETATM    8  O   UNL     1      -8.953   5.948  69.287  1.00  0.00    -0.117 OA 
HETATM    9  H   UNL     1      -8.979   5.513  70.131  1.00  0.00     0.000 HD 
BRANCH   7  10
HETATM   10  C   UNL     1     -11.273   6.577  69.590  1.00  0.00    -0.384 C  
BRANCH  10  11
HETATM   11  O   UNL     1     -10.621   7.577  70.396  1.00  0.00    -0.220 OA 
BRANCH  11  12
HETATM   12  C   UNL     1     -11.438   8.575  70.861  1.00  0.00    -0.267 A  
HETATM   13  C   UNL     1     -11.299   9.880  70.346  1.00  0.00    -0.376 A  
HETATM   14  C   UNL     1     -12.366   8.342  71.888  1.00  0.00    -0.395 A  
HETATM   15  C   UNL     1     -12.138  10.901  70.826  1.00  0.00    -0.469 A  
HETATM   16  C   UNL     1     -13.177   9.370  72.367  1.00  0.00    -0.483 A  
HETATM   17  C   UNL     1     -13.068  10.647  71.834  1.00  0.00    -0.563 A  
BRANCH  13  18
HETATM   18  C   UNL     1     -10.300  10.209  69.277  1.00  0.00    -0.223 C  
HETATM   19  O   UNL     1      -9.138  10.477  69.573  1.00  0.00    -0.152 OA 
BRANCH  18  20
HETATM   20  C   UNL     1     -10.723  10.128  67.815  1.00  0.00    -0.328 C  
BRANCH  20  21
HETATM   21  C   UNL     1      -9.973  11.126  66.939  1.00  0.00    -0.230 C  
BRANCH  21  22
HETATM   22  C   UNL     1      -9.046  10.450  65.957  1.00  0.00    -0.187 A  
HETATM   23  C   UNL     1      -7.691  10.806  65.895  1.00  0.00    -0.118 A  
HETATM   24  C   UNL     1      -6.830  10.163  65.003  1.00  0.00    -0.132 A  
HETATM   25  C   UNL     1      -7.314   9.164  64.163  1.00  0.00    -0.104 A  
HETATM   26  C   UNL     1      -8.662   8.812  64.207  1.00  0.00    -0.038 A  
HETATM   27  C   UNL     1      -9.526   9.455  65.097  1.00  0.00    -0.255 A  
ENDBRANCH  21  22
ENDBRANCH  20  21
ENDBRANCH  18  20
ENDBRANCH  13  18
ENDBRANCH  11  12
ENDBRANCH  10  11
ENDBRANCH   7  10
ENDBRANCH   6   7
ENDBRANCH   4   6
ENDBRANCH   3   4
ENDBRANCH   2   3
TORSDOF 11
ENDMDL
MODEL      254
REMARK 921   NORMALIZED FREE ENERGY PREDICTED BY IDOCK:   -4.16 KCAL/MOL
REMARK 922        TOTAL FREE ENERGY PREDICTED BY IDOCK:   -7.85 KCAL/MOL
REMARK 923 INTER-LIGAND FREE ENERGY PREDICTED BY IDOCK:   -6.52 KCAL/MOL
REMARK 924 INTRA-LIGAND FREE ENERGY PREDICTED BY IDOCK:   -1.33 KCAL/MOL
REMARK 927      BINDING AFFINITY PREDICTED BY RF-SCORE:    0.00 PKD
ROOT
HETATM    1  C   UNL     1      -5.727  10.145  65.518  1.00  0.00    -0.081 C  
HETATM    2  C   UNL     1      -6.905   9.845  66.431  1.00  0.00    -0.090 C  
ENDROOT
BRANCH   2   3
HETATM    3  C   UNL     1      -7.203  11.024  67.356  1.00  0.00    -0.103 C  
BRANCH   3   4
HETATM    4  N   UNL     1      -6.064  11.939  67.368  1.00  0.00    -0.103 NA 
HETATM    5  H   UNL     1      -5.437  11.778  66.579  1.00  0.00     0.000 HD 
BRANCH   4   6
HETATM    6  C   UNL     1      -6.530  13.331  67.423  1.00  0.00    -0.034 C  
BRANCH   6   7
HETATM    7  C   UNL     1      -7.803  13.454  68.280  1.00  0.00    -0.143 C  
HETATM    8  O   UNL     1      -7.465  13.771  69.640  1.00  0.00    -0.314 OA 
HETATM    9  H   UNL     1      -8.251  13.847  70.168  1.00  0.00     0.000 HD 
BRANCH   7  10
HETATM   10  C   UNL     1      -8.735  14.536  67.723  1.00  0.00    -0.174 C  
BRANCH  10  11
HETATM   11  O   UNL     1     -10.079  14.020  67.647  1.00  0.00    -0.236 OA 
BRANCH  11  12
HETATM   12  C   UNL     1     -10.820  14.153  68.793  1.00  0.00    -0.258 A  
HETATM   13  C   UNL     1     -11.479  13.027  69.326  1.00  0.00    -0.348 A  
HETATM   14  C   UNL     1     -10.992  15.401  69.411  1.00  0.00    -0.276 A  
HETATM   15  C   UNL     1     -12.240  13.168  70.499  1.00  0.00    -0.405 A  
HETATM   16  C   UNL     1     -11.766  15.528  70.565  1.00  0.00    -0.377 A  
HETATM   17  C   UNL     1     -12.385  14.412  71.112  1.00  0.00    -0.428 A  
BRANCH  13  18
HETATM   18  C   UNL     1     -11.372  11.671  68.693  1.00  0.00    -0.267 C  
HETATM   19  O   UNL     1     -12.267  11.254  67.961  1.00  0.00    -0.621 OA 
BRANCH  18  20
HETATM   20  C   UNL     1     -10.105  10.852  68.903  1.00  0.00    -0.211 C  
BRANCH  20  21
HETATM   21  C   UNL     1     -10.357   9.596  69.731  1.00  0.00    -0.266 C  
BRANCH  21  22
HETATM   22  C   UNL     1     -10.465   8.354  68.878  1.00  0.00    -0.208 A  
HETATM   23  C   UNL     1     -10.274   8.424  67.490  1.00  0.00    -0.308 A  
HETATM   24  C   UNL     1     -10.351   7.271  66.706  1.00  0.00    -0.311 A  
HETATM   25  C   UNL     1     -10.624   6.041  67.299  1.00  0.00    -0.367 A  
HETATM   26  C   UNL     1     -10.828   5.963  68.675  1.00  0.00    -0.333 A  
HETATM   27  C   UNL     1     -10.754   7.115  69.462  1.00  0.00    -0.255 A  
ENDBRANCH  21  22
ENDBRANCH  20  21
ENDBRANCH  18  20
ENDBRANCH  13  18
ENDBRANCH  11  12
ENDBRANCH  10  11
ENDBRANCH   7  10
ENDBRANCH   6   7
ENDBRANCH   4   6
ENDBRANCH   3   4
ENDBRANCH   2   3
TORSDOF 11
ENDMDL
MODEL      255
REMARK 921   NORMALIZED FREE ENERGY PREDICTED BY IDOCK:   -4.16 KCAL/MOL
REMARK 922        TOTAL FREE ENERGY PREDICTED BY IDOCK:   -7.85 KCAL/MOL
REMARK 923 INTER-LIGAND FREE ENERGY PREDICTED BY IDOCK:   -6.54 KCAL/MOL
REMARK 924 INTRA-LIGAND FREE ENERGY PREDICTED BY IDOCK:   -1.31 KCAL/MOL
REMARK 927      BINDING AFFINITY PREDICTED BY RF-SCORE:    0.00 PKD
ROOT
HETATM    1  C   UNL     1      -9.865   4.427  70.483  1.00  0.00    -0.285 C  
HETATM    2  C   UNL     1     -10.073   5.267  71.734  1.00  0.00    -0.257 C  
ENDROOT
BRANCH   2   3
HETATM    3  C   UNL     1     -11.307   6.159  71.602  1.00  0.00    -0.284 C  
BRANCH   3   4
HETATM    4  N   UNL     1     -11.072   7.426  72.292  1.00  0.00    -0.251 NA 
HETATM    5  H   UNL     1     -11.903   7.748  72.790  1.00  0.00     0.000 HD 
BRANCH   4   6
HETATM    6  C   UNL     1      -9.909   7.312  73.183  1.00  0.00    -0.235 C  
BRANCH   6   7
HETATM    7  C   UNL     1      -8.934   8.484  72.972  1.00  0.00    -0.054 C  
HETATM    8  O   UNL     1      -7.953   8.518  74.020  1.00  0.00    -0.369 OA 
HETATM    9  H   UNL     1      -7.352   9.242  73.890  1.00  0.00     0.000 HD 
BRANCH   7  10
HETATM   10  C   UNL     1      -8.227   8.371  71.617  1.00  0.00    -0.152 C  
BRANCH  10  11
HETATM   11  O   UNL     1      -8.866   9.244  70.666  1.00  0.00    -0.213 OA 
BRANCH  11  12
HETATM   12  C   UNL     1      -9.342   8.628  69.537  1.00  0.00    -0.153 A  
HETATM   13  C   UNL     1     -10.476   9.155  68.886  1.00  0.00    -0.239 A  
HETATM   14  C   UNL     1      -8.766   7.444  69.052  1.00  0.00    -0.133 A  
HETATM   15  C   UNL     1     -10.963   8.519  67.731  1.00  0.00     0.093 A  
HETATM   16  C   UNL     1      -9.272   6.814  67.916  1.00  0.00    -0.112 A  
HETATM   17  C   UNL     1     -10.366   7.353  67.252  1.00  0.00    -0.356 A  
BRANCH  13  18
HETATM   18  C   UNL     1     -11.167  10.394  69.374  1.00  0.00    -0.259 C  
HETATM   19  O   UNL     1     -11.824  10.372  70.411  1.00  0.00    -0.278 OA 
BRANCH  18  20
HETATM   20  C   UNL     1     -10.975  11.699  68.611  1.00  0.00    -0.266 C  
BRANCH  20  21
HETATM   21  C   UNL     1     -11.526  11.627  67.191  1.00  0.00    -0.344 C  
BRANCH  21  22
HETATM   22  C   UNL     1     -11.280  12.897  66.411  1.00  0.00    -0.337 A  
HETATM   23  C   UNL     1     -10.159  13.695  66.683  1.00  0.00    -0.277 A  
HETATM   24  C   UNL     1      -9.919  14.856  65.946  1.00  0.00    -0.357 A  
HETATM   25  C   UNL     1     -10.799  15.234  64.935  1.00  0.00    -0.444 A  
HETATM   26  C   UNL     1     -11.924  14.456  64.666  1.00  0.00    -0.475 A  
HETATM   27  C   UNL     1     -12.166  13.295  65.403  1.00  0.00    -0.501 A  
ENDBRANCH  21  22
ENDBRANCH  20  21
ENDBRANCH  18  20
ENDBRANCH  13  18
ENDBRANCH  11  12
ENDBRANCH  10  11
ENDBRANCH   7  10
ENDBRANCH   6   7
ENDBRANCH   4   6
ENDBRANCH   3   4
ENDBRANCH   2   3
TORSDOF 11
ENDMDL
MODEL      256
REMARK 921   NORMALIZED FREE ENERGY PREDICTED BY IDOCK:   -4.15 KCAL/MOL
REMARK 922        TOTAL FREE ENERGY PREDICTED BY IDOCK:   -7.83 KCAL/MOL
REMARK 923 INTER-LIGAND FREE ENERGY PREDICTED BY IDOCK:   -6.84 KCAL/MOL
REMARK 924 INTRA-LIGAND FREE ENERGY PREDICTED BY IDOCK:   -0.99 KCAL/MOL
REMARK 927      BINDING AFFINITY PREDICTED BY RF-SCORE:    0.00 PKD
ROOT
HETATM    1  C   UNL     1     -11.457   6.011  70.909  1.00  0.00    -0.230 C  
HETATM    2  C   UNL     1     -11.883   7.456  70.699  1.00  0.00    -0.245 C  
ENDROOT
BRANCH   2   3
HETATM    3  C   UNL     1     -10.933   8.421  71.407  1.00  0.00    -0.253 C  
BRANCH   3   4
HETATM    4  N   UNL     1     -11.423   9.790  71.259  1.00  0.00    -0.379 NA 
HETATM    5  H   UNL     1     -11.359  10.314  72.133  1.00  0.00     0.000 HD 
BRANCH   4   6
HETATM    6  C   UNL     1     -10.720  10.467  70.161  1.00  0.00    -0.233 C  
BRANCH   6   7
HETATM    7  C   UNL     1     -11.700  10.881  69.049  1.00  0.00    -0.320 C  
HETATM    8  O   UNL     1     -13.056  10.648  69.461  1.00  0.00    -0.500 OA 
HETATM    9  H   UNL     1     -13.660  10.904  68.774  1.00  0.00     0.000 HD 
BRANCH   7  10
HETATM   10  C   UNL     1     -11.525  12.362  68.690  1.00  0.00    -0.303 C  
BRANCH  10  11
HETATM   11  O   UNL     1     -11.941  12.578  67.327  1.00  0.00    -0.474 OA 
BRANCH  11  12
HETATM   12  C   UNL     1     -11.536  13.768  66.777  1.00  0.00    -0.370 A  
HETATM   13  C   UNL     1     -11.133  13.805  65.426  1.00  0.00    -0.304 A  
HETATM   14  C   UNL     1     -11.450  14.938  67.547  1.00  0.00    -0.361 A  
HETATM   15  C   UNL     1     -10.717  15.025  64.867  1.00  0.00    -0.420 A  
HETATM   16  C   UNL     1     -11.017  16.137  66.982  1.00  0.00    -0.123 A  
HETATM   17  C   UNL     1     -10.656  16.183  65.642  1.00  0.00    -0.377 A  
BRANCH  13  18
HETATM   18  C   UNL     1     -11.161  12.584  64.556  1.00  0.00    -0.317 C  
HETATM   19  O   UNL     1     -12.224  12.169  64.101  1.00  0.00    -0.414 OA 
BRANCH  18  20
HETATM   20  C   UNL     1      -9.847  11.913  64.176  1.00  0.00    -0.233 C  
BRANCH  20  21
HETATM   21  C   UNL     1      -9.912  10.395  64.307  1.00  0.00    -0.368 C  
BRANCH  21  22
HETATM   22  C   UNL     1      -8.546   9.770  64.467  1.00  0.00    -0.199 A  
HETATM   23  C   UNL     1      -7.422  10.349  63.861  1.00  0.00    -0.004 A  
HETATM   24  C   UNL     1      -6.156   9.785  64.030  1.00  0.00    -0.114 A  
HETATM   25  C   UNL     1      -6.002   8.635  64.800  1.00  0.00    -0.064 A  
HETATM   26  C   UNL     1      -7.115   8.044  65.396  1.00  0.00    -0.060 A  
HETATM   27  C   UNL     1      -8.382   8.606  65.227  1.00  0.00    -0.177 A  
ENDBRANCH  21  22
ENDBRANCH  20  21
ENDBRANCH  18  20
ENDBRANCH  13  18
ENDBRANCH  11  12
ENDBRANCH  10  11
ENDBRANCH   7  10
ENDBRANCH   6   7
ENDBRANCH   4   6
ENDBRANCH   3   4
ENDBRANCH   2   3
TORSDOF 11
ENDMDL
MODEL      257
REMARK 921   NORMALIZED FREE ENERGY PREDICTED BY IDOCK:   -4.15 KCAL/MOL
REMARK 922        TOTAL FREE ENERGY PREDICTED BY IDOCK:   -7.83 KCAL/MOL
REMARK 923 INTER-LIGAND FREE ENERGY PREDICTED BY IDOCK:   -6.83 KCAL/MOL
REMARK 924 INTRA-LIGAND FREE ENERGY PREDICTED BY IDOCK:   -1.00 KCAL/MOL
REMARK 927      BINDING AFFINITY PREDICTED BY RF-SCORE:    0.00 PKD
ROOT
HETATM    1  C   UNL     1      -7.882   6.214  71.268  1.00  0.00    -0.111 C  
HETATM    2  C   UNL     1      -8.037   7.615  70.697  1.00  0.00    -0.108 C  
ENDROOT
BRANCH   2   3
HETATM    3  C   UNL     1      -9.454   7.845  70.173  1.00  0.00    -0.160 C  
BRANCH   3   4
HETATM    4  N   UNL     1      -9.529   9.147  69.514  1.00  0.00    -0.162 NA 
HETATM    5  H   UNL     1      -9.776   9.062  68.528  1.00  0.00     0.000 HD 
BRANCH   4   6
HETATM    6  C   UNL     1     -10.455  10.030  70.237  1.00  0.00    -0.272 C  
BRANCH   6   7
HETATM    7  C   UNL     1     -11.847  10.028  69.580  1.00  0.00     0.030 C  
HETATM    8  O   UNL     1     -12.828   9.491  70.481  1.00  0.00    -0.515 OA 
HETATM    9  H   UNL     1     -13.687   9.489  70.075  1.00  0.00     0.000 HD 
BRANCH   7  10
HETATM   10  C   UNL     1     -12.260  11.445  69.166  1.00  0.00    -0.175 C  
BRANCH  10  11
HETATM   11  O   UNL     1     -11.582  12.406  70.000  1.00  0.00    -0.248 OA 
BRANCH  11  12
HETATM   12  C   UNL     1     -12.404  13.248  70.704  1.00  0.00    -0.339 A  
HETATM   13  C   UNL     1     -12.394  14.628  70.415  1.00  0.00    -0.399 A  
HETATM   14  C   UNL     1     -13.206  12.777  71.755  1.00  0.00    -0.471 A  
HETATM   15  C   UNL     1     -13.236  15.488  71.140  1.00  0.00    -0.576 A  
HETATM   16  C   UNL     1     -14.022  13.646  72.478  1.00  0.00    -0.572 A  
HETATM   17  C   UNL     1     -14.042  15.000  72.169  1.00  0.00    -0.629 A  
BRANCH  13  18
HETATM   18  C   UNL     1     -11.531  15.206  69.333  1.00  0.00    -0.306 C  
HETATM   19  O   UNL     1     -11.647  14.819  68.172  1.00  0.00    -0.307 OA 
BRANCH  18  20
HETATM   20  C   UNL     1     -10.569  16.336  69.675  1.00  0.00    -0.320 C  
BRANCH  20  21
HETATM   21  C   UNL     1      -9.704  16.742  68.485  1.00  0.00    -0.248 C  
BRANCH  21  22
HETATM   22  C   UNL     1      -8.318  16.146  68.550  1.00  0.00    -0.195 A  
HETATM   23  C   UNL     1      -7.320  16.565  67.658  1.00  0.00    -0.159 A  
HETATM   24  C   UNL     1      -6.032  16.031  67.735  1.00  0.00    -0.162 A  
HETATM   25  C   UNL     1      -5.731  15.070  68.697  1.00  0.00    -0.091 A  
HETATM   26  C   UNL     1      -6.719  14.637  69.579  1.00  0.00    -0.158 A  
HETATM   27  C   UNL     1      -8.008  15.168  69.504  1.00  0.00    -0.175 A  
ENDBRANCH  21  22
ENDBRANCH  20  21
ENDBRANCH  18  20
ENDBRANCH  13  18
ENDBRANCH  11  12
ENDBRANCH  10  11
ENDBRANCH   7  10
ENDBRANCH   6   7
ENDBRANCH   4   6
ENDBRANCH   3   4
ENDBRANCH   2   3
TORSDOF 11
ENDMDL
MODEL      258
REMARK 921   NORMALIZED FREE ENERGY PREDICTED BY IDOCK:   -4.15 KCAL/MOL
REMARK 922        TOTAL FREE ENERGY PREDICTED BY IDOCK:   -7.83 KCAL/MOL
REMARK 923 INTER-LIGAND FREE ENERGY PREDICTED BY IDOCK:   -6.13 KCAL/MOL
REMARK 924 INTRA-LIGAND FREE ENERGY PREDICTED BY IDOCK:   -1.70 KCAL/MOL
REMARK 927      BINDING AFFINITY PREDICTED BY RF-SCORE:    0.00 PKD
ROOT
HETATM    1  C   UNL     1      -6.632   7.552  72.942  1.00  0.00    -0.065 C  
HETATM    2  C   UNL     1      -7.680   6.521  73.330  1.00  0.00    -0.092 C  
ENDROOT
BRANCH   2   3
HETATM    3  C   UNL     1      -8.803   7.155  74.149  1.00  0.00    -0.210 C  
BRANCH   3   4
HETATM    4  N   UNL     1     -10.084   6.933  73.480  1.00  0.00    -0.257 NA 
HETATM    5  H   UNL     1     -10.487   7.803  73.130  1.00  0.00     0.000 HD 
BRANCH   4   6
HETATM    6  C   UNL     1      -9.935   5.931  72.416  1.00  0.00    -0.171 C  
BRANCH   6   7
HETATM    7  C   UNL     1     -11.245   5.766  71.625  1.00  0.00    -0.192 C  
HETATM    8  O   UNL     1     -12.379   6.010  72.472  1.00  0.00    -0.545 OA 
HETATM    9  H   UNL     1     -13.187   5.908  71.984  1.00  0.00     0.000 HD 
BRANCH   7  10
HETATM   10  C   UNL     1     -11.288   6.726  70.431  1.00  0.00    -0.347 C  
BRANCH  10  11
HETATM   11  O   UNL     1     -10.418   7.847  70.683  1.00  0.00    -0.209 OA 
BRANCH  11  12
HETATM   12  C   UNL     1     -11.026   9.076  70.644  1.00  0.00    -0.257 A  
HETATM   13  C   UNL     1     -10.592  10.034  69.704  1.00  0.00    -0.278 A  
HETATM   14  C   UNL     1     -12.025   9.427  71.565  1.00  0.00    -0.456 A  
HETATM   15  C   UNL     1     -11.216  11.293  69.669  1.00  0.00    -0.321 A  
HETATM   16  C   UNL     1     -12.621  10.688  71.529  1.00  0.00    -0.517 A  
HETATM   17  C   UNL     1     -12.221  11.618  70.579  1.00  0.00    -0.451 A  
BRANCH  13  18
HETATM   18  C   UNL     1      -9.501   9.741  68.718  1.00  0.00    -0.154 C  
HETATM   19  O   UNL     1      -9.730   9.055  67.724  1.00  0.00    -0.147 OA 
BRANCH  18  20
HETATM   20  C   UNL     1      -8.129  10.370  68.919  1.00  0.00    -0.129 C  
BRANCH  20  21
HETATM   21  C   UNL     1      -7.523  10.871  67.612  1.00  0.00    -0.095 C  
BRANCH  21  22
HETATM   22  C   UNL     1      -7.794  12.338  67.376  1.00  0.00    -0.171 A  
HETATM   23  C   UNL     1      -9.010  12.757  66.815  1.00  0.00    -0.188 A  
HETATM   24  C   UNL     1      -9.269  14.114  66.619  1.00  0.00    -0.272 A  
HETATM   25  C   UNL     1      -8.316  15.066  66.975  1.00  0.00    -0.254 A  
HETATM   26  C   UNL     1      -7.100  14.659  67.521  1.00  0.00    -0.203 A  
HETATM   27  C   UNL     1      -6.837  13.302  67.716  1.00  0.00    -0.154 A  
ENDBRANCH  21  22
ENDBRANCH  20  21
ENDBRANCH  18  20
ENDBRANCH  13  18
ENDBRANCH  11  12
ENDBRANCH  10  11
ENDBRANCH   7  10
ENDBRANCH   6   7
ENDBRANCH   4   6
ENDBRANCH   3   4
ENDBRANCH   2   3
TORSDOF 11
ENDMDL
MODEL      259
REMARK 921   NORMALIZED FREE ENERGY PREDICTED BY IDOCK:   -4.14 KCAL/MOL
REMARK 922        TOTAL FREE ENERGY PREDICTED BY IDOCK:   -7.82 KCAL/MOL
REMARK 923 INTER-LIGAND FREE ENERGY PREDICTED BY IDOCK:   -6.79 KCAL/MOL
REMARK 924 INTRA-LIGAND FREE ENERGY PREDICTED BY IDOCK:   -1.02 KCAL/MOL
REMARK 927      BINDING AFFINITY PREDICTED BY RF-SCORE:    0.00 PKD
ROOT
HETATM    1  C   UNL     1     -13.377  12.722  72.014  1.00  0.00    -0.565 C  
HETATM    2  C   UNL     1     -12.852  11.507  71.264  1.00  0.00    -0.463 C  
ENDROOT
BRANCH   2   3
HETATM    3  C   UNL     1     -13.284  10.208  71.944  1.00  0.00    -0.452 C  
BRANCH   3   4
HETATM    4  N   UNL     1     -12.859   9.066  71.137  1.00  0.00    -0.497 NA 
HETATM    5  H   UNL     1     -12.128   9.321  70.471  1.00  0.00     0.000 HD 
BRANCH   4   6
HETATM    6  C   UNL     1     -12.446   7.955  72.005  1.00  0.00    -0.304 C  
BRANCH   6   7
HETATM    7  C   UNL     1     -11.620   6.919  71.222  1.00  0.00    -0.310 C  
HETATM    8  O   UNL     1     -12.130   6.774  69.888  1.00  0.00    -0.656 OA 
HETATM    9  H   UNL     1     -11.620   6.134  69.405  1.00  0.00     0.000 HD 
BRANCH   7  10
HETATM   10  C   UNL     1     -10.144   7.328  71.161  1.00  0.00    -0.186 C  
BRANCH  10  11
HETATM   11  O   UNL     1      -9.708   7.354  69.788  1.00  0.00    -0.169 OA 
BRANCH  11  12
HETATM   12  C   UNL     1      -8.684   6.495  69.485  1.00  0.00    -0.134 A  
HETATM   13  C   UNL     1      -7.835   6.785  68.397  1.00  0.00    -0.114 A  
HETATM   14  C   UNL     1      -8.501   5.297  70.192  1.00  0.00    -0.109 A  
HETATM   15  C   UNL     1      -6.787   5.900  68.089  1.00  0.00    -0.067 A  
HETATM   16  C   UNL     1      -7.469   4.420  69.862  1.00  0.00    -0.050 A  
HETATM   17  C   UNL     1      -6.609   4.722  68.814  1.00  0.00    -0.045 A  
BRANCH  13  18
HETATM   18  C   UNL     1      -7.998   8.027  67.572  1.00  0.00    -0.122 C  
HETATM   19  O   UNL     1      -7.317   9.022  67.807  1.00  0.00    -0.083 OA 
BRANCH  18  20
HETATM   20  C   UNL     1      -8.956   8.012  66.388  1.00  0.00    -0.204 C  
BRANCH  20  21
HETATM   21  C   UNL     1      -8.341   8.629  65.136  1.00  0.00    -0.178 C  
BRANCH  21  22
HETATM   22  C   UNL     1      -9.130   9.813  64.630  1.00  0.00    -0.294 A  
HETATM   23  C   UNL     1      -8.922  10.305  63.333  1.00  0.00    -0.254 A  
HETATM   24  C   UNL     1      -9.669  11.385  62.857  1.00  0.00    -0.344 A  
HETATM   25  C   UNL     1     -10.624  11.987  63.673  1.00  0.00    -0.503 A  
HETATM   26  C   UNL     1     -10.829  11.513  64.968  1.00  0.00    -0.336 A  
HETATM   27  C   UNL     1     -10.082  10.434  65.447  1.00  0.00    -0.354 A  
ENDBRANCH  21  22
ENDBRANCH  20  21
ENDBRANCH  18  20
ENDBRANCH  13  18
ENDBRANCH  11  12
ENDBRANCH  10  11
ENDBRANCH   7  10
ENDBRANCH   6   7
ENDBRANCH   4   6
ENDBRANCH   3   4
ENDBRANCH   2   3
TORSDOF 11
ENDMDL
MODEL      260
REMARK 921   NORMALIZED FREE ENERGY PREDICTED BY IDOCK:   -4.13 KCAL/MOL
REMARK 922        TOTAL FREE ENERGY PREDICTED BY IDOCK:   -7.81 KCAL/MOL
REMARK 923 INTER-LIGAND FREE ENERGY PREDICTED BY IDOCK:   -5.94 KCAL/MOL
REMARK 924 INTRA-LIGAND FREE ENERGY PREDICTED BY IDOCK:   -1.87 KCAL/MOL
REMARK 927      BINDING AFFINITY PREDICTED BY RF-SCORE:    0.00 PKD
ROOT
HETATM    1  C   UNL     1     -10.998   5.574  71.740  1.00  0.00    -0.249 C  
HETATM    2  C   UNL     1     -11.967   6.385  70.893  1.00  0.00    -0.258 C  
ENDROOT
BRANCH   2   3
HETATM    3  C   UNL     1     -11.247   7.515  70.159  1.00  0.00    -0.196 C  
BRANCH   3   4
HETATM    4  N   UNL     1     -10.284   8.150  71.057  1.00  0.00    -0.187 NA 
HETATM    5  H   UNL     1      -9.363   7.714  70.998  1.00  0.00     0.000 HD 
BRANCH   4   6
HETATM    6  C   UNL     1     -10.224   9.595  70.799  1.00  0.00    -0.260 C  
BRANCH   6   7
HETATM    7  C   UNL     1     -11.542  10.102  70.186  1.00  0.00    -0.277 C  
HETATM    8  O   UNL     1     -12.334  10.772  71.179  1.00  0.00    -0.356 OA 
HETATM    9  H   UNL     1     -13.147  11.084  70.800  1.00  0.00     0.000 HD 
BRANCH   7  10
HETATM   10  C   UNL     1     -11.270  11.062  69.021  1.00  0.00    -0.258 C  
BRANCH  10  11
HETATM   11  O   UNL     1      -9.855  11.104  68.753  1.00  0.00    -0.197 OA 
BRANCH  11  12
HETATM   12  C   UNL     1      -9.502  10.863  67.450  1.00  0.00    -0.155 A  
HETATM   13  C   UNL     1      -8.422  11.570  66.882  1.00  0.00    -0.165 A  
HETATM   14  C   UNL     1     -10.235   9.976  66.645  1.00  0.00    -0.288 A  
HETATM   15  C   UNL     1      -8.065  11.322  65.546  1.00  0.00     0.250 A  
HETATM   16  C   UNL     1      -9.879   9.755  65.315  1.00  0.00    -0.335 A  
HETATM   17  C   UNL     1      -8.793  10.423  64.766  1.00  0.00    -0.211 A  
BRANCH  13  18
HETATM   18  C   UNL     1      -7.621  12.563  67.671  1.00  0.00    -0.145 C  
HETATM   19  O   UNL     1      -6.419  12.386  67.855  1.00  0.00    -0.072 OA 
BRANCH  18  20
HETATM   20  C   UNL     1      -8.298  13.833  68.172  1.00  0.00    -0.165 C  
BRANCH  20  21
HETATM   21  C   UNL     1      -8.686  14.770  67.033  1.00  0.00    -0.258 C  
BRANCH  21  22
HETATM   22  C   UNL     1     -10.057  14.467  66.478  1.00  0.00    -0.280 A  
HETATM   23  C   UNL     1     -10.225  14.169  65.118  1.00  0.00    -0.411 A  
HETATM   24  C   UNL     1     -11.490  13.865  64.610  1.00  0.00    -0.386 A  
HETATM   25  C   UNL     1     -12.598  13.861  65.454  1.00  0.00    -0.538 A  
HETATM   26  C   UNL     1     -12.444  14.169  66.805  1.00  0.00    -0.200 A  
HETATM   27  C   UNL     1     -11.180  14.475  67.315  1.00  0.00    -0.341 A  
ENDBRANCH  21  22
ENDBRANCH  20  21
ENDBRANCH  18  20
ENDBRANCH  13  18
ENDBRANCH  11  12
ENDBRANCH  10  11
ENDBRANCH   7  10
ENDBRANCH   6   7
ENDBRANCH   4   6
ENDBRANCH   3   4
ENDBRANCH   2   3
TORSDOF 11
ENDMDL
MODEL      261
REMARK 921   NORMALIZED FREE ENERGY PREDICTED BY IDOCK:   -4.13 KCAL/MOL
REMARK 922        TOTAL FREE ENERGY PREDICTED BY IDOCK:   -7.80 KCAL/MOL
REMARK 923 INTER-LIGAND FREE ENERGY PREDICTED BY IDOCK:   -6.86 KCAL/MOL
REMARK 924 INTRA-LIGAND FREE ENERGY PREDICTED BY IDOCK:   -0.94 KCAL/MOL
REMARK 927      BINDING AFFINITY PREDICTED BY RF-SCORE:    0.00 PKD
ROOT
HETATM    1  C   UNL     1     -13.759   6.969  71.529  1.00  0.00    -0.355 C  
HETATM    2  C   UNL     1     -14.405   8.327  71.759  1.00  0.00    -0.574 C  
ENDROOT
BRANCH   2   3
HETATM    3  C   UNL     1     -13.376   9.358  72.221  1.00  0.00    -0.461 C  
BRANCH   3   4
HETATM    4  N   UNL     1     -12.032   8.796  72.106  1.00  0.00    -0.366 NA 
HETATM    5  H   UNL     1     -12.047   7.844  71.739  1.00  0.00     0.000 HD 
BRANCH   4   6
HETATM    6  C   UNL     1     -11.178   9.681  71.301  1.00  0.00    -0.376 C  
BRANCH   6   7
HETATM    7  C   UNL     1     -12.026  10.596  70.400  1.00  0.00    -0.346 C  
HETATM    8  O   UNL     1     -11.726  11.976  70.659  1.00  0.00    -0.476 OA 
HETATM    9  H   UNL     1     -12.250  12.541  70.103  1.00  0.00     0.000 HD 
BRANCH   7  10
HETATM   10  C   UNL     1     -11.774  10.291  68.918  1.00  0.00     0.013 C  
BRANCH  10  11
HETATM   11  O   UNL     1     -11.160  11.433  68.289  1.00  0.00    -0.207 OA 
BRANCH  11  12
HETATM   12  C   UNL     1      -9.877  11.235  67.848  1.00  0.00    -0.176 A  
HETATM   13  C   UNL     1      -9.511  11.678  66.560  1.00  0.00    -0.219 A  
HETATM   14  C   UNL     1      -8.936  10.541  68.623  1.00  0.00    -0.162 A  
HETATM   15  C   UNL     1      -8.196  11.472  66.111  1.00  0.00     0.018 A  
HETATM   16  C   UNL     1      -7.640  10.327  68.155  1.00  0.00    -0.087 A  
HETATM   17  C   UNL     1      -7.267  10.796  66.902  1.00  0.00    -0.115 A  
BRANCH  13  18
HETATM   18  C   UNL     1     -10.478  12.391  65.662  1.00  0.00    -0.261 C  
HETATM   19  O   UNL     1     -11.229  11.754  64.927  1.00  0.00    -0.309 OA 
BRANCH  18  20
HETATM   20  C   UNL     1     -10.575  13.910  65.731  1.00  0.00    -0.300 C  
BRANCH  20  21
HETATM   21  C   UNL     1     -10.870  14.408  67.142  1.00  0.00    -0.292 C  
BRANCH  21  22
HETATM   22  C   UNL     1     -10.257  15.761  67.416  1.00  0.00    -0.270 A  
HETATM   23  C   UNL     1     -10.760  16.578  68.440  1.00  0.00    -0.339 A  
HETATM   24  C   UNL     1     -10.176  17.817  68.708  1.00  0.00    -0.373 A  
HETATM   25  C   UNL     1      -9.090  18.255  67.955  1.00  0.00    -0.288 A  
HETATM   26  C   UNL     1      -8.591  17.457  66.927  1.00  0.00    -0.270 A  
HETATM   27  C   UNL     1      -9.173  16.217  66.655  1.00  0.00    -0.271 A  
ENDBRANCH  21  22
ENDBRANCH  20  21
ENDBRANCH  18  20
ENDBRANCH  13  18
ENDBRANCH  11  12
ENDBRANCH  10  11
ENDBRANCH   7  10
ENDBRANCH   6   7
ENDBRANCH   4   6
ENDBRANCH   3   4
ENDBRANCH   2   3
TORSDOF 11
ENDMDL
MODEL      262
REMARK 921   NORMALIZED FREE ENERGY PREDICTED BY IDOCK:   -4.12 KCAL/MOL
REMARK 922        TOTAL FREE ENERGY PREDICTED BY IDOCK:   -7.78 KCAL/MOL
REMARK 923 INTER-LIGAND FREE ENERGY PREDICTED BY IDOCK:   -6.57 KCAL/MOL
REMARK 924 INTRA-LIGAND FREE ENERGY PREDICTED BY IDOCK:   -1.20 KCAL/MOL
REMARK 927      BINDING AFFINITY PREDICTED BY RF-SCORE:    0.00 PKD
ROOT
HETATM    1  C   UNL     1     -10.438   5.573  68.928  1.00  0.00    -0.282 C  
HETATM    2  C   UNL     1     -10.414   6.337  70.242  1.00  0.00    -0.276 C  
ENDROOT
BRANCH   2   3
HETATM    3  C   UNL     1      -8.983   6.671  70.662  1.00  0.00    -0.151 C  
BRANCH   3   4
HETATM    4  N   UNL     1      -8.538   7.879  69.971  1.00  0.00    -0.134 NA 
HETATM    5  H   UNL     1      -8.660   7.807  68.960  1.00  0.00     0.000 HD 
BRANCH   4   6
HETATM    6  C   UNL     1      -9.216   9.060  70.522  1.00  0.00    -0.220 C  
BRANCH   6   7
HETATM    7  C   UNL     1      -9.170  10.237  69.531  1.00  0.00    -0.170 C  
HETATM    8  O   UNL     1      -8.378   9.897  68.382  1.00  0.00    -0.105 OA 
HETATM    9  H   UNL     1      -8.350  10.624  67.771  1.00  0.00     0.000 HD 
BRANCH   7  10
HETATM   10  C   UNL     1     -10.582  10.627  69.078  1.00  0.00    -0.219 C  
BRANCH  10  11
HETATM   11  O   UNL     1     -10.718  12.061  69.106  1.00  0.00    -0.178 OA 
BRANCH  11  12
HETATM   12  C   UNL     1     -11.194  12.624  67.950  1.00  0.00    -0.266 A  
HETATM   13  C   UNL     1     -11.624  13.967  67.960  1.00  0.00    -0.368 A  
HETATM   14  C   UNL     1     -11.328  11.873  66.772  1.00  0.00    -0.393 A  
HETATM   15  C   UNL     1     -12.114  14.539  66.773  1.00  0.00    -0.313 A  
HETATM   16  C   UNL     1     -11.834  12.451  65.608  1.00  0.00    -0.468 A  
HETATM   17  C   UNL     1     -12.222  13.784  65.606  1.00  0.00    -0.484 A  
BRANCH  13  18
HETATM   18  C   UNL     1     -11.548  14.816  69.194  1.00  0.00    -0.303 C  
HETATM   19  O   UNL     1     -12.495  14.862  69.976  1.00  0.00    -0.320 OA 
BRANCH  18  20
HETATM   20  C   UNL     1     -10.254  15.556  69.508  1.00  0.00    -0.279 C  
BRANCH  20  21
HETATM   21  C   UNL     1     -10.154  16.888  68.771  1.00  0.00    -0.295 C  
BRANCH  21  22
HETATM   22  C   UNL     1      -8.832  17.056  68.060  1.00  0.00    -0.223 A  
HETATM   23  C   UNL     1      -8.768  17.027  66.659  1.00  0.00    -0.282 A  
HETATM   24  C   UNL     1      -7.549  17.207  66.003  1.00  0.00    -0.185 A  
HETATM   25  C   UNL     1      -6.383  17.412  66.737  1.00  0.00    -0.237 A  
HETATM   26  C   UNL     1      -6.435  17.429  68.130  1.00  0.00    -0.168 A  
HETATM   27  C   UNL     1      -7.652  17.248  68.790  1.00  0.00    -0.256 A  
ENDBRANCH  21  22
ENDBRANCH  20  21
ENDBRANCH  18  20
ENDBRANCH  13  18
ENDBRANCH  11  12
ENDBRANCH  10  11
ENDBRANCH   7  10
ENDBRANCH   6   7
ENDBRANCH   4   6
ENDBRANCH   3   4
ENDBRANCH   2   3
TORSDOF 11
ENDMDL
MODEL      263
REMARK 921   NORMALIZED FREE ENERGY PREDICTED BY IDOCK:   -4.10 KCAL/MOL
REMARK 922        TOTAL FREE ENERGY PREDICTED BY IDOCK:   -7.75 KCAL/MOL
REMARK 923 INTER-LIGAND FREE ENERGY PREDICTED BY IDOCK:   -6.42 KCAL/MOL
REMARK 924 INTRA-LIGAND FREE ENERGY PREDICTED BY IDOCK:   -1.33 KCAL/MOL
REMARK 927      BINDING AFFINITY PREDICTED BY RF-SCORE:    0.00 PKD
ROOT
HETATM    1  C   UNL     1      -9.050  10.715  65.256  1.00  0.00    -0.221 C  
HETATM    2  C   UNL     1      -8.381  10.384  66.581  1.00  0.00    -0.127 C  
ENDROOT
BRANCH   2   3
HETATM    3  C   UNL     1      -8.340  11.604  67.500  1.00  0.00    -0.151 C  
BRANCH   3   4
HETATM    4  N   UNL     1      -7.392  12.584  66.973  1.00  0.00    -0.364 NA 
HETATM    5  H   UNL     1      -7.350  12.565  65.954  1.00  0.00     0.000 HD 
BRANCH   4   6
HETATM    6  C   UNL     1      -7.712  13.925  67.483  1.00  0.00    -0.179 C  
BRANCH   6   7
HETATM    7  C   UNL     1      -6.438  14.665  67.928  1.00  0.00    -0.164 C  
HETATM    8  O   UNL     1      -5.276  13.855  67.691  1.00  0.00    -0.293 OA 
HETATM    9  H   UNL     1      -4.490  14.312  67.967  1.00  0.00     0.000 HD 
BRANCH   7  10
HETATM   10  C   UNL     1      -6.289  15.996  67.182  1.00  0.00    -0.079 C  
BRANCH  10  11
HETATM   11  O   UNL     1      -7.207  16.962  67.731  1.00  0.00    -0.140 OA 
BRANCH  11  12
HETATM   12  C   UNL     1      -7.317  18.130  67.022  1.00  0.00    -0.206 A  
HETATM   13  C   UNL     1      -8.573  18.764  66.923  1.00  0.00    -0.290 A  
HETATM   14  C   UNL     1      -6.221  18.675  66.336  1.00  0.00    -0.205 A  
HETATM   15  C   UNL     1      -8.682  19.960  66.193  1.00  0.00    -0.350 A  
HETATM   16  C   UNL     1      -6.351  19.853  65.600  1.00  0.00    -0.252 A  
HETATM   17  C   UNL     1      -7.578  20.498  65.532  1.00  0.00     0.114 A  
BRANCH  13  18
HETATM   18  C   UNL     1      -9.795  18.215  67.597  1.00  0.00    -0.312 C  
HETATM   19  O   UNL     1     -10.394  18.882  68.436  1.00  0.00    -0.365 OA 
BRANCH  18  20
HETATM   20  C   UNL     1     -10.331  16.855  67.169  1.00  0.00    -0.304 C  
BRANCH  20  21
HETATM   21  C   UNL     1     -11.352  16.297  68.155  1.00  0.00    -0.248 C  
BRANCH  21  22
HETATM   22  C   UNL     1     -11.503  14.799  68.045  1.00  0.00    -0.351 A  
HETATM   23  C   UNL     1     -11.487  13.995  69.195  1.00  0.00    -0.340 A  
HETATM   24  C   UNL     1     -11.650  12.612  69.094  1.00  0.00    -0.374 A  
HETATM   25  C   UNL     1     -11.825  12.019  67.845  1.00  0.00    -0.320 A  
HETATM   26  C   UNL     1     -11.828  12.807  66.696  1.00  0.00    -0.462 A  
HETATM   27  C   UNL     1     -11.664  14.191  66.794  1.00  0.00    -0.432 A  
ENDBRANCH  21  22
ENDBRANCH  20  21
ENDBRANCH  18  20
ENDBRANCH  13  18
ENDBRANCH  11  12
ENDBRANCH  10  11
ENDBRANCH   7  10
ENDBRANCH   6   7
ENDBRANCH   4   6
ENDBRANCH   3   4
ENDBRANCH   2   3
TORSDOF 11
ENDMDL
MODEL      264
REMARK 921   NORMALIZED FREE ENERGY PREDICTED BY IDOCK:   -4.09 KCAL/MOL
REMARK 922        TOTAL FREE ENERGY PREDICTED BY IDOCK:   -7.74 KCAL/MOL
REMARK 923 INTER-LIGAND FREE ENERGY PREDICTED BY IDOCK:   -6.49 KCAL/MOL
REMARK 924 INTRA-LIGAND FREE ENERGY PREDICTED BY IDOCK:   -1.25 KCAL/MOL
REMARK 927      BINDING AFFINITY PREDICTED BY RF-SCORE:    0.00 PKD
ROOT
HETATM    1  C   UNL     1     -10.236  16.543  65.937  1.00  0.00    -0.368 C  
HETATM    2  C   UNL     1     -10.387  15.181  66.597  1.00  0.00    -0.274 C  
ENDROOT
BRANCH   2   3
HETATM    3  C   UNL     1     -11.656  14.474  66.123  1.00  0.00    -0.365 C  
BRANCH   3   4
HETATM    4  N   UNL     1     -12.017  13.423  67.072  1.00  0.00    -0.389 NA 
HETATM    5  H   UNL     1     -12.997  13.480  67.349  1.00  0.00     0.000 HD 
BRANCH   4   6
HETATM    6  C   UNL     1     -11.678  12.103  66.522  1.00  0.00    -0.321 C  
BRANCH   6   7
HETATM    7  C   UNL     1     -11.255  11.131  67.638  1.00  0.00    -0.297 C  
HETATM    8  O   UNL     1     -12.351  10.884  68.532  1.00  0.00    -0.807 OA 
HETATM    9  H   UNL     1     -12.090  10.284  69.221  1.00  0.00     0.000 HD 
BRANCH   7  10
HETATM   10  C   UNL     1     -10.769   9.801  67.051  1.00  0.00    -0.166 C  
BRANCH  10  11
HETATM   11  O   UNL     1      -9.995   9.093  68.038  1.00  0.00    -0.162 OA 
BRANCH  11  12
HETATM   12  C   UNL     1      -9.663   7.805  67.704  1.00  0.00    -0.155 A  
HETATM   13  C   UNL     1      -8.369   7.325  67.995  1.00  0.00    -0.123 A  
HETATM   14  C   UNL     1     -10.560   6.973  67.017  1.00  0.00    -0.412 A  
HETATM   15  C   UNL     1      -8.032   6.005  67.649  1.00  0.00    -0.102 A  
HETATM   16  C   UNL     1     -10.204   5.672  66.664  1.00  0.00    -0.276 A  
HETATM   17  C   UNL     1      -8.943   5.186  66.983  1.00  0.00    -0.112 A  
BRANCH  13  18
HETATM   18  C   UNL     1      -7.346   8.173  68.690  1.00  0.00    -0.089 C  
HETATM   19  O   UNL     1      -6.724   9.032  68.068  1.00  0.00    -0.066 OA 
BRANCH  18  20
HETATM   20  C   UNL     1      -7.146   8.014  70.192  1.00  0.00    -0.049 C  
BRANCH  20  21
HETATM   21  C   UNL     1      -7.965   9.019  70.995  1.00  0.00    -0.186 C  
BRANCH  21  22
HETATM   22  C   UNL     1      -9.113   8.370  71.732  1.00  0.00    -0.283 A  
HETATM   23  C   UNL     1     -10.415   8.878  71.611  1.00  0.00    -0.408 A  
HETATM   24  C   UNL     1     -11.479   8.263  72.273  1.00  0.00    -0.452 A  
HETATM   25  C   UNL     1     -11.253   7.139  73.065  1.00  0.00    -0.279 A  
HETATM   26  C   UNL     1      -9.961   6.635  73.201  1.00  0.00    -0.201 A  
HETATM   27  C   UNL     1      -8.894   7.249  72.542  1.00  0.00    -0.146 A  
ENDBRANCH  21  22
ENDBRANCH  20  21
ENDBRANCH  18  20
ENDBRANCH  13  18
ENDBRANCH  11  12
ENDBRANCH  10  11
ENDBRANCH   7  10
ENDBRANCH   6   7
ENDBRANCH   4   6
ENDBRANCH   3   4
ENDBRANCH   2   3
TORSDOF 11
ENDMDL
MODEL      265
REMARK 921   NORMALIZED FREE ENERGY PREDICTED BY IDOCK:   -4.08 KCAL/MOL
REMARK 922        TOTAL FREE ENERGY PREDICTED BY IDOCK:   -7.71 KCAL/MOL
REMARK 923 INTER-LIGAND FREE ENERGY PREDICTED BY IDOCK:   -7.20 KCAL/MOL
REMARK 924 INTRA-LIGAND FREE ENERGY PREDICTED BY IDOCK:   -0.52 KCAL/MOL
REMARK 927      BINDING AFFINITY PREDICTED BY RF-SCORE:    0.00 PKD
ROOT
HETATM    1  C   UNL     1      -6.444  20.031  69.383  1.00  0.00    -0.365 C  
HETATM    2  C   UNL     1      -7.625  19.155  68.994  1.00  0.00    -0.337 C  
ENDROOT
BRANCH   2   3
HETATM    3  C   UNL     1      -7.682  18.944  67.482  1.00  0.00    -0.233 C  
BRANCH   3   4
HETATM    4  N   UNL     1      -8.987  18.399  67.111  1.00  0.00    -0.263 NA 
HETATM    5  H   UNL     1      -8.916  17.439  66.772  1.00  0.00     0.000 HD 
BRANCH   4   6
HETATM    6  C   UNL     1      -9.925  18.514  68.237  1.00  0.00    -0.376 C  
BRANCH   6   7
HETATM    7  C   UNL     1     -10.374  17.125  68.727  1.00  0.00    -0.353 C  
HETATM    8  O   UNL     1     -11.137  17.241  69.937  1.00  0.00    -0.234 OA 
HETATM    9  H   UNL     1     -11.414  16.384  70.239  1.00  0.00     0.000 HD 
BRANCH   7  10
HETATM   10  C   UNL     1     -11.216  16.415  67.661  1.00  0.00    -0.072 C  
BRANCH  10  11
HETATM   11  O   UNL     1     -10.576  15.180  67.286  1.00  0.00    -0.274 OA 
BRANCH  11  12
HETATM   12  C   UNL     1     -11.225  14.457  66.317  1.00  0.00    -0.338 A  
HETATM   13  C   UNL     1     -11.790  13.208  66.647  1.00  0.00    -0.449 A  
HETATM   14  C   UNL     1     -11.281  14.902  64.988  1.00  0.00    -0.408 A  
HETATM   15  C   UNL     1     -12.452  12.471  65.651  1.00  0.00    -0.141 A  
HETATM   16  C   UNL     1     -11.925  14.149  64.007  1.00  0.00    -0.359 A  
HETATM   17  C   UNL     1     -12.515  12.937  64.338  1.00  0.00    -0.447 A  
BRANCH  13  18
HETATM   18  C   UNL     1     -11.732  12.653  68.039  1.00  0.00    -0.350 C  
HETATM   19  O   UNL     1     -11.798  13.402  69.010  1.00  0.00    -0.301 OA 
BRANCH  18  20
HETATM   20  C   UNL     1     -11.671  11.143  68.234  1.00  0.00    -0.323 C  
BRANCH  20  21
HETATM   21  C   UNL     1     -10.289  10.574  67.929  1.00  0.00    -0.226 C  
BRANCH  21  22
HETATM   22  C   UNL     1      -9.625   9.986  69.152  1.00  0.00    -0.217 A  
HETATM   23  C   UNL     1      -8.227   9.964  69.262  1.00  0.00    -0.138 A  
HETATM   24  C   UNL     1      -7.615   9.442  70.403  1.00  0.00    -0.152 A  
HETATM   25  C   UNL     1      -8.392   8.933  71.441  1.00  0.00    -0.195 A  
HETATM   26  C   UNL     1      -9.781   8.938  71.335  1.00  0.00    -0.370 A  
HETATM   27  C   UNL     1     -10.396   9.458  70.195  1.00  0.00    -0.273 A  
ENDBRANCH  21  22
ENDBRANCH  20  21
ENDBRANCH  18  20
ENDBRANCH  13  18
ENDBRANCH  11  12
ENDBRANCH  10  11
ENDBRANCH   7  10
ENDBRANCH   6   7
ENDBRANCH   4   6
ENDBRANCH   3   4
ENDBRANCH   2   3
TORSDOF 11
ENDMDL
MODEL      266
REMARK 921   NORMALIZED FREE ENERGY PREDICTED BY IDOCK:   -4.07 KCAL/MOL
REMARK 922        TOTAL FREE ENERGY PREDICTED BY IDOCK:   -7.71 KCAL/MOL
REMARK 923 INTER-LIGAND FREE ENERGY PREDICTED BY IDOCK:   -5.83 KCAL/MOL
REMARK 924 INTRA-LIGAND FREE ENERGY PREDICTED BY IDOCK:   -1.88 KCAL/MOL
REMARK 927      BINDING AFFINITY PREDICTED BY RF-SCORE:    0.00 PKD
ROOT
HETATM    1  C   UNL     1     -11.019  15.343  70.731  1.00  0.00    -0.349 C  
HETATM    2  C   UNL     1     -11.980  15.661  69.595  1.00  0.00    -0.367 C  
ENDROOT
BRANCH   2   3
HETATM    3  C   UNL     1     -11.744  17.069  69.050  1.00  0.00     0.958 C  
BRANCH   3   4
HETATM    4  N   UNL     1     -11.118  16.987  67.732  1.00  0.00    -0.193 NA 
HETATM    5  H   UNL     1     -11.344  17.795  67.152  1.00  0.00     0.000 HD 
BRANCH   4   6
HETATM    6  C   UNL     1      -9.667  16.798  67.869  1.00  0.00    -0.245 C  
BRANCH   6   7
HETATM    7  C   UNL     1      -9.064  16.202  66.584  1.00  0.00    -0.252 C  
HETATM    8  O   UNL     1      -7.634  16.338  66.590  1.00  0.00    -0.238 OA 
HETATM    9  H   UNL     1      -7.262  15.971  65.797  1.00  0.00     0.000 HD 
BRANCH   7  10
HETATM   10  C   UNL     1      -9.433  14.721  66.442  1.00  0.00    -0.301 C  
BRANCH  10  11
HETATM   11  O   UNL     1      -9.700  14.164  67.744  1.00  0.00    -0.215 OA 
BRANCH  11  12
HETATM   12  C   UNL     1      -8.896  13.113  68.104  1.00  0.00    -0.194 A  
HETATM   13  C   UNL     1      -9.373  11.794  67.957  1.00  0.00    -0.184 A  
HETATM   14  C   UNL     1      -7.633  13.321  68.679  1.00  0.00    -0.094 A  
HETATM   15  C   UNL     1      -8.547  10.720  68.329  1.00  0.00    -0.135 A  
HETATM   16  C   UNL     1      -6.834  12.245  69.061  1.00  0.00    -0.094 A  
HETATM   17  C   UNL     1      -7.287  10.945  68.882  1.00  0.00    -0.111 A  
BRANCH  13  18
HETATM   18  C   UNL     1     -10.729  11.499  67.387  1.00  0.00    -0.232 C  
HETATM   19  O   UNL     1     -10.847  11.140  66.218  1.00  0.00    -0.263 OA 
BRANCH  18  20
HETATM   20  C   UNL     1     -11.949  11.571  68.297  1.00  0.00    -0.239 C  
BRANCH  20  21
HETATM   21  C   UNL     1     -11.571  11.815  69.755  1.00  0.00    -0.372 C  
BRANCH  21  22
HETATM   22  C   UNL     1     -11.788  10.596  70.619  1.00  0.00    -0.463 A  
HETATM   23  C   UNL     1     -10.745   9.685  70.843  1.00  0.00    -0.402 A  
HETATM   24  C   UNL     1     -10.940   8.571  71.662  1.00  0.00    -0.362 A  
HETATM   25  C   UNL     1     -12.179   8.353  72.260  1.00  0.00    -0.449 A  
HETATM   26  C   UNL     1     -13.226   9.245  72.034  1.00  0.00    -0.519 A  
HETATM   27  C   UNL     1     -13.034  10.359  71.214  1.00  0.00    -0.517 A  
ENDBRANCH  21  22
ENDBRANCH  20  21
ENDBRANCH  18  20
ENDBRANCH  13  18
ENDBRANCH  11  12
ENDBRANCH  10  11
ENDBRANCH   7  10
ENDBRANCH   6   7
ENDBRANCH   4   6
ENDBRANCH   3   4
ENDBRANCH   2   3
TORSDOF 11
ENDMDL
MODEL      267
REMARK 921   NORMALIZED FREE ENERGY PREDICTED BY IDOCK:   -4.07 KCAL/MOL
REMARK 922        TOTAL FREE ENERGY PREDICTED BY IDOCK:   -7.71 KCAL/MOL
REMARK 923 INTER-LIGAND FREE ENERGY PREDICTED BY IDOCK:   -5.75 KCAL/MOL
REMARK 924 INTRA-LIGAND FREE ENERGY PREDICTED BY IDOCK:   -1.96 KCAL/MOL
REMARK 927      BINDING AFFINITY PREDICTED BY RF-SCORE:    0.00 PKD
ROOT
HETATM    1  C   UNL     1     -12.416  13.706  65.174  1.00  0.00    -0.488 C  
HETATM    2  C   UNL     1     -10.932  13.467  65.409  1.00  0.00    -0.300 C  
ENDROOT
BRANCH   2   3
HETATM    3  C   UNL     1     -10.218  14.763  65.791  1.00  0.00    -0.338 C  
BRANCH   3   4
HETATM    4  N   UNL     1      -8.990  14.450  66.519  1.00  0.00    -0.447 NA 
HETATM    5  H   UNL     1      -8.217  14.236  65.889  1.00  0.00     0.000 HD 
BRANCH   4   6
HETATM    6  C   UNL     1      -8.655  15.541  67.445  1.00  0.00    -0.178 C  
BRANCH   6   7
HETATM    7  C   UNL     1      -7.884  15.012  68.668  1.00  0.00    -0.138 C  
HETATM    8  O   UNL     1      -8.779  14.783  69.767  1.00  0.00    -0.411 OA 
HETATM    9  H   UNL     1      -8.303  14.457  70.521  1.00  0.00     0.000 HD 
BRANCH   7  10
HETATM   10  C   UNL     1      -7.151  13.708  68.330  1.00  0.00    -0.107 C  
BRANCH  10  11
HETATM   11  O   UNL     1      -8.040  12.591  68.527  1.00  0.00    -0.147 OA 
BRANCH  11  12
HETATM   12  C   UNL     1      -7.422  11.382  68.720  1.00  0.00    -0.124 A  
HETATM   13  C   UNL     1      -7.683  10.321  67.828  1.00  0.00    -0.090 A  
HETATM   14  C   UNL     1      -6.586  11.155  69.824  1.00  0.00    -0.138 A  
HETATM   15  C   UNL     1      -7.049   9.083  68.031  1.00  0.00    -0.079 A  
HETATM   16  C   UNL     1      -5.980   9.915  70.022  1.00  0.00    -0.049 A  
HETATM   17  C   UNL     1      -6.207   8.881  69.124  1.00  0.00    -0.043 A  
BRANCH  13  18
HETATM   18  C   UNL     1      -8.597  10.480  66.650  1.00  0.00    -0.131 C  
HETATM   19  O   UNL     1      -8.143  10.773  65.547  1.00  0.00    -0.153 OA 
BRANCH  18  20
HETATM   20  C   UNL     1     -10.084  10.195  66.820  1.00  0.00    -0.277 C  
BRANCH  20  21
HETATM   21  C   UNL     1     -10.405   8.709  66.707  1.00  0.00    -0.336 C  
BRANCH  21  22
HETATM   22  C   UNL     1     -10.657   8.069  68.052  1.00  0.00    -0.190 A  
HETATM   23  C   UNL     1     -10.738   8.855  69.211  1.00  0.00    -0.177 A  
HETATM   24  C   UNL     1     -10.994   8.265  70.450  1.00  0.00    -0.244 A  
HETATM   25  C   UNL     1     -11.166   6.886  70.545  1.00  0.00    -0.353 A  
HETATM   26  C   UNL     1     -11.074   6.095  69.401  1.00  0.00    -0.479 A  
HETATM   27  C   UNL     1     -10.817   6.682  68.161  1.00  0.00    -0.334 A  
ENDBRANCH  21  22
ENDBRANCH  20  21
ENDBRANCH  18  20
ENDBRANCH  13  18
ENDBRANCH  11  12
ENDBRANCH  10  11
ENDBRANCH   7  10
ENDBRANCH   6   7
ENDBRANCH   4   6
ENDBRANCH   3   4
ENDBRANCH   2   3
TORSDOF 11
ENDMDL
MODEL      268
REMARK 921   NORMALIZED FREE ENERGY PREDICTED BY IDOCK:   -4.04 KCAL/MOL
REMARK 922        TOTAL FREE ENERGY PREDICTED BY IDOCK:   -7.65 KCAL/MOL
REMARK 923 INTER-LIGAND FREE ENERGY PREDICTED BY IDOCK:   -7.16 KCAL/MOL
REMARK 924 INTRA-LIGAND FREE ENERGY PREDICTED BY IDOCK:   -0.49 KCAL/MOL
REMARK 927      BINDING AFFINITY PREDICTED BY RF-SCORE:    0.00 PKD
ROOT
HETATM    1  C   UNL     1     -11.085   9.803  71.223  1.00  0.00    -0.375 C  
HETATM    2  C   UNL     1     -12.589   9.789  70.995  1.00  0.00    -0.406 C  
ENDROOT
BRANCH   2   3
HETATM    3  C   UNL     1     -13.145  11.207  70.881  1.00  0.00    -0.061 C  
BRANCH   3   4
HETATM    4  N   UNL     1     -12.103  12.105  70.388  1.00  0.00    -0.419 NA 
HETATM    5  H   UNL     1     -12.113  12.179  69.370  1.00  0.00     0.000 HD 
BRANCH   4   6
HETATM    6  C   UNL     1     -12.217  13.420  71.034  1.00  0.00    -0.224 C  
BRANCH   6   7
HETATM    7  C   UNL     1     -12.300  14.545  69.987  1.00  0.00    -0.323 C  
HETATM    8  O   UNL     1     -12.551  15.808  70.624  1.00  0.00    -0.426 OA 
HETATM    9  H   UNL     1     -12.602  16.502  69.977  1.00  0.00     0.000 HD 
BRANCH   7  10
HETATM   10  C   UNL     1     -11.003  14.634  69.175  1.00  0.00    -0.262 C  
BRANCH  10  11
HETATM   11  O   UNL     1     -11.246  14.184  67.828  1.00  0.00    -0.268 OA 
BRANCH  11  12
HETATM   12  C   UNL     1     -11.112  15.146  66.859  1.00  0.00    -0.314 A  
HETATM   13  C   UNL     1     -11.448  14.836  65.525  1.00  0.00    -0.329 A  
HETATM   14  C   UNL     1     -10.583  16.412  67.154  1.00  0.00    -0.276 A  
HETATM   15  C   UNL     1     -11.307  15.824  64.535  1.00  0.00    -0.324 A  
HETATM   16  C   UNL     1     -10.431  17.374  66.156  1.00  0.00    -0.284 A  
HETATM   17  C   UNL     1     -10.797  17.083  64.849  1.00  0.00     0.085 A  
BRANCH  13  18
HETATM   18  C   UNL     1     -11.980  13.490  65.132  1.00  0.00    -0.368 C  
HETATM   19  O   UNL     1     -12.905  12.981  65.759  1.00  0.00    -0.411 OA 
BRANCH  18  20
HETATM   20  C   UNL     1     -11.414  12.800  63.897  1.00  0.00    -0.505 C  
BRANCH  20  21
HETATM   21  C   UNL     1     -10.092  12.094  64.182  1.00  0.00    -0.335 C  
BRANCH  21  22
HETATM   22  C   UNL     1      -9.961  11.674  65.627  1.00  0.00    -0.274 A  
HETATM   23  C   UNL     1     -10.621  10.530  66.099  1.00  0.00    -0.182 A  
HETATM   24  C   UNL     1     -10.480  10.130  67.429  1.00  0.00    -0.310 A  
HETATM   25  C   UNL     1      -9.684  10.870  68.300  1.00  0.00    -0.171 A  
HETATM   26  C   UNL     1      -9.036  12.016  67.844  1.00  0.00    -0.182 A  
HETATM   27  C   UNL     1      -9.176  12.420  66.515  1.00  0.00    -0.215 A  
ENDBRANCH  21  22
ENDBRANCH  20  21
ENDBRANCH  18  20
ENDBRANCH  13  18
ENDBRANCH  11  12
ENDBRANCH  10  11
ENDBRANCH   7  10
ENDBRANCH   6   7
ENDBRANCH   4   6
ENDBRANCH   3   4
ENDBRANCH   2   3
TORSDOF 11
ENDMDL
MODEL      269
REMARK 921   NORMALIZED FREE ENERGY PREDICTED BY IDOCK:   -4.03 KCAL/MOL
REMARK 922        TOTAL FREE ENERGY PREDICTED BY IDOCK:   -7.63 KCAL/MOL
REMARK 923 INTER-LIGAND FREE ENERGY PREDICTED BY IDOCK:   -6.46 KCAL/MOL
REMARK 924 INTRA-LIGAND FREE ENERGY PREDICTED BY IDOCK:   -1.17 KCAL/MOL
REMARK 927      BINDING AFFINITY PREDICTED BY RF-SCORE:    0.00 PKD
ROOT
HETATM    1  C   UNL     1      -9.464  20.517  66.885  1.00  0.00    -0.475 C  
HETATM    2  C   UNL     1     -10.046  19.417  67.759  1.00  0.00    -0.508 C  
ENDROOT
BRANCH   2   3
HETATM    3  C   UNL     1     -10.541  18.243  66.915  1.00  0.00    -0.329 C  
BRANCH   3   4
HETATM    4  N   UNL     1     -10.810  17.096  67.780  1.00  0.00    -0.320 NA 
HETATM    5  H   UNL     1     -10.827  16.220  67.256  1.00  0.00     0.000 HD 
BRANCH   4   6
HETATM    6  C   UNL     1      -9.843  17.054  68.885  1.00  0.00    -0.272 C  
BRANCH   6   7
HETATM    7  C   UNL     1      -9.182  15.668  68.990  1.00  0.00    -0.243 C  
HETATM    8  O   UNL     1      -9.739  14.926  70.086  1.00  0.00    -0.449 OA 
HETATM    9  H   UNL     1      -9.331  14.071  70.150  1.00  0.00     0.000 HD 
BRANCH   7  10
HETATM   10  C   UNL     1      -9.369  14.873  67.692  1.00  0.00    -0.191 C  
BRANCH  10  11
HETATM   11  O   UNL     1     -10.270  13.773  67.926  1.00  0.00    -0.235 OA 
BRANCH  11  12
HETATM   12  C   UNL     1     -11.001  13.376  66.836  1.00  0.00    -0.284 A  
HETATM   13  C   UNL     1     -10.530  12.317  66.034  1.00  0.00    -0.284 A  
HETATM   14  C   UNL     1     -12.176  14.045  66.462  1.00  0.00    -0.485 A  
HETATM   15  C   UNL     1     -11.281  11.915  64.916  1.00  0.00    -0.350 A  
HETATM   16  C   UNL     1     -12.901  13.647  65.339  1.00  0.00    -0.440 A  
HETATM   17  C   UNL     1     -12.457  12.580  64.569  1.00  0.00    -0.539 A  
BRANCH  13  18
HETATM   18  C   UNL     1      -9.260  11.584  66.352  1.00  0.00    -0.208 C  
HETATM   19  O   UNL     1      -8.234  11.816  65.718  1.00  0.00     0.213 OA 
BRANCH  18  20
HETATM   20  C   UNL     1      -9.238  10.611  67.524  1.00  0.00    -0.151 C  
BRANCH  20  21
HETATM   21  C   UNL     1      -8.257  11.035  68.611  1.00  0.00    -0.151 C  
BRANCH  21  22
HETATM   22  C   UNL     1      -8.414  10.227  69.877  1.00  0.00    -0.013 A  
HETATM   23  C   UNL     1      -9.689   9.949  70.392  1.00  0.00    -0.151 A  
HETATM   24  C   UNL     1      -9.834   9.182  71.549  1.00  0.00    -0.335 A  
HETATM   25  C   UNL     1      -8.709   8.689  72.206  1.00  0.00    -0.193 A  
HETATM   26  C   UNL     1      -7.437   8.970  71.710  1.00  0.00     0.064 A  
HETATM   27  C   UNL     1      -7.289   9.739  70.553  1.00  0.00    -0.126 A  
ENDBRANCH  21  22
ENDBRANCH  20  21
ENDBRANCH  18  20
ENDBRANCH  13  18
ENDBRANCH  11  12
ENDBRANCH  10  11
ENDBRANCH   7  10
ENDBRANCH   6   7
ENDBRANCH   4   6
ENDBRANCH   3   4
ENDBRANCH   2   3
TORSDOF 11
ENDMDL
MODEL      270
REMARK 921   NORMALIZED FREE ENERGY PREDICTED BY IDOCK:   -4.02 KCAL/MOL
REMARK 922        TOTAL FREE ENERGY PREDICTED BY IDOCK:   -7.62 KCAL/MOL
REMARK 923 INTER-LIGAND FREE ENERGY PREDICTED BY IDOCK:   -6.30 KCAL/MOL
REMARK 924 INTRA-LIGAND FREE ENERGY PREDICTED BY IDOCK:   -1.32 KCAL/MOL
REMARK 927      BINDING AFFINITY PREDICTED BY RF-SCORE:    0.00 PKD
ROOT
HETATM    1  C   UNL     1     -12.360  13.672  71.089  1.00  0.00    -0.403 C  
HETATM    2  C   UNL     1     -12.153  13.081  69.702  1.00  0.00    -0.304 C  
ENDROOT
BRANCH   2   3
HETATM    3  C   UNL     1     -12.102  14.176  68.637  1.00  0.00    -0.285 C  
BRANCH   3   4
HETATM    4  N   UNL     1     -12.316  13.587  67.317  1.00  0.00    -0.304 NA 
HETATM    5  H   UNL     1     -13.200  13.080  67.264  1.00  0.00     0.000 HD 
BRANCH   4   6
HETATM    6  C   UNL     1     -12.213  14.620  66.277  1.00  0.00    -0.145 C  
BRANCH   6   7
HETATM    7  C   UNL     1     -11.717  14.020  64.949  1.00  0.00    -0.380 C  
HETATM    8  O   UNL     1     -11.982  14.919  63.860  1.00  0.00    -0.847 OA 
HETATM    9  H   UNL     1     -11.676  14.548  63.041  1.00  0.00     0.000 HD 
BRANCH   7  10
HETATM   10  C   UNL     1     -10.214  13.724  65.009  1.00  0.00    -0.346 C  
BRANCH  10  11
HETATM   11  O   UNL     1      -9.789  13.670  66.385  1.00  0.00    -0.282 OA 
BRANCH  11  12
HETATM   12  C   UNL     1      -8.722  14.473  66.696  1.00  0.00    -0.129 A  
HETATM   13  C   UNL     1      -7.542  13.891  67.203  1.00  0.00     0.045 A  
HETATM   14  C   UNL     1      -8.801  15.870  66.586  1.00  0.00    -0.316 A  
HETATM   15  C   UNL     1      -6.451  14.718  67.524  1.00  0.00    -0.090 A  
HETATM   16  C   UNL     1      -7.716  16.678  66.926  1.00  0.00    -0.263 A  
HETATM   17  C   UNL     1      -6.540  16.103  67.390  1.00  0.00    -0.219 A  
BRANCH  13  18
HETATM   18  C   UNL     1      -7.403  12.409  67.386  1.00  0.00    -0.149 C  
HETATM   19  O   UNL     1      -7.120  11.689  66.431  1.00  0.00    -0.020 OA 
BRANCH  18  20
HETATM   20  C   UNL     1      -7.536  11.817  68.783  1.00  0.00    -0.109 C  
BRANCH  20  21
HETATM   21  C   UNL     1      -7.632  10.295  68.761  1.00  0.00    -0.093 C  
BRANCH  21  22
HETATM   22  C   UNL     1      -8.708   9.772  69.683  1.00  0.00    -0.211 A  
HETATM   23  C   UNL     1     -10.063   9.945  69.366  1.00  0.00    -0.227 A  
HETATM   24  C   UNL     1     -11.057   9.440  70.207  1.00  0.00    -0.299 A  
HETATM   25  C   UNL     1     -10.707   8.761  71.372  1.00  0.00    -0.356 A  
HETATM   26  C   UNL     1      -9.364   8.595  71.702  1.00  0.00    -0.333 A  
HETATM   27  C   UNL     1      -8.368   9.101  70.864  1.00  0.00    -0.231 A  
ENDBRANCH  21  22
ENDBRANCH  20  21
ENDBRANCH  18  20
ENDBRANCH  13  18
ENDBRANCH  11  12
ENDBRANCH  10  11
ENDBRANCH   7  10
ENDBRANCH   6   7
ENDBRANCH   4   6
ENDBRANCH   3   4
ENDBRANCH   2   3
TORSDOF 11
ENDMDL
MODEL      271
REMARK 921   NORMALIZED FREE ENERGY PREDICTED BY IDOCK:   -4.02 KCAL/MOL
REMARK 922        TOTAL FREE ENERGY PREDICTED BY IDOCK:   -7.62 KCAL/MOL
REMARK 923 INTER-LIGAND FREE ENERGY PREDICTED BY IDOCK:   -6.06 KCAL/MOL
REMARK 924 INTRA-LIGAND FREE ENERGY PREDICTED BY IDOCK:   -1.55 KCAL/MOL
REMARK 927      BINDING AFFINITY PREDICTED BY RF-SCORE:    0.00 PKD
ROOT
HETATM    1  C   UNL     1     -11.064  12.466  65.863  1.00  0.00    -0.349 C  
HETATM    2  C   UNL     1     -11.768  12.344  64.520  1.00  0.00    -0.427 C  
ENDROOT
BRANCH   2   3
HETATM    3  C   UNL     1     -10.785  11.973  63.412  1.00  0.00    -0.417 C  
BRANCH   3   4
HETATM    4  N   UNL     1     -10.262  10.629  63.648  1.00  0.00    -0.483 NA 
HETATM    5  H   UNL     1     -11.008   9.953  63.811  1.00  0.00     0.000 HD 
BRANCH   4   6
HETATM    6  C   UNL     1      -9.386  10.222  62.541  1.00  0.00    -0.296 C  
BRANCH   6   7
HETATM    7  C   UNL     1      -7.999   9.801  63.059  1.00  0.00    -0.138 C  
HETATM    8  O   UNL     1      -7.441  10.828  63.895  1.00  0.00    -0.347 OA 
HETATM    9  H   UNL     1      -6.585  10.568  64.215  1.00  0.00     0.000 HD 
BRANCH   7  10
HETATM   10  C   UNL     1      -8.085   8.492  63.852  1.00  0.00    -0.155 C  
BRANCH  10  11
HETATM   11  O   UNL     1      -8.507   8.772  65.201  1.00  0.00    -0.157 OA 
BRANCH  11  12
HETATM   12  C   UNL     1      -7.721   8.226  66.183  1.00  0.00    -0.097 A  
HETATM   13  C   UNL     1      -8.209   7.140  66.938  1.00  0.00    -0.117 A  
HETATM   14  C   UNL     1      -6.466   8.768  66.500  1.00  0.00    -0.063 A  
HETATM   15  C   UNL     1      -7.401   6.585  67.945  1.00  0.00    -0.093 A  
HETATM   16  C   UNL     1      -5.684   8.218  67.515  1.00  0.00    -0.039 A  
HETATM   17  C   UNL     1      -6.148   7.124  68.234  1.00  0.00    -0.034 A  
BRANCH  13  18
HETATM   18  C   UNL     1      -9.558   6.537  66.680  1.00  0.00    -0.160 C  
HETATM   19  O   UNL     1      -9.672   5.564  65.939  1.00  0.00    -0.129 OA 
BRANCH  18  20
HETATM   20  C   UNL     1     -10.772   7.093  67.413  1.00  0.00    -0.368 C  
BRANCH  20  21
HETATM   21  C   UNL     1     -10.395   8.170  68.425  1.00  0.00    -0.236 C  
BRANCH  21  22
HETATM   22  C   UNL     1     -10.762   7.787  69.839  1.00  0.00    -0.245 A  
HETATM   23  C   UNL     1     -10.736   6.444  70.243  1.00  0.00    -0.322 A  
HETATM   24  C   UNL     1     -11.052   6.093  71.557  1.00  0.00    -0.342 A  
HETATM   25  C   UNL     1     -11.402   7.078  72.477  1.00  0.00    -0.301 A  
HETATM   26  C   UNL     1     -11.444   8.414  72.082  1.00  0.00    -0.442 A  
HETATM   27  C   UNL     1     -11.130   8.767  70.768  1.00  0.00    -0.306 A  
ENDBRANCH  21  22
ENDBRANCH  20  21
ENDBRANCH  18  20
ENDBRANCH  13  18
ENDBRANCH  11  12
ENDBRANCH  10  11
ENDBRANCH   7  10
ENDBRANCH   6   7
ENDBRANCH   4   6
ENDBRANCH   3   4
ENDBRANCH   2   3
TORSDOF 11
ENDMDL
MODEL      272
REMARK 921   NORMALIZED FREE ENERGY PREDICTED BY IDOCK:   -4.01 KCAL/MOL
REMARK 922        TOTAL FREE ENERGY PREDICTED BY IDOCK:   -7.61 KCAL/MOL
REMARK 923 INTER-LIGAND FREE ENERGY PREDICTED BY IDOCK:   -6.63 KCAL/MOL
REMARK 924 INTRA-LIGAND FREE ENERGY PREDICTED BY IDOCK:   -0.97 KCAL/MOL
REMARK 927      BINDING AFFINITY PREDICTED BY RF-SCORE:    0.00 PKD
ROOT
HETATM    1  C   UNL     1      -5.188  12.976  69.066  1.00  0.00    -0.068 C  
HETATM    2  C   UNL     1      -5.753  12.364  67.794  1.00  0.00    -0.105 C  
ENDROOT
BRANCH   2   3
HETATM    3  C   UNL     1      -6.048  10.877  67.979  1.00  0.00    -0.049 C  
BRANCH   3   4
HETATM    4  N   UNL     1      -6.964  10.694  69.104  1.00  0.00    -0.075 NA 
HETATM    5  H   UNL     1      -6.595  11.097  69.966  1.00  0.00     0.000 HD 
BRANCH   4   6
HETATM    6  C   UNL     1      -8.291  11.232  68.772  1.00  0.00    -0.120 C  
BRANCH   6   7
HETATM    7  C   UNL     1      -9.389  10.179  69.007  1.00  0.00    -0.188 C  
HETATM    8  O   UNL     1      -9.674  10.054  70.409  1.00  0.00    -0.381 OA 
HETATM    9  H   UNL     1     -10.352   9.405  70.553  1.00  0.00     0.000 HD 
BRANCH   7  10
HETATM   10  C   UNL     1     -10.674  10.552  68.258  1.00  0.00    -0.229 C  
BRANCH  10  11
HETATM   11  O   UNL     1     -10.584  11.914  67.796  1.00  0.00    -0.195 OA 
BRANCH  11  12
HETATM   12  C   UNL     1     -10.576  12.068  66.434  1.00  0.00    -0.243 A  
HETATM   13  C   UNL     1     -10.181  13.302  65.878  1.00  0.00    -0.295 A  
HETATM   14  C   UNL     1     -11.018  11.046  65.580  1.00  0.00    -0.086 A  
HETATM   15  C   UNL     1     -10.177  13.457  64.481  1.00  0.00    -0.321 A  
HETATM   16  C   UNL     1     -11.026  11.221  64.196  1.00  0.00    -0.376 A  
HETATM   17  C   UNL     1     -10.601  12.423  63.646  1.00  0.00    -0.481 A  
BRANCH  13  18
HETATM   18  C   UNL     1      -9.737  14.451  66.733  1.00  0.00    -0.270 C  
HETATM   19  O   UNL     1      -8.604  14.470  67.209  1.00  0.00    -0.190 OA 
BRANCH  18  20
HETATM   20  C   UNL     1     -10.677  15.633  66.937  1.00  0.00    -0.307 C  
BRANCH  20  21
HETATM   21  C   UNL     1     -10.454  16.735  65.907  1.00  0.00    -0.311 C  
BRANCH  21  22
HETATM   22  C   UNL     1      -9.861  17.983  66.516  1.00  0.00    -0.353 A  
HETATM   23  C   UNL     1      -8.480  18.219  66.455  1.00  0.00    -0.287 A  
HETATM   24  C   UNL     1      -7.935  19.384  66.998  1.00  0.00    -0.287 A  
HETATM   25  C   UNL     1      -8.763  20.322  67.610  1.00  0.00    -0.351 A  
HETATM   26  C   UNL     1     -10.135  20.091  67.688  1.00  0.00    -0.562 A  
HETATM   27  C   UNL     1     -10.682  18.925  67.147  1.00  0.00    -0.506 A  
ENDBRANCH  21  22
ENDBRANCH  20  21
ENDBRANCH  18  20
ENDBRANCH  13  18
ENDBRANCH  11  12
ENDBRANCH  10  11
ENDBRANCH   7  10
ENDBRANCH   6   7
ENDBRANCH   4   6
ENDBRANCH   3   4
ENDBRANCH   2   3
TORSDOF 11
ENDMDL
MODEL      273
REMARK 921   NORMALIZED FREE ENERGY PREDICTED BY IDOCK:   -4.01 KCAL/MOL
REMARK 922        TOTAL FREE ENERGY PREDICTED BY IDOCK:   -7.60 KCAL/MOL
REMARK 923 INTER-LIGAND FREE ENERGY PREDICTED BY IDOCK:   -6.77 KCAL/MOL
REMARK 924 INTRA-LIGAND FREE ENERGY PREDICTED BY IDOCK:   -0.83 KCAL/MOL
REMARK 927      BINDING AFFINITY PREDICTED BY RF-SCORE:    0.00 PKD
ROOT
HETATM    1  C   UNL     1      -9.939   2.137  71.982  1.00  0.00    -0.225 C  
HETATM    2  C   UNL     1      -9.856   3.386  72.847  1.00  0.00    -0.201 C  
ENDROOT
BRANCH   2   3
HETATM    3  C   UNL     1     -11.242   3.834  73.305  1.00  0.00    -0.127 C  
BRANCH   3   4
HETATM    4  N   UNL     1     -11.351   5.288  73.193  1.00  0.00    -0.431 NA 
HETATM    5  H   UNL     1     -12.180   5.646  73.668  1.00  0.00     0.000 HD 
BRANCH   4   6
HETATM    6  C   UNL     1     -10.121   5.928  73.679  1.00  0.00    -0.208 C  
BRANCH   6   7
HETATM    7  C   UNL     1     -10.017   7.379  73.174  1.00  0.00    -0.268 C  
HETATM    8  O   UNL     1      -8.897   8.044  73.779  1.00  0.00    -0.266 OA 
HETATM    9  H   UNL     1      -8.834   8.939  73.467  1.00  0.00     0.000 HD 
BRANCH   7  10
HETATM   10  C   UNL     1      -9.866   7.418  71.648  1.00  0.00    -0.165 C  
BRANCH  10  11
HETATM   11  O   UNL     1     -11.170   7.440  71.036  1.00  0.00    -0.253 OA 
BRANCH  11  12
HETATM   12  C   UNL     1     -11.896   8.584  71.253  1.00  0.00    -0.291 A  
HETATM   13  C   UNL     1     -11.577   9.754  70.534  1.00  0.00    -0.365 A  
HETATM   14  C   UNL     1     -12.906   8.635  72.226  1.00  0.00    -0.438 A  
HETATM   15  C   UNL     1     -12.321  10.924  70.761  1.00  0.00    -0.487 A  
HETATM   16  C   UNL     1     -13.623   9.809  72.453  1.00  0.00    -0.328 A  
HETATM   17  C   UNL     1     -13.335  10.952  71.718  1.00  0.00    -0.413 A  
BRANCH  13  18
HETATM   18  C   UNL     1     -10.482   9.782  69.509  1.00  0.00    -0.232 C  
HETATM   19  O   UNL     1      -9.386  10.265  69.784  1.00  0.00    -0.188 OA 
BRANCH  18  20
HETATM   20  C   UNL     1     -10.719   9.132  68.152  1.00  0.00    -0.186 C  
BRANCH  20  21
HETATM   21  C   UNL     1     -10.427  10.082  66.995  1.00  0.00    -0.302 C  
BRANCH  21  22
HETATM   22  C   UNL     1      -9.578   9.441  65.922  1.00  0.00    -0.338 A  
HETATM   23  C   UNL     1      -9.403  10.071  64.681  1.00  0.00    -0.338 A  
HETATM   24  C   UNL     1      -8.599   9.489  63.699  1.00  0.00    -0.222 A  
HETATM   25  C   UNL     1      -7.968   8.272  63.944  1.00  0.00    -0.146 A  
HETATM   26  C   UNL     1      -8.146   7.632  65.169  1.00  0.00    -0.134 A  
HETATM   27  C   UNL     1      -8.951   8.210  66.153  1.00  0.00    -0.218 A  
ENDBRANCH  21  22
ENDBRANCH  20  21
ENDBRANCH  18  20
ENDBRANCH  13  18
ENDBRANCH  11  12
ENDBRANCH  10  11
ENDBRANCH   7  10
ENDBRANCH   6   7
ENDBRANCH   4   6
ENDBRANCH   3   4
ENDBRANCH   2   3
TORSDOF 11
ENDMDL
MODEL      274
REMARK 921   NORMALIZED FREE ENERGY PREDICTED BY IDOCK:   -4.00 KCAL/MOL
REMARK 922        TOTAL FREE ENERGY PREDICTED BY IDOCK:   -7.59 KCAL/MOL
REMARK 923 INTER-LIGAND FREE ENERGY PREDICTED BY IDOCK:   -6.24 KCAL/MOL
REMARK 924 INTRA-LIGAND FREE ENERGY PREDICTED BY IDOCK:   -1.35 KCAL/MOL
REMARK 927      BINDING AFFINITY PREDICTED BY RF-SCORE:    0.00 PKD
ROOT
HETATM    1  C   UNL     1      -5.561  13.270  69.023  1.00  0.00    -0.074 C  
HETATM    2  C   UNL     1      -5.872  13.226  67.534  1.00  0.00    -0.050 C  
ENDROOT
BRANCH   2   3
HETATM    3  C   UNL     1      -6.310  11.827  67.103  1.00  0.00    -0.145 C  
BRANCH   3   4
HETATM    4  N   UNL     1      -7.011  11.170  68.204  1.00  0.00    -0.067 NA 
HETATM    5  H   UNL     1      -6.504  11.258  69.085  1.00  0.00     0.000 HD 
BRANCH   4   6
HETATM    6  C   UNL     1      -8.385  11.681  68.308  1.00  0.00    -0.159 C  
BRANCH   6   7
HETATM    7  C   UNL     1      -9.404  10.527  68.316  1.00  0.00    -0.156 C  
HETATM    8  O   UNL     1      -9.861  10.269  69.653  1.00  0.00    -0.258 OA 
HETATM    9  H   UNL     1     -10.490   9.557  69.657  1.00  0.00     0.000 HD 
BRANCH   7  10
HETATM   10  C   UNL     1     -10.606  10.853  67.422  1.00  0.00    -0.243 C  
BRANCH  10  11
HETATM   11  O   UNL     1     -10.677  12.276  67.210  1.00  0.00    -0.223 OA 
BRANCH  11  12
HETATM   12  C   UNL     1     -11.203  12.660  66.003  1.00  0.00    -0.306 A  
HETATM   13  C   UNL     1     -11.290  14.032  65.691  1.00  0.00    -0.313 A  
HETATM   14  C   UNL     1     -11.718  11.720  65.098  1.00  0.00    -0.155 A  
HETATM   15  C   UNL     1     -11.831  14.421  64.453  1.00  0.00    -0.433 A  
HETATM   16  C   UNL     1     -12.270  12.123  63.883  1.00  0.00    -0.587 A  
HETATM   17  C   UNL     1     -12.322  13.472  63.557  1.00  0.00    -0.343 A  
BRANCH  13  18
HETATM   18  C   UNL     1     -10.796  15.093  66.629  1.00  0.00    -0.318 C  
HETATM   19  O   UNL     1     -11.529  15.532  67.512  1.00  0.00    -0.297 OA 
BRANCH  18  20
HETATM   20  C   UNL     1      -9.350  15.561  66.525  1.00  0.00    -0.311 C  
BRANCH  20  21
HETATM   21  C   UNL     1      -8.637  15.543  67.874  1.00  0.00    -0.156 C  
BRANCH  21  22
HETATM   22  C   UNL     1      -8.004  16.873  68.209  1.00  0.00    -0.211 A  
HETATM   23  C   UNL     1      -8.794  18.024  68.349  1.00  0.00    -0.300 A  
HETATM   24  C   UNL     1      -8.211  19.247  68.683  1.00  0.00    -0.408 A  
HETATM   25  C   UNL     1      -6.834  19.335  68.874  1.00  0.00    -0.366 A  
HETATM   26  C   UNL     1      -6.039  18.200  68.724  1.00  0.00    -0.202 A  
HETATM   27  C   UNL     1      -6.619  16.976  68.389  1.00  0.00    -0.157 A  
ENDBRANCH  21  22
ENDBRANCH  20  21
ENDBRANCH  18  20
ENDBRANCH  13  18
ENDBRANCH  11  12
ENDBRANCH  10  11
ENDBRANCH   7  10
ENDBRANCH   6   7
ENDBRANCH   4   6
ENDBRANCH   3   4
ENDBRANCH   2   3
TORSDOF 11
ENDMDL
MODEL      275
REMARK 921   NORMALIZED FREE ENERGY PREDICTED BY IDOCK:   -4.00 KCAL/MOL
REMARK 922        TOTAL FREE ENERGY PREDICTED BY IDOCK:   -7.58 KCAL/MOL
REMARK 923 INTER-LIGAND FREE ENERGY PREDICTED BY IDOCK:   -6.35 KCAL/MOL
REMARK 924 INTRA-LIGAND FREE ENERGY PREDICTED BY IDOCK:   -1.23 KCAL/MOL
REMARK 927      BINDING AFFINITY PREDICTED BY RF-SCORE:    0.00 PKD
ROOT
HETATM    1  C   UNL     1     -12.759  12.328  71.666  1.00  0.00    -0.309 C  
HETATM    2  C   UNL     1     -12.136  11.278  70.760  1.00  0.00    -0.450 C  
ENDROOT
BRANCH   2   3
HETATM    3  C   UNL     1     -12.989  10.011  70.714  1.00  0.00    -0.257 C  
BRANCH   3   4
HETATM    4  N   UNL     1     -12.173   8.885  70.262  1.00  0.00    -0.298 NA 
HETATM    5  H   UNL     1     -11.586   9.136  69.465  1.00  0.00     0.000 HD 
BRANCH   4   6
HETATM    6  C   UNL     1     -11.382   8.350  71.379  1.00  0.00    -0.264 C  
BRANCH   6   7
HETATM    7  C   UNL     1     -10.654   7.057  70.970  1.00  0.00    -0.218 C  
HETATM    8  O   UNL     1     -11.445   6.308  70.034  1.00  0.00    -0.412 OA 
HETATM    9  H   UNL     1     -10.995   5.510  69.782  1.00  0.00     0.000 HD 
BRANCH   7  10
HETATM   10  C   UNL     1      -9.289   7.371  70.345  1.00  0.00    -0.161 C  
BRANCH  10  11
HETATM   11  O   UNL     1      -9.358   8.630  69.648  1.00  0.00    -0.158 OA 
BRANCH  11  12
HETATM   12  C   UNL     1      -9.169   8.555  68.291  1.00  0.00    -0.138 A  
HETATM   13  C   UNL     1      -9.155   9.740  67.528  1.00  0.00    -0.142 A  
HETATM   14  C   UNL     1      -9.056   7.320  67.636  1.00  0.00    -0.124 A  
HETATM   15  C   UNL     1      -8.963   9.660  66.138  1.00  0.00    -0.186 A  
HETATM   16  C   UNL     1      -8.885   7.256  66.253  1.00  0.00    -0.179 A  
HETATM   17  C   UNL     1      -8.833   8.424  65.505  1.00  0.00    -0.172 A  
BRANCH  13  18
HETATM   18  C   UNL     1      -9.311  11.092  68.158  1.00  0.00    -0.176 C  
HETATM   19  O   UNL     1      -8.326  11.709  68.557  1.00  0.00    -0.152 OA 
BRANCH  18  20
HETATM   20  C   UNL     1     -10.694  11.727  68.222  1.00  0.00    -0.246 C  
BRANCH  20  21
HETATM   21  C   UNL     1     -10.643  13.245  68.091  1.00  0.00    -0.259 C  
BRANCH  21  22
HETATM   22  C   UNL     1     -11.100  13.723  66.733  1.00  0.00    -0.316 A  
HETATM   23  C   UNL     1     -12.448  13.621  66.358  1.00  0.00    -0.377 A  
HETATM   24  C   UNL     1     -12.873  14.084  65.112  1.00  0.00    -0.368 A  
HETATM   25  C   UNL     1     -11.957  14.649  64.227  1.00  0.00    -0.406 A  
HETATM   26  C   UNL     1     -10.614  14.743  64.585  1.00  0.00    -0.234 A  
HETATM   27  C   UNL     1     -10.185  14.278  65.830  1.00  0.00    -0.351 A  
ENDBRANCH  21  22
ENDBRANCH  20  21
ENDBRANCH  18  20
ENDBRANCH  13  18
ENDBRANCH  11  12
ENDBRANCH  10  11
ENDBRANCH   7  10
ENDBRANCH   6   7
ENDBRANCH   4   6
ENDBRANCH   3   4
ENDBRANCH   2   3
TORSDOF 11
ENDMDL
MODEL      276
REMARK 921   NORMALIZED FREE ENERGY PREDICTED BY IDOCK:   -4.00 KCAL/MOL
REMARK 922        TOTAL FREE ENERGY PREDICTED BY IDOCK:   -7.58 KCAL/MOL
REMARK 923 INTER-LIGAND FREE ENERGY PREDICTED BY IDOCK:   -7.09 KCAL/MOL
REMARK 924 INTRA-LIGAND FREE ENERGY PREDICTED BY IDOCK:   -0.49 KCAL/MOL
REMARK 927      BINDING AFFINITY PREDICTED BY RF-SCORE:    0.00 PKD
ROOT
HETATM    1  C   UNL     1     -12.295   9.379  71.907  1.00  0.00    -0.450 C  
HETATM    2  C   UNL     1     -11.055   8.946  71.140  1.00  0.00    -0.354 C  
ENDROOT
BRANCH   2   3
HETATM    3  C   UNL     1     -11.005   9.597  69.759  1.00  0.00    -0.240 C  
BRANCH   3   4
HETATM    4  N   UNL     1     -10.858  11.044  69.903  1.00  0.00    -0.463 NA 
HETATM    5  H   UNL     1      -9.895  11.311  70.109  1.00  0.00     0.000 HD 
BRANCH   4   6
HETATM    6  C   UNL     1     -11.373  11.728  68.708  1.00  0.00    -0.267 C  
BRANCH   6   7
HETATM    7  C   UNL     1     -10.912  11.017  67.423  1.00  0.00    -0.291 C  
HETATM    8  O   UNL     1     -11.899  11.156  66.389  1.00  0.00    -0.065 OA 
HETATM    9  H   UNL     1     -11.614  10.718  65.596  1.00  0.00     0.000 HD 
BRANCH   7  10
HETATM   10  C   UNL     1      -9.576  11.588  66.931  1.00  0.00    -0.187 C  
BRANCH  10  11
HETATM   11  O   UNL     1      -9.393  12.913  67.465  1.00  0.00    -0.178 OA 
BRANCH  11  12
HETATM   12  C   UNL     1      -9.880  13.929  66.684  1.00  0.00    -0.284 A  
HETATM   13  C   UNL     1     -10.160  15.181  67.270  1.00  0.00    -0.235 A  
HETATM   14  C   UNL     1     -10.170  13.732  65.325  1.00  0.00    -0.355 A  
HETATM   15  C   UNL     1     -10.661  16.219  66.466  1.00  0.00    -0.187 A  
HETATM   16  C   UNL     1     -10.684  14.767  64.545  1.00  0.00    -0.124 A  
HETATM   17  C   UNL     1     -10.926  16.011  65.113  1.00  0.00    -0.360 A  
BRANCH  13  18
HETATM   18  C   UNL     1      -9.914  15.449  68.725  1.00  0.00    -0.208 C  
HETATM   19  O   UNL     1     -10.775  15.185  69.560  1.00  0.00    -0.244 OA 
BRANCH  18  20
HETATM   20  C   UNL     1      -8.553  15.975  69.163  1.00  0.00    -0.247 C  
BRANCH  20  21
HETATM   21  C   UNL     1      -7.828  16.712  68.041  1.00  0.00    -0.173 C  
BRANCH  21  22
HETATM   22  C   UNL     1      -8.373  18.103  67.818  1.00  0.00    -0.253 A  
HETATM   23  C   UNL     1      -9.485  18.557  68.542  1.00  0.00    -0.375 A  
HETATM   24  C   UNL     1      -9.973  19.851  68.352  1.00  0.00    -0.531 A  
HETATM   25  C   UNL     1      -9.359  20.702  67.436  1.00  0.00    -0.475 A  
HETATM   26  C   UNL     1      -8.262  20.255  66.702  1.00  0.00    -0.294 A  
HETATM   27  C   UNL     1      -7.772  18.961  66.889  1.00  0.00    -0.250 A  
ENDBRANCH  21  22
ENDBRANCH  20  21
ENDBRANCH  18  20
ENDBRANCH  13  18
ENDBRANCH  11  12
ENDBRANCH  10  11
ENDBRANCH   7  10
ENDBRANCH   6   7
ENDBRANCH   4   6
ENDBRANCH   3   4
ENDBRANCH   2   3
TORSDOF 11
ENDMDL
MODEL      277
REMARK 921   NORMALIZED FREE ENERGY PREDICTED BY IDOCK:   -3.99 KCAL/MOL
REMARK 922        TOTAL FREE ENERGY PREDICTED BY IDOCK:   -7.58 KCAL/MOL
REMARK 923 INTER-LIGAND FREE ENERGY PREDICTED BY IDOCK:   -7.18 KCAL/MOL
REMARK 924 INTRA-LIGAND FREE ENERGY PREDICTED BY IDOCK:   -0.40 KCAL/MOL
REMARK 927      BINDING AFFINITY PREDICTED BY RF-SCORE:    0.00 PKD
ROOT
HETATM    1  C   UNL     1     -13.521   6.882  71.501  1.00  0.00    -0.290 C  
HETATM    2  C   UNL     1     -14.402   8.120  71.580  1.00  0.00    -0.534 C  
ENDROOT
BRANCH   2   3
HETATM    3  C   UNL     1     -13.606   9.335  72.055  1.00  0.00    -0.452 C  
BRANCH   3   4
HETATM    4  N   UNL     1     -12.185   9.000  72.112  1.00  0.00    -0.369 NA 
HETATM    5  H   UNL     1     -12.008   8.036  71.825  1.00  0.00     0.000 HD 
BRANCH   4   6
HETATM    6  C   UNL     1     -11.404   9.959  71.319  1.00  0.00    -0.333 C  
BRANCH   6   7
HETATM    7  C   UNL     1     -12.325  10.964  70.604  1.00  0.00    -0.376 C  
HETATM    8  O   UNL     1     -12.094  12.294  71.093  1.00  0.00    -0.319 OA 
HETATM    9  H   UNL     1     -12.663  12.914  70.651  1.00  0.00     0.000 HD 
BRANCH   7  10
HETATM   10  C   UNL     1     -12.097  10.933  69.088  1.00  0.00    -0.221 C  
BRANCH  10  11
HETATM   11  O   UNL     1     -11.802  12.263  68.618  1.00  0.00    -0.310 OA 
BRANCH  11  12
HETATM   12  C   UNL     1     -10.515  12.457  68.186  1.00  0.00    -0.219 A  
HETATM   13  C   UNL     1     -10.237  13.509  67.290  1.00  0.00    -0.242 A  
HETATM   14  C   UNL     1      -9.479  11.589  68.562  1.00  0.00    -0.175 A  
HETATM   15  C   UNL     1      -8.917  13.703  66.848  1.00  0.00    -0.229 A  
HETATM   16  C   UNL     1      -8.178  11.783  68.100  1.00  0.00    -0.153 A  
HETATM   17  C   UNL     1      -7.895  12.842  67.247  1.00  0.00    -0.148 A  
BRANCH  13  18
HETATM   18  C   UNL     1     -11.303  14.450  66.814  1.00  0.00    -0.352 C  
HETATM   19  O   UNL     1     -12.490  14.183  66.987  1.00  0.00    -0.325 OA 
BRANCH  18  20
HETATM   20  C   UNL     1     -10.897  15.778  66.188  1.00  0.00    -0.240 C  
BRANCH  20  21
HETATM   21  C   UNL     1     -10.624  16.853  67.234  1.00  0.00    -0.270 C  
BRANCH  21  22
HETATM   22  C   UNL     1      -9.159  17.208  67.328  1.00  0.00    -0.227 A  
HETATM   23  C   UNL     1      -8.235  16.670  66.419  1.00  0.00    -0.353 A  
HETATM   24  C   UNL     1      -6.885  17.018  66.492  1.00  0.00    -0.281 A  
HETATM   25  C   UNL     1      -6.444  17.902  67.474  1.00  0.00    -0.179 A  
HETATM   26  C   UNL     1      -7.351  18.431  68.390  1.00  0.00    -0.289 A  
HETATM   27  C   UNL     1      -8.702  18.084  68.321  1.00  0.00    -0.289 A  
ENDBRANCH  21  22
ENDBRANCH  20  21
ENDBRANCH  18  20
ENDBRANCH  13  18
ENDBRANCH  11  12
ENDBRANCH  10  11
ENDBRANCH   7  10
ENDBRANCH   6   7
ENDBRANCH   4   6
ENDBRANCH   3   4
ENDBRANCH   2   3
TORSDOF 11
ENDMDL
MODEL      278
REMARK 921   NORMALIZED FREE ENERGY PREDICTED BY IDOCK:   -3.97 KCAL/MOL
REMARK 922        TOTAL FREE ENERGY PREDICTED BY IDOCK:   -7.55 KCAL/MOL
REMARK 923 INTER-LIGAND FREE ENERGY PREDICTED BY IDOCK:   -6.19 KCAL/MOL
REMARK 924 INTRA-LIGAND FREE ENERGY PREDICTED BY IDOCK:   -1.36 KCAL/MOL
REMARK 927      BINDING AFFINITY PREDICTED BY RF-SCORE:    0.00 PKD
ROOT
HETATM    1  C   UNL     1      -5.607   5.315  67.162  1.00  0.00    -0.013 C  
HETATM    2  C   UNL     1      -5.990   5.823  65.780  1.00  0.00    -0.025 C  
ENDROOT
BRANCH   2   3
HETATM    3  C   UNL     1      -7.490   5.673  65.532  1.00  0.00    -0.074 C  
BRANCH   3   4
HETATM    4  N   UNL     1      -8.226   6.586  66.404  1.00  0.00    -0.112 NA 
HETATM    5  H   UNL     1      -8.457   7.461  65.932  1.00  0.00     0.000 HD 
BRANCH   4   6
HETATM    6  C   UNL     1      -9.420   5.922  66.943  1.00  0.00    -0.135 C  
BRANCH   6   7
HETATM    7  C   UNL     1     -10.259   6.895  67.790  1.00  0.00    -0.180 C  
HETATM    8  O   UNL     1     -11.642   6.506  67.783  1.00  0.00    -0.646 OA 
HETATM    9  H   UNL     1     -12.159   7.108  68.306  1.00  0.00     0.000 HD 
BRANCH   7  10
HETATM   10  C   UNL     1      -9.752   6.940  69.236  1.00  0.00    -0.156 C  
BRANCH  10  11
HETATM   11  O   UNL     1      -9.310   8.275  69.550  1.00  0.00    -0.157 OA 
BRANCH  11  12
HETATM   12  C   UNL     1     -10.311   9.170  69.830  1.00  0.00    -0.212 A  
HETATM   13  C   UNL     1     -10.186  10.506  69.399  1.00  0.00    -0.245 A  
HETATM   14  C   UNL     1     -11.428   8.801  70.596  1.00  0.00    -0.263 A  
HETATM   15  C   UNL     1     -11.213  11.420  69.690  1.00  0.00    -0.301 A  
HETATM   16  C   UNL     1     -12.429   9.725  70.893  1.00  0.00    -0.366 A  
HETATM   17  C   UNL     1     -12.326  11.032  70.436  1.00  0.00    -0.442 A  
BRANCH  13  18
HETATM   18  C   UNL     1      -9.000  10.979  68.612  1.00  0.00    -0.167 C  
HETATM   19  O   UNL     1      -7.945  11.250  69.180  1.00  0.00    -0.102 OA 
BRANCH  18  20
HETATM   20  C   UNL     1      -9.094  11.042  67.093  1.00  0.00    -0.151 C  
BRANCH  20  21
HETATM   21  C   UNL     1      -8.860  12.450  66.555  1.00  0.00    -0.106 C  
BRANCH  21  22
HETATM   22  C   UNL     1     -10.084  13.019  65.877  1.00  0.00    -0.291 A  
HETATM   23  C   UNL     1     -11.301  12.321  65.899  1.00  0.00    -0.406 A  
HETATM   24  C   UNL     1     -12.437  12.860  65.292  1.00  0.00    -0.552 A  
HETATM   25  C   UNL     1     -12.368  14.096  64.654  1.00  0.00    -0.432 A  
HETATM   26  C   UNL     1     -11.161  14.791  64.615  1.00  0.00    -0.337 A  
HETATM   27  C   UNL     1     -10.022  14.254  65.220  1.00  0.00    -0.313 A  
ENDBRANCH  21  22
ENDBRANCH  20  21
ENDBRANCH  18  20
ENDBRANCH  13  18
ENDBRANCH  11  12
ENDBRANCH  10  11
ENDBRANCH   7  10
ENDBRANCH   6   7
ENDBRANCH   4   6
ENDBRANCH   3   4
ENDBRANCH   2   3
TORSDOF 11
ENDMDL
MODEL      279
REMARK 921   NORMALIZED FREE ENERGY PREDICTED BY IDOCK:   -3.97 KCAL/MOL
REMARK 922        TOTAL FREE ENERGY PREDICTED BY IDOCK:   -7.55 KCAL/MOL
REMARK 923 INTER-LIGAND FREE ENERGY PREDICTED BY IDOCK:   -6.51 KCAL/MOL
REMARK 924 INTRA-LIGAND FREE ENERGY PREDICTED BY IDOCK:   -1.03 KCAL/MOL
REMARK 927      BINDING AFFINITY PREDICTED BY RF-SCORE:    0.00 PKD
ROOT
HETATM    1  C   UNL     1     -10.760   6.527  67.549  1.00  0.00    -0.395 C  
HETATM    2  C   UNL     1     -10.695   7.813  68.360  1.00  0.00    -0.088 C  
ENDROOT
BRANCH   2   3
HETATM    3  C   UNL     1      -9.531   7.784  69.349  1.00  0.00    -0.156 C  
BRANCH   3   4
HETATM    4  N   UNL     1      -8.377   8.468  68.768  1.00  0.00    -0.121 NA 
HETATM    5  H   UNL     1      -8.466   8.576  67.757  1.00  0.00     0.000 HD 
BRANCH   4   6
HETATM    6  C   UNL     1      -8.158   9.757  69.440  1.00  0.00    -0.129 C  
BRANCH   6   7
HETATM    7  C   UNL     1      -8.121  10.911  68.422  1.00  0.00    -0.131 C  
HETATM    8  O   UNL     1      -7.643  10.446  67.151  1.00  0.00    -0.094 OA 
HETATM    9  H   UNL     1      -7.620  11.158  66.523  1.00  0.00     0.000 HD 
BRANCH   7  10
HETATM   10  C   UNL     1      -9.512  11.531  68.246  1.00  0.00    -0.189 C  
BRANCH  10  11
HETATM   11  O   UNL     1      -9.398  12.967  68.207  1.00  0.00    -0.209 OA 
BRANCH  11  12
HETATM   12  C   UNL     1      -9.951  13.565  67.104  1.00  0.00    -0.246 A  
HETATM   13  C   UNL     1     -10.814  14.668  67.273  1.00  0.00    -0.305 A  
HETATM   14  C   UNL     1      -9.732  13.063  65.812  1.00  0.00    -0.157 A  
HETATM   15  C   UNL     1     -11.380  15.277  66.141  1.00  0.00    -0.160 A  
HETATM   16  C   UNL     1     -10.317  13.667  64.700  1.00  0.00    -0.407 A  
HETATM   17  C   UNL     1     -11.137  14.776  64.862  1.00  0.00    -0.416 A  
BRANCH  13  18
HETATM   18  C   UNL     1     -11.125  15.231  68.628  1.00  0.00    -0.279 C  
HETATM   19  O   UNL     1     -10.409  16.101  69.118  1.00  0.00    -0.226 OA 
BRANCH  18  20
HETATM   20  C   UNL     1     -12.384  14.772  69.352  1.00  0.00    -0.184 C  
BRANCH  20  21
HETATM   21  C   UNL     1     -12.087  14.234  70.748  1.00  0.00    -0.418 C  
BRANCH  21  22
HETATM   22  C   UNL     1     -12.427  12.769  70.886  1.00  0.00    -0.373 A  
HETATM   23  C   UNL     1     -12.034  11.850  69.902  1.00  0.00    -0.398 A  
HETATM   24  C   UNL     1     -12.328  10.493  70.043  1.00  0.00    -0.290 A  
HETATM   25  C   UNL     1     -13.020  10.041  71.163  1.00  0.00    -0.478 A  
HETATM   26  C   UNL     1     -13.427  10.948  72.140  1.00  0.00    -0.205 A  
HETATM   27  C   UNL     1     -13.136  12.306  72.001  1.00  0.00    -0.461 A  
ENDBRANCH  21  22
ENDBRANCH  20  21
ENDBRANCH  18  20
ENDBRANCH  13  18
ENDBRANCH  11  12
ENDBRANCH  10  11
ENDBRANCH   7  10
ENDBRANCH   6   7
ENDBRANCH   4   6
ENDBRANCH   3   4
ENDBRANCH   2   3
TORSDOF 11
ENDMDL
MODEL      280
REMARK 921   NORMALIZED FREE ENERGY PREDICTED BY IDOCK:   -3.97 KCAL/MOL
REMARK 922        TOTAL FREE ENERGY PREDICTED BY IDOCK:   -7.54 KCAL/MOL
REMARK 923 INTER-LIGAND FREE ENERGY PREDICTED BY IDOCK:   -6.49 KCAL/MOL
REMARK 924 INTRA-LIGAND FREE ENERGY PREDICTED BY IDOCK:   -1.05 KCAL/MOL
REMARK 927      BINDING AFFINITY PREDICTED BY RF-SCORE:    0.00 PKD
ROOT
HETATM    1  C   UNL     1      -9.967  16.669  66.095  1.00  0.00    -0.356 C  
HETATM    2  C   UNL     1     -10.258  15.343  66.780  1.00  0.00    -0.273 C  
ENDROOT
BRANCH   2   3
HETATM    3  C   UNL     1     -11.552  14.722  66.255  1.00  0.00    -0.298 C  
BRANCH   3   4
HETATM    4  N   UNL     1     -11.984  13.653  67.154  1.00  0.00    -0.396 NA 
HETATM    5  H   UNL     1     -12.995  13.656  67.291  1.00  0.00     0.000 HD 
BRANCH   4   6
HETATM    6  C   UNL     1     -11.501  12.353  66.667  1.00  0.00    -0.370 C  
BRANCH   6   7
HETATM    7  C   UNL     1     -10.854  11.543  67.805  1.00  0.00    -0.221 C  
HETATM    8  O   UNL     1      -9.893  12.344  68.509  1.00  0.00    -0.278 OA 
HETATM    9  H   UNL     1      -9.494  11.844  69.211  1.00  0.00     0.000 HD 
BRANCH   7  10
HETATM   10  C   UNL     1     -11.916  11.040  68.791  1.00  0.00    -0.225 C  
BRANCH  10  11
HETATM   11  O   UNL     1     -11.272  10.562  69.988  1.00  0.00    -0.273 OA 
BRANCH  11  12
HETATM   12  C   UNL     1     -11.995   9.648  70.713  1.00  0.00    -0.277 A  
HETATM   13  C   UNL     1     -11.692   8.276  70.595  1.00  0.00    -0.153 A  
HETATM   14  C   UNL     1     -13.074  10.043  71.518  1.00  0.00    -0.531 A  
HETATM   15  C   UNL     1     -12.436   7.343  71.337  1.00  0.00    -0.402 A  
HETATM   16  C   UNL     1     -13.815   9.102  72.233  1.00  0.00    -0.527 A  
HETATM   17  C   UNL     1     -13.494   7.754  72.148  1.00  0.00    -0.138 A  
BRANCH  13  18
HETATM   18  C   UNL     1     -10.579   7.781  69.721  1.00  0.00    -0.241 C  
HETATM   19  O   UNL     1     -10.768   6.849  68.942  1.00  0.00    -0.216 OA 
BRANCH  18  20
HETATM   20  C   UNL     1      -9.236   8.499  69.750  1.00  0.00    -0.157 C  
BRANCH  20  21
HETATM   21  C   UNL     1      -8.282   7.990  68.675  1.00  0.00    -0.126 C  
BRANCH  21  22
HETATM   22  C   UNL     1      -8.327   8.828  67.419  1.00  0.00    -0.109 A  
HETATM   23  C   UNL     1      -7.487   9.943  67.276  1.00  0.00    -0.087 A  
HETATM   24  C   UNL     1      -7.512  10.703  66.106  1.00  0.00    -0.138 A  
HETATM   25  C   UNL     1      -8.379  10.361  65.070  1.00  0.00    -0.166 A  
HETATM   26  C   UNL     1      -9.227   9.264  65.208  1.00  0.00    -0.275 A  
HETATM   27  C   UNL     1      -9.205   8.503  66.378  1.00  0.00    -0.251 A  
ENDBRANCH  21  22
ENDBRANCH  20  21
ENDBRANCH  18  20
ENDBRANCH  13  18
ENDBRANCH  11  12
ENDBRANCH  10  11
ENDBRANCH   7  10
ENDBRANCH   6   7
ENDBRANCH   4   6
ENDBRANCH   3   4
ENDBRANCH   2   3
TORSDOF 11
ENDMDL
MODEL      281
REMARK 921   NORMALIZED FREE ENERGY PREDICTED BY IDOCK:   -3.96 KCAL/MOL
REMARK 922        TOTAL FREE ENERGY PREDICTED BY IDOCK:   -7.53 KCAL/MOL
REMARK 923 INTER-LIGAND FREE ENERGY PREDICTED BY IDOCK:   -6.33 KCAL/MOL
REMARK 924 INTRA-LIGAND FREE ENERGY PREDICTED BY IDOCK:   -1.20 KCAL/MOL
REMARK 927      BINDING AFFINITY PREDICTED BY RF-SCORE:    0.00 PKD
ROOT
HETATM    1  C   UNL     1     -12.449  14.128  64.752  1.00  0.00    -0.395 C  
HETATM    2  C   UNL     1     -12.353  12.719  65.316  1.00  0.00    -0.546 C  
ENDROOT
BRANCH   2   3
HETATM    3  C   UNL     1     -11.018  12.069  64.955  1.00  0.00    -0.306 C  
BRANCH   3   4
HETATM    4  N   UNL     1     -10.650  11.098  65.984  1.00  0.00    -0.256 NA 
HETATM    5  H   UNL     1     -10.674  10.141  65.630  1.00  0.00     0.000 HD 
BRANCH   4   6
HETATM    6  C   UNL     1      -9.342  11.438  66.559  1.00  0.00    -0.189 C  
BRANCH   6   7
HETATM    7  C   UNL     1      -9.408  11.483  68.096  1.00  0.00    -0.185 C  
HETATM    8  O   UNL     1      -9.950  12.737  68.540  1.00  0.00    -0.280 OA 
HETATM    9  H   UNL     1      -9.990  12.764  69.489  1.00  0.00     0.000 HD 
BRANCH   7  10
HETATM   10  C   UNL     1     -10.269  10.337  68.640  1.00  0.00    -0.180 C  
BRANCH  10  11
HETATM   11  O   UNL     1      -9.944  10.106  70.025  1.00  0.00    -0.240 OA 
BRANCH  11  12
HETATM   12  C   UNL     1     -11.002   9.745  70.819  1.00  0.00    -0.336 A  
HETATM   13  C   UNL     1     -10.807   8.793  71.841  1.00  0.00    -0.431 A  
HETATM   14  C   UNL     1     -12.291  10.252  70.595  1.00  0.00    -0.416 A  
HETATM   15  C   UNL     1     -11.894   8.425  72.652  1.00  0.00    -0.360 A  
HETATM   16  C   UNL     1     -13.363   9.862  71.397  1.00  0.00    -0.447 A  
HETATM   17  C   UNL     1     -13.166   8.953  72.427  1.00  0.00    -0.482 A  
BRANCH  13  18
HETATM   18  C   UNL     1      -9.465   8.179  72.110  1.00  0.00    -0.225 C  
HETATM   19  O   UNL     1      -8.760   8.603  73.022  1.00  0.00    -0.380 OA 
BRANCH  18  20
HETATM   20  C   UNL     1      -9.024   6.972  71.292  1.00  0.00    -0.137 C  
BRANCH  20  21
HETATM   21  C   UNL     1      -7.528   6.990  70.993  1.00  0.00    -0.081 C  
BRANCH  21  22
HETATM   22  C   UNL     1      -7.234   7.255  69.536  1.00  0.00    -0.080 A  
HETATM   23  C   UNL     1      -8.032   6.685  68.533  1.00  0.00    -0.118 A  
HETATM   24  C   UNL     1      -7.774   6.950  67.187  1.00  0.00    -0.108 A  
HETATM   25  C   UNL     1      -6.715   7.781  66.829  1.00  0.00    -0.067 A  
HETATM   26  C   UNL     1      -5.908   8.341  67.818  1.00  0.00    -0.043 A  
HETATM   27  C   UNL     1      -6.163   8.077  69.165  1.00  0.00    -0.039 A  
ENDBRANCH  21  22
ENDBRANCH  20  21
ENDBRANCH  18  20
ENDBRANCH  13  18
ENDBRANCH  11  12
ENDBRANCH  10  11
ENDBRANCH   7  10
ENDBRANCH   6   7
ENDBRANCH   4   6
ENDBRANCH   3   4
ENDBRANCH   2   3
TORSDOF 11
ENDMDL
MODEL      282
REMARK 921   NORMALIZED FREE ENERGY PREDICTED BY IDOCK:   -3.95 KCAL/MOL
REMARK 922        TOTAL FREE ENERGY PREDICTED BY IDOCK:   -7.50 KCAL/MOL
REMARK 923 INTER-LIGAND FREE ENERGY PREDICTED BY IDOCK:   -7.26 KCAL/MOL
REMARK 924 INTRA-LIGAND FREE ENERGY PREDICTED BY IDOCK:   -0.25 KCAL/MOL
REMARK 927      BINDING AFFINITY PREDICTED BY RF-SCORE:    0.00 PKD
ROOT
HETATM    1  C   UNL     1     -11.814  16.078  71.951  1.00  0.00    -0.619 C  
HETATM    2  C   UNL     1     -11.747  14.859  72.859  1.00  0.00    -0.227 C  
ENDROOT
BRANCH   2   3
HETATM    3  C   UNL     1     -13.077  14.107  72.874  1.00  0.00    -0.444 C  
BRANCH   3   4
HETATM    4  N   UNL     1     -13.446  13.734  71.509  1.00  0.00    -0.316 NA 
HETATM    5  H   UNL     1     -13.773  14.537  70.971  1.00  0.00     0.000 HD 
BRANCH   4   6
HETATM    6  C   UNL     1     -12.326  13.051  70.848  1.00  0.00    -0.288 C  
BRANCH   6   7
HETATM    7  C   UNL     1     -12.367  11.536  71.117  1.00  0.00    -0.277 C  
HETATM    8  O   UNL     1     -13.453  11.210  71.998  1.00  0.00    -0.445 OA 
HETATM    9  H   UNL     1     -13.478  10.275  72.164  1.00  0.00     0.000 HD 
BRANCH   7  10
HETATM   10  C   UNL     1     -12.521  10.751  69.809  1.00  0.00    -0.162 C  
BRANCH  10  11
HETATM   11  O   UNL     1     -11.227  10.572  69.200  1.00  0.00    -0.228 OA 
BRANCH  11  12
HETATM   12  C   UNL     1     -11.154  10.917  67.874  1.00  0.00    -0.302 A  
HETATM   13  C   UNL     1     -10.428  10.099  66.985  1.00  0.00    -0.302 A  
HETATM   14  C   UNL     1     -11.730  12.103  67.395  1.00  0.00    -0.374 A  
HETATM   15  C   UNL     1     -10.354  10.457  65.628  1.00  0.00    -0.260 A  
HETATM   16  C   UNL     1     -11.632  12.454  66.049  1.00  0.00    -0.455 A  
HETATM   17  C   UNL     1     -10.949  11.630  65.164  1.00  0.00    -0.326 A  
BRANCH  13  18
HETATM   18  C   UNL     1      -9.752   8.838  67.437  1.00  0.00    -0.174 C  
HETATM   19  O   UNL     1      -9.848   7.809  66.772  1.00  0.00    -0.207 OA 
BRANCH  18  20
HETATM   20  C   UNL     1      -8.880   8.870  68.685  1.00  0.00    -0.137 C  
BRANCH  20  21
HETATM   21  C   UNL     1      -8.726   7.492  69.320  1.00  0.00    -0.136 C  
BRANCH  21  22
HETATM   22  C   UNL     1      -9.781   7.217  70.365  1.00  0.00    -0.176 A  
HETATM   23  C   UNL     1     -11.139   7.188  70.016  1.00  0.00    -0.288 A  
HETATM   24  C   UNL     1     -12.112   6.910  70.978  1.00  0.00    -0.429 A  
HETATM   25  C   UNL     1     -11.739   6.663  72.297  1.00  0.00    -0.305 A  
HETATM   26  C   UNL     1     -10.393   6.703  72.657  1.00  0.00    -0.219 A  
HETATM   27  C   UNL     1      -9.418   6.982  71.697  1.00  0.00    -0.160 A  
ENDBRANCH  21  22
ENDBRANCH  20  21
ENDBRANCH  18  20
ENDBRANCH  13  18
ENDBRANCH  11  12
ENDBRANCH  10  11
ENDBRANCH   7  10
ENDBRANCH   6   7
ENDBRANCH   4   6
ENDBRANCH   3   4
ENDBRANCH   2   3
TORSDOF 11
ENDMDL
MODEL      283
REMARK 921   NORMALIZED FREE ENERGY PREDICTED BY IDOCK:   -3.94 KCAL/MOL
REMARK 922        TOTAL FREE ENERGY PREDICTED BY IDOCK:   -7.49 KCAL/MOL
REMARK 923 INTER-LIGAND FREE ENERGY PREDICTED BY IDOCK:   -5.47 KCAL/MOL
REMARK 924 INTRA-LIGAND FREE ENERGY PREDICTED BY IDOCK:   -2.02 KCAL/MOL
REMARK 927      BINDING AFFINITY PREDICTED BY RF-SCORE:    0.00 PKD
ROOT
HETATM    1  C   UNL     1      -6.540   8.164  72.762  1.00  0.00    -0.093 C  
HETATM    2  C   UNL     1      -7.589   7.170  73.236  1.00  0.00    -0.092 C  
ENDROOT
BRANCH   2   3
HETATM    3  C   UNL     1      -8.753   7.882  73.925  1.00  0.00    -0.272 C  
BRANCH   3   4
HETATM    4  N   UNL     1      -9.886   7.972  73.006  1.00  0.00    -0.286 NA 
HETATM    5  H   UNL     1      -9.683   8.575  72.208  1.00  0.00     0.000 HD 
BRANCH   4   6
HETATM    6  C   UNL     1     -10.308   6.629  72.585  1.00  0.00    -0.196 C  
BRANCH   6   7
HETATM    7  C   UNL     1     -11.738   6.651  72.018  1.00  0.00    -0.313 C  
HETATM    8  O   UNL     1     -12.485   7.742  72.578  1.00  0.00    -0.534 OA 
HETATM    9  H   UNL     1     -13.368   7.755  72.227  1.00  0.00     0.000 HD 
BRANCH   7  10
HETATM   10  C   UNL     1     -11.719   6.780  70.490  1.00  0.00    -0.375 C  
BRANCH  10  11
HETATM   11  O   UNL     1     -10.515   7.456  70.079  1.00  0.00    -0.215 OA 
BRANCH  11  12
HETATM   12  C   UNL     1     -10.706   8.683  69.496  1.00  0.00    -0.182 A  
HETATM   13  C   UNL     1     -10.630   8.803  68.093  1.00  0.00    -0.203 A  
HETATM   14  C   UNL     1     -10.909   9.836  70.269  1.00  0.00    -0.356 A  
HETATM   15  C   UNL     1     -10.824  10.062  67.500  1.00  0.00    -0.326 A  
HETATM   16  C   UNL     1     -11.080  11.082  69.667  1.00  0.00    -0.320 A  
HETATM   17  C   UNL     1     -11.043  11.195  68.283  1.00  0.00    -0.310 A  
BRANCH  13  18
HETATM   18  C   UNL     1     -10.375   7.619  67.208  1.00  0.00    -0.297 C  
HETATM   19  O   UNL     1     -11.264   6.796  67.001  1.00  0.00    -0.393 OA 
BRANCH  18  20
HETATM   20  C   UNL     1      -9.030   7.494  66.505  1.00  0.00    -0.189 C  
BRANCH  20  21
HETATM   21  C   UNL     1      -7.856   7.696  67.457  1.00  0.00    -0.119 C  
BRANCH  21  22
HETATM   22  C   UNL     1      -7.565   6.466  68.284  1.00  0.00    -0.103 A  
HETATM   23  C   UNL     1      -6.887   6.573  69.507  1.00  0.00    -0.065 A  
HETATM   24  C   UNL     1      -6.639   5.438  70.282  1.00  0.00    -0.039 A  
HETATM   25  C   UNL     1      -7.062   4.186  69.840  1.00  0.00    -0.042 A  
HETATM   26  C   UNL     1      -7.724   4.068  68.620  1.00  0.00    -0.058 A  
HETATM   27  C   UNL     1      -7.972   5.201  67.843  1.00  0.00    -0.095 A  
ENDBRANCH  21  22
ENDBRANCH  20  21
ENDBRANCH  18  20
ENDBRANCH  13  18
ENDBRANCH  11  12
ENDBRANCH  10  11
ENDBRANCH   7  10
ENDBRANCH   6   7
ENDBRANCH   4   6
ENDBRANCH   3   4
ENDBRANCH   2   3
TORSDOF 11
ENDMDL
MODEL      284
REMARK 921   NORMALIZED FREE ENERGY PREDICTED BY IDOCK:   -3.93 KCAL/MOL
REMARK 922        TOTAL FREE ENERGY PREDICTED BY IDOCK:   -7.46 KCAL/MOL
REMARK 923 INTER-LIGAND FREE ENERGY PREDICTED BY IDOCK:   -6.60 KCAL/MOL
REMARK 924 INTRA-LIGAND FREE ENERGY PREDICTED BY IDOCK:   -0.87 KCAL/MOL
REMARK 927      BINDING AFFINITY PREDICTED BY RF-SCORE:    0.00 PKD
ROOT
HETATM    1  C   UNL     1      -6.850  19.902  68.905  1.00  0.00    -0.359 C  
HETATM    2  C   UNL     1      -8.010  18.963  68.609  1.00  0.00    -0.381 C  
ENDROOT
BRANCH   2   3
HETATM    3  C   UNL     1      -8.225  18.808  67.104  1.00  0.00    -0.265 C  
BRANCH   3   4
HETATM    4  N   UNL     1      -9.495  18.128  66.857  1.00  0.00    -0.277 NA 
HETATM    5  H   UNL     1      -9.359  17.205  66.445  1.00  0.00     0.000 HD 
BRANCH   4   6
HETATM    6  C   UNL     1     -10.287  18.065  68.094  1.00  0.00    -0.388 C  
BRANCH   6   7
HETATM    7  C   UNL     1     -10.437  16.612  68.580  1.00  0.00    -0.323 C  
HETATM    8  O   UNL     1     -10.924  16.582  69.931  1.00  0.00    -0.349 OA 
HETATM    9  H   UNL     1     -11.016  15.685  70.231  1.00  0.00     0.000 HD 
BRANCH   7  10
HETATM   10  C   UNL     1     -11.396  15.829  67.677  1.00  0.00    -0.194 C  
BRANCH  10  11
HETATM   11  O   UNL     1     -10.733  14.650  67.179  1.00  0.00    -0.282 OA 
BRANCH  11  12
HETATM   12  C   UNL     1     -11.298  14.092  66.061  1.00  0.00    -0.328 A  
HETATM   13  C   UNL     1     -11.605  12.715  66.053  1.00  0.00    -0.443 A  
HETATM   14  C   UNL     1     -11.517  14.846  64.898  1.00  0.00    -0.407 A  
HETATM   15  C   UNL     1     -12.182  12.147  64.905  1.00  0.00    -0.306 A  
HETATM   16  C   UNL     1     -12.073  14.263  63.760  1.00  0.00    -0.114 A  
HETATM   17  C   UNL     1     -12.410  12.916  63.764  1.00  0.00    -0.500 A  
BRANCH  13  18
HETATM   18  C   UNL     1     -11.359  11.841  67.246  1.00  0.00    -0.315 C  
HETATM   19  O   UNL     1     -12.230  11.698  68.102  1.00  0.00    -0.537 OA 
BRANCH  18  20
HETATM   20  C   UNL     1     -10.051  11.067  67.344  1.00  0.00    -0.216 C  
BRANCH  20  21
HETATM   21  C   UNL     1      -8.913  11.919  67.895  1.00  0.00    -0.179 C  
BRANCH  21  22
HETATM   22  C   UNL     1      -7.733  11.088  68.340  1.00  0.00    -0.119 A  
HETATM   23  C   UNL     1      -7.105  11.342  69.569  1.00  0.00    -0.058 A  
HETATM   24  C   UNL     1      -6.030  10.558  69.990  1.00  0.00    -0.080 A  
HETATM   25  C   UNL     1      -5.568   9.517  69.188  1.00  0.00    -0.036 A  
HETATM   26  C   UNL     1      -6.176   9.266  67.959  1.00  0.00    -0.050 A  
HETATM   27  C   UNL     1      -7.251  10.049  67.535  1.00  0.00    -0.089 A  
ENDBRANCH  21  22
ENDBRANCH  20  21
ENDBRANCH  18  20
ENDBRANCH  13  18
ENDBRANCH  11  12
ENDBRANCH  10  11
ENDBRANCH   7  10
ENDBRANCH   6   7
ENDBRANCH   4   6
ENDBRANCH   3   4
ENDBRANCH   2   3
TORSDOF 11
ENDMDL
MODEL      285
REMARK 921   NORMALIZED FREE ENERGY PREDICTED BY IDOCK:   -3.92 KCAL/MOL
REMARK 922        TOTAL FREE ENERGY PREDICTED BY IDOCK:   -7.46 KCAL/MOL
REMARK 923 INTER-LIGAND FREE ENERGY PREDICTED BY IDOCK:   -5.88 KCAL/MOL
REMARK 924 INTRA-LIGAND FREE ENERGY PREDICTED BY IDOCK:   -1.58 KCAL/MOL
REMARK 927      BINDING AFFINITY PREDICTED BY RF-SCORE:    0.00 PKD
ROOT
HETATM    1  C   UNL     1     -10.097  11.884  63.390  1.00  0.00    -0.464 C  
HETATM    2  C   UNL     1     -10.851  11.436  64.633  1.00  0.00    -0.359 C  
ENDROOT
BRANCH   2   3
HETATM    3  C   UNL     1     -11.697  12.572  65.205  1.00  0.00    -0.386 C  
BRANCH   3   4
HETATM    4  N   UNL     1     -12.238  12.176  66.504  1.00  0.00    -0.469 NA 
HETATM    5  H   UNL     1     -12.466  11.182  66.535  1.00  0.00     0.000 HD 
BRANCH   4   6
HETATM    6  C   UNL     1     -11.311  12.559  67.578  1.00  0.00    -0.312 C  
BRANCH   6   7
HETATM    7  C   UNL     1     -11.355  11.544  68.735  1.00  0.00    -0.265 C  
HETATM    8  O   UNL     1     -12.493  10.679  68.602  1.00  0.00    -0.788 OA 
HETATM    9  H   UNL     1     -12.520  10.053  69.316  1.00  0.00     0.000 HD 
BRANCH   7  10
HETATM   10  C   UNL     1     -10.076  10.699  68.770  1.00  0.00    -0.191 C  
BRANCH  10  11
HETATM   11  O   UNL     1     -10.422   9.306  68.892  1.00  0.00    -0.210 OA 
BRANCH  11  12
HETATM   12  C   UNL     1      -9.740   8.618  69.863  1.00  0.00    -0.173 A  
HETATM   13  C   UNL     1      -9.851   7.214  69.925  1.00  0.00    -0.174 A  
HETATM   14  C   UNL     1      -8.986   9.287  70.839  1.00  0.00    -0.273 A  
HETATM   15  C   UNL     1      -9.151   6.513  70.922  1.00  0.00    -0.154 A  
HETATM   16  C   UNL     1      -8.313   8.578  71.834  1.00  0.00    -0.218 A  
HETATM   17  C   UNL     1      -8.391   7.193  71.874  1.00  0.00    -0.106 A  
BRANCH  13  18
HETATM   18  C   UNL     1     -10.672   6.438  68.938  1.00  0.00    -0.288 C  
HETATM   19  O   UNL     1     -11.879   6.289  69.116  1.00  0.00    -0.016 OA 
BRANCH  18  20
HETATM   20  C   UNL     1     -10.009   5.909  67.673  1.00  0.00    -0.159 C  
BRANCH  20  21
HETATM   21  C   UNL     1      -8.507   6.172  67.652  1.00  0.00    -0.108 C  
BRANCH  21  22
HETATM   22  C   UNL     1      -8.154   7.442  66.913  1.00  0.00    -0.120 A  
HETATM   23  C   UNL     1      -9.009   7.952  65.925  1.00  0.00    -0.166 A  
HETATM   24  C   UNL     1      -8.693   9.139  65.260  1.00  0.00    -0.219 A  
HETATM   25  C   UNL     1      -7.521   9.823  65.572  1.00  0.00    -0.115 A  
HETATM   26  C   UNL     1      -6.659   9.317  66.543  1.00  0.00    -0.067 A  
HETATM   27  C   UNL     1      -6.971   8.130  67.209  1.00  0.00    -0.075 A  
ENDBRANCH  21  22
ENDBRANCH  20  21
ENDBRANCH  18  20
ENDBRANCH  13  18
ENDBRANCH  11  12
ENDBRANCH  10  11
ENDBRANCH   7  10
ENDBRANCH   6   7
ENDBRANCH   4   6
ENDBRANCH   3   4
ENDBRANCH   2   3
TORSDOF 11
ENDMDL
MODEL      286
REMARK 921   NORMALIZED FREE ENERGY PREDICTED BY IDOCK:   -3.91 KCAL/MOL
REMARK 922        TOTAL FREE ENERGY PREDICTED BY IDOCK:   -7.44 KCAL/MOL
REMARK 923 INTER-LIGAND FREE ENERGY PREDICTED BY IDOCK:   -6.15 KCAL/MOL
REMARK 924 INTRA-LIGAND FREE ENERGY PREDICTED BY IDOCK:   -1.29 KCAL/MOL
REMARK 927      BINDING AFFINITY PREDICTED BY RF-SCORE:    0.00 PKD
ROOT
HETATM    1  C   UNL     1     -13.048  13.994  71.958  1.00  0.00    -0.487 C  
HETATM    2  C   UNL     1     -13.006  14.676  70.599  1.00  0.00    -0.367 C  
ENDROOT
BRANCH   2   3
HETATM    3  C   UNL     1     -11.690  14.390  69.877  1.00  0.00    -0.303 C  
BRANCH   3   4
HETATM    4  N   UNL     1     -11.957  13.653  68.644  1.00  0.00    -0.364 NA 
HETATM    5  H   UNL     1     -12.696  12.960  68.766  1.00  0.00     0.000 HD 
BRANCH   4   6
HETATM    6  C   UNL     1     -12.255  14.586  67.549  1.00  0.00    -0.121 C  
BRANCH   6   7
HETATM    7  C   UNL     1     -12.362  13.844  66.204  1.00  0.00    -0.465 C  
HETATM    8  O   UNL     1     -13.436  14.382  65.416  1.00  0.00    -0.534 OA 
HETATM    9  H   UNL     1     -13.501  13.924  64.587  1.00  0.00     0.000 HD 
BRANCH   7  10
HETATM   10  C   UNL     1     -11.051  13.948  65.416  1.00  0.00    -0.310 C  
BRANCH  10  11
HETATM   11  O   UNL     1     -10.200  12.835  65.748  1.00  0.00    -0.280 OA 
BRANCH  11  12
HETATM   12  C   UNL     1      -9.178  13.122  66.617  1.00  0.00    -0.215 A  
HETATM   13  C   UNL     1      -8.679  12.107  67.460  1.00  0.00    -0.173 A  
HETATM   14  C   UNL     1      -8.661  14.421  66.734  1.00  0.00    -0.187 A  
HETATM   15  C   UNL     1      -7.634  12.406  68.349  1.00  0.00    -0.129 A  
HETATM   16  C   UNL     1      -7.636  14.706  67.635  1.00  0.00    -0.198 A  
HETATM   17  C   UNL     1      -7.119  13.700  68.439  1.00  0.00    -0.107 A  
BRANCH  13  18
HETATM   18  C   UNL     1      -9.213  10.706  67.417  1.00  0.00    -0.143 C  
HETATM   19  O   UNL     1      -8.681   9.860  66.702  1.00  0.00    -0.127 OA 
BRANCH  18  20
HETATM   20  C   UNL     1     -10.370  10.324  68.332  1.00  0.00    -0.202 C  
BRANCH  20  21
HETATM   21  C   UNL     1      -9.893   9.823  69.691  1.00  0.00    -0.241 C  
BRANCH  21  22
HETATM   22  C   UNL     1      -9.713   8.324  69.723  1.00  0.00    -0.180 A  
HETATM   23  C   UNL     1     -10.775   7.471  69.389  1.00  0.00    -0.200 A  
HETATM   24  C   UNL     1     -10.600   6.086  69.396  1.00  0.00    -0.365 A  
HETATM   25  C   UNL     1      -9.366   5.540  69.741  1.00  0.00    -0.181 A  
HETATM   26  C   UNL     1      -8.308   6.379  70.087  1.00  0.00    -0.134 A  
HETATM   27  C   UNL     1      -8.480   7.764  70.082  1.00  0.00    -0.134 A  
ENDBRANCH  21  22
ENDBRANCH  20  21
ENDBRANCH  18  20
ENDBRANCH  13  18
ENDBRANCH  11  12
ENDBRANCH  10  11
ENDBRANCH   7  10
ENDBRANCH   6   7
ENDBRANCH   4   6
ENDBRANCH   3   4
ENDBRANCH   2   3
TORSDOF 11
ENDMDL
MODEL      287
REMARK 921   NORMALIZED FREE ENERGY PREDICTED BY IDOCK:   -3.91 KCAL/MOL
REMARK 922        TOTAL FREE ENERGY PREDICTED BY IDOCK:   -7.44 KCAL/MOL
REMARK 923 INTER-LIGAND FREE ENERGY PREDICTED BY IDOCK:   -5.53 KCAL/MOL
REMARK 924 INTRA-LIGAND FREE ENERGY PREDICTED BY IDOCK:   -1.91 KCAL/MOL
REMARK 927      BINDING AFFINITY PREDICTED BY RF-SCORE:    0.00 PKD
ROOT
HETATM    1  C   UNL     1      -9.426  13.514  67.740  1.00  0.00    -0.216 C  
HETATM    2  C   UNL     1      -9.225  12.072  68.178  1.00  0.00    -0.195 C  
ENDROOT
BRANCH   2   3
HETATM    3  C   UNL     1      -9.783  11.096  67.143  1.00  0.00    -0.177 C  
BRANCH   3   4
HETATM    4  N   UNL     1      -8.908   9.929  67.046  1.00  0.00    -0.134 NA 
HETATM    5  H   UNL     1      -9.230   9.270  66.337  1.00  0.00     0.000 HD 
BRANCH   4   6
HETATM    6  C   UNL     1      -7.521  10.352  66.811  1.00  0.00    -0.110 C  
BRANCH   6   7
HETATM    7  C   UNL     1      -6.529   9.260  67.248  1.00  0.00    -0.060 C  
HETATM    8  O   UNL     1      -6.293   9.331  68.663  1.00  0.00    -0.048 OA 
HETATM    9  H   UNL     1      -5.680   8.656  68.932  1.00  0.00     0.000 HD 
BRANCH   7  10
HETATM   10  C   UNL     1      -7.057   7.865  66.890  1.00  0.00    -0.078 C  
BRANCH  10  11
HETATM   11  O   UNL     1      -7.601   7.240  68.069  1.00  0.00    -0.109 OA 
BRANCH  11  12
HETATM   12  C   UNL     1      -7.986   5.933  67.910  1.00  0.00    -0.105 A  
HETATM   13  C   UNL     1      -9.343   5.586  68.074  1.00  0.00    -0.120 A  
HETATM   14  C   UNL     1      -7.049   4.920  67.654  1.00  0.00    -0.062 A  
HETATM   15  C   UNL     1      -9.733   4.246  67.912  1.00  0.00    -0.172 A  
HETATM   16  C   UNL     1      -7.449   3.592  67.515  1.00  0.00    -0.067 A  
HETATM   17  C   UNL     1      -8.790   3.254  67.639  1.00  0.00    -0.157 A  
BRANCH  13  18
HETATM   18  C   UNL     1     -10.392   6.611  68.389  1.00  0.00    -0.193 C  
HETATM   19  O   UNL     1     -10.731   7.433  67.541  1.00  0.00    -0.256 OA 
BRANCH  18  20
HETATM   20  C   UNL     1     -11.090   6.567  69.742  1.00  0.00    -0.430 C  
BRANCH  20  21
HETATM   21  C   UNL     1     -10.491   7.558  70.735  1.00  0.00    -0.217 C  
BRANCH  21  22
HETATM   22  C   UNL     1     -11.431   8.699  71.049  1.00  0.00    -0.324 A  
HETATM   23  C   UNL     1     -11.242   9.959  70.464  1.00  0.00    -0.399 A  
HETATM   24  C   UNL     1     -12.125  11.006  70.736  1.00  0.00    -0.467 A  
HETATM   25  C   UNL     1     -13.201  10.805  71.598  1.00  0.00    -0.487 A  
HETATM   26  C   UNL     1     -13.389   9.560  72.195  1.00  0.00    -0.545 A  
HETATM   27  C   UNL     1     -12.507   8.512  71.925  1.00  0.00    -0.402 A  
ENDBRANCH  21  22
ENDBRANCH  20  21
ENDBRANCH  18  20
ENDBRANCH  13  18
ENDBRANCH  11  12
ENDBRANCH  10  11
ENDBRANCH   7  10
ENDBRANCH   6   7
ENDBRANCH   4   6
ENDBRANCH   3   4
ENDBRANCH   2   3
TORSDOF 11
ENDMDL
MODEL      288
REMARK 921   NORMALIZED FREE ENERGY PREDICTED BY IDOCK:   -3.90 KCAL/MOL
REMARK 922        TOTAL FREE ENERGY PREDICTED BY IDOCK:   -7.43 KCAL/MOL
REMARK 923 INTER-LIGAND FREE ENERGY PREDICTED BY IDOCK:   -5.59 KCAL/MOL
REMARK 924 INTRA-LIGAND FREE ENERGY PREDICTED BY IDOCK:   -1.84 KCAL/MOL
REMARK 927      BINDING AFFINITY PREDICTED BY RF-SCORE:    0.00 PKD
ROOT
HETATM    1  C   UNL     1      -9.611   4.533  70.911  1.00  0.00    -0.250 C  
HETATM    2  C   UNL     1      -9.432   5.289  72.218  1.00  0.00    -0.164 C  
ENDROOT
BRANCH   2   3
HETATM    3  C   UNL     1     -10.308   6.541  72.258  1.00  0.00    -0.191 C  
BRANCH   3   4
HETATM    4  N   UNL     1      -9.534   7.666  72.780  1.00  0.00    -0.169 NA 
HETATM    5  H   UNL     1      -9.916   8.015  73.659  1.00  0.00     0.000 HD 
BRANCH   4   6
HETATM    6  C   UNL     1      -8.118   7.294  72.905  1.00  0.00    -0.106 C  
BRANCH   6   7
HETATM    7  C   UNL     1      -7.204   8.501  72.627  1.00  0.00    -0.025 C  
HETATM    8  O   UNL     1      -5.979   8.386  73.368  1.00  0.00    -0.081 OA 
HETATM    9  H   UNL     1      -5.415   9.131  73.195  1.00  0.00     0.000 HD 
BRANCH   7  10
HETATM   10  C   UNL     1      -6.884   8.612  71.131  1.00  0.00    -0.071 C  
BRANCH  10  11
HETATM   11  O   UNL     1      -8.036   9.121  70.430  1.00  0.00    -0.108 OA 
BRANCH  11  12
HETATM   12  C   UNL     1      -8.582   8.264  69.509  1.00  0.00    -0.134 A  
HETATM   13  C   UNL     1      -9.960   8.345  69.219  1.00  0.00    -0.195 A  
HETATM   14  C   UNL     1      -7.814   7.261  68.897  1.00  0.00    -0.118 A  
HETATM   15  C   UNL     1     -10.516   7.464  68.276  1.00  0.00    -0.231 A  
HETATM   16  C   UNL     1      -8.386   6.382  67.978  1.00  0.00    -0.115 A  
HETATM   17  C   UNL     1      -9.734   6.486  67.663  1.00  0.00    -0.137 A  
BRANCH  13  18
HETATM   18  C   UNL     1     -10.848   9.366  69.866  1.00  0.00    -0.236 C  
HETATM   19  O   UNL     1     -11.525   9.067  70.847  1.00  0.00    -0.272 OA 
BRANCH  18  20
HETATM   20  C   UNL     1     -10.839  10.797  69.344  1.00  0.00    -0.289 C  
BRANCH  20  21
HETATM   21  C   UNL     1     -12.017  11.612  69.868  1.00  0.00    -0.414 C  
BRANCH  21  22
HETATM   22  C   UNL     1     -11.887  13.083  69.549  1.00  0.00    -0.385 A  
HETATM   23  C   UNL     1     -12.134  14.050  70.534  1.00  0.00    -0.424 A  
HETATM   24  C   UNL     1     -11.991  15.409  70.245  1.00  0.00    -0.386 A  
HETATM   25  C   UNL     1     -11.605  15.814  68.969  1.00  0.00    -0.406 A  
HETATM   26  C   UNL     1     -11.370  14.861  67.980  1.00  0.00    -0.337 A  
HETATM   27  C   UNL     1     -11.514  13.502  68.266  1.00  0.00    -0.345 A  
ENDBRANCH  21  22
ENDBRANCH  20  21
ENDBRANCH  18  20
ENDBRANCH  13  18
ENDBRANCH  11  12
ENDBRANCH  10  11
ENDBRANCH   7  10
ENDBRANCH   6   7
ENDBRANCH   4   6
ENDBRANCH   3   4
ENDBRANCH   2   3
TORSDOF 11
ENDMDL
MODEL      289
REMARK 921   NORMALIZED FREE ENERGY PREDICTED BY IDOCK:   -3.90 KCAL/MOL
REMARK 922        TOTAL FREE ENERGY PREDICTED BY IDOCK:   -7.42 KCAL/MOL
REMARK 923 INTER-LIGAND FREE ENERGY PREDICTED BY IDOCK:   -5.31 KCAL/MOL
REMARK 924 INTRA-LIGAND FREE ENERGY PREDICTED BY IDOCK:   -2.12 KCAL/MOL
REMARK 927      BINDING AFFINITY PREDICTED BY RF-SCORE:    0.00 PKD
ROOT
HETATM    1  C   UNL     1      -6.722   7.534  72.744  1.00  0.00    -0.065 C  
HETATM    2  C   UNL     1      -8.038   6.821  73.011  1.00  0.00    -0.113 C  
ENDROOT
BRANCH   2   3
HETATM    3  C   UNL     1      -9.011   7.723  73.769  1.00  0.00    -0.277 C  
BRANCH   3   4
HETATM    4  N   UNL     1     -10.277   7.801  73.043  1.00  0.00    -0.305 NA 
HETATM    5  H   UNL     1     -10.410   8.714  72.606  1.00  0.00     0.000 HD 
BRANCH   4   6
HETATM    6  C   UNL     1     -10.371   6.707  72.066  1.00  0.00    -0.197 C  
BRANCH   6   7
HETATM    7  C   UNL     1     -11.802   6.580  71.514  1.00  0.00    -0.333 C  
HETATM    8  O   UNL     1     -12.762   6.967  72.510  1.00  0.00    -0.471 OA 
HETATM    9  H   UNL     1     -13.645   6.889  72.169  1.00  0.00     0.000 HD 
BRANCH   7  10
HETATM   10  C   UNL     1     -11.987   7.450  70.266  1.00  0.00     0.061 C  
BRANCH  10  11
HETATM   11  O   UNL     1     -10.979   8.480  70.243  1.00  0.00    -0.242 OA 
BRANCH  11  12
HETATM   12  C   UNL     1     -11.457   9.764  70.289  1.00  0.00    -0.255 A  
HETATM   13  C   UNL     1     -11.165  10.650  69.231  1.00  0.00    -0.332 A  
HETATM   14  C   UNL     1     -12.174  10.238  71.397  1.00  0.00    -0.481 A  
HETATM   15  C   UNL     1     -11.654  11.966  69.283  1.00  0.00    -0.376 A  
HETATM   16  C   UNL     1     -12.637  11.553  71.442  1.00  0.00    -0.419 A  
HETATM   17  C   UNL     1     -12.382  12.416  70.385  1.00  0.00    -0.307 A  
BRANCH  13  18
HETATM   18  C   UNL     1     -10.368  10.223  68.034  1.00  0.00    -0.181 C  
HETATM   19  O   UNL     1     -10.886   9.536  67.157  1.00  0.00    -0.224 OA 
BRANCH  18  20
HETATM   20  C   UNL     1      -8.936  10.719  67.880  1.00  0.00    -0.139 C  
BRANCH  20  21
HETATM   21  C   UNL     1      -7.958   9.950  68.762  1.00  0.00    -0.093 C  
BRANCH  21  22
HETATM   22  C   UNL     1      -7.784   8.517  68.318  1.00  0.00    -0.102 A  
HETATM   23  C   UNL     1      -7.468   8.217  66.985  1.00  0.00    -0.088 A  
HETATM   24  C   UNL     1      -7.283   6.893  66.581  1.00  0.00    -0.076 A  
HETATM   25  C   UNL     1      -7.418   5.857  67.502  1.00  0.00    -0.078 A  
HETATM   26  C   UNL     1      -7.745   6.144  68.826  1.00  0.00    -0.096 A  
HETATM   27  C   UNL     1      -7.932   7.467  69.233  1.00  0.00    -0.118 A  
ENDBRANCH  21  22
ENDBRANCH  20  21
ENDBRANCH  18  20
ENDBRANCH  13  18
ENDBRANCH  11  12
ENDBRANCH  10  11
ENDBRANCH   7  10
ENDBRANCH   6   7
ENDBRANCH   4   6
ENDBRANCH   3   4
ENDBRANCH   2   3
TORSDOF 11
ENDMDL
MODEL      290
REMARK 921   NORMALIZED FREE ENERGY PREDICTED BY IDOCK:   -3.90 KCAL/MOL
REMARK 922        TOTAL FREE ENERGY PREDICTED BY IDOCK:   -7.42 KCAL/MOL
REMARK 923 INTER-LIGAND FREE ENERGY PREDICTED BY IDOCK:   -5.76 KCAL/MOL
REMARK 924 INTRA-LIGAND FREE ENERGY PREDICTED BY IDOCK:   -1.66 KCAL/MOL
REMARK 927      BINDING AFFINITY PREDICTED BY RF-SCORE:    0.00 PKD
ROOT
HETATM    1  C   UNL     1     -11.744  14.858  68.703  1.00  0.00    -0.358 C  
HETATM    2  C   UNL     1     -11.687  14.396  67.255  1.00  0.00    -0.429 C  
ENDROOT
BRANCH   2   3
HETATM    3  C   UNL     1     -10.939  13.070  67.126  1.00  0.00    -0.269 C  
BRANCH   3   4
HETATM    4  N   UNL     1     -11.735  12.132  66.336  1.00  0.00    -0.560 NA 
HETATM    5  H   UNL     1     -12.719  12.148  66.604  1.00  0.00     0.000 HD 
BRANCH   4   6
HETATM    6  C   UNL     1     -11.552  12.392  64.902  1.00  0.00    -0.343 C  
BRANCH   6   7
HETATM    7  C   UNL     1     -10.537  11.412  64.287  1.00  0.00    -0.355 C  
HETATM    8  O   UNL     1      -9.454  12.129  63.674  1.00  0.00    -0.556 OA 
HETATM    9  H   UNL     1      -8.827  11.523  63.295  1.00  0.00     0.000 HD 
BRANCH   7  10
HETATM   10  C   UNL     1      -9.979  10.461  65.352  1.00  0.00    -0.295 C  
BRANCH  10  11
HETATM   11  O   UNL     1      -9.065   9.533  64.738  1.00  0.00    -0.220 OA 
BRANCH  11  12
HETATM   12  C   UNL     1      -7.865   9.383  65.386  1.00  0.00    -0.104 A  
HETATM   13  C   UNL     1      -7.442   8.094  65.769  1.00  0.00    -0.080 A  
HETATM   14  C   UNL     1      -7.079  10.491  65.736  1.00  0.00    -0.124 A  
HETATM   15  C   UNL     1      -6.213   7.944  66.434  1.00  0.00    -0.046 A  
HETATM   16  C   UNL     1      -5.871  10.327  66.413  1.00  0.00    -0.066 A  
HETATM   17  C   UNL     1      -5.435   9.055  66.758  1.00  0.00    -0.040 A  
BRANCH  13  18
HETATM   18  C   UNL     1      -8.252   6.869  65.464  1.00  0.00    -0.135 C  
HETATM   19  O   UNL     1      -8.228   6.372  64.340  1.00  0.00    -0.106 OA 
BRANCH  18  20
HETATM   20  C   UNL     1      -9.038   6.200  66.584  1.00  0.00    -0.146 C  
BRANCH  20  21
HETATM   21  C   UNL     1     -10.247   7.024  67.015  1.00  0.00    -0.330 C  
BRANCH  21  22
HETATM   22  C   UNL     1      -9.947   7.913  68.198  1.00  0.00    -0.210 A  
HETATM   23  C   UNL     1     -10.722   9.056  68.445  1.00  0.00    -0.145 A  
HETATM   24  C   UNL     1     -10.459   9.865  69.552  1.00  0.00    -0.261 A  
HETATM   25  C   UNL     1      -9.418   9.543  70.420  1.00  0.00    -0.317 A  
HETATM   26  C   UNL     1      -8.634   8.416  70.177  1.00  0.00    -0.131 A  
HETATM   27  C   UNL     1      -8.894   7.607  69.069  1.00  0.00    -0.135 A  
ENDBRANCH  21  22
ENDBRANCH  20  21
ENDBRANCH  18  20
ENDBRANCH  13  18
ENDBRANCH  11  12
ENDBRANCH  10  11
ENDBRANCH   7  10
ENDBRANCH   6   7
ENDBRANCH   4   6
ENDBRANCH   3   4
ENDBRANCH   2   3
TORSDOF 11
ENDMDL
MODEL      291
REMARK 921   NORMALIZED FREE ENERGY PREDICTED BY IDOCK:   -3.88 KCAL/MOL
REMARK 922        TOTAL FREE ENERGY PREDICTED BY IDOCK:   -7.39 KCAL/MOL
REMARK 923 INTER-LIGAND FREE ENERGY PREDICTED BY IDOCK:   -6.85 KCAL/MOL
REMARK 924 INTRA-LIGAND FREE ENERGY PREDICTED BY IDOCK:   -0.54 KCAL/MOL
REMARK 927      BINDING AFFINITY PREDICTED BY RF-SCORE:    0.00 PKD
ROOT
HETATM    1  C   UNL     1      -8.472   3.753  63.603  1.00  0.00    -0.092 C  
HETATM    2  C   UNL     1      -9.610   3.163  64.422  1.00  0.00    -0.151 C  
ENDROOT
BRANCH   2   3
HETATM    3  C   UNL     1      -9.758   3.882  65.762  1.00  0.00    -0.165 C  
BRANCH   3   4
HETATM    4  N   UNL     1     -10.840   4.861  65.678  1.00  0.00    -0.723 NA 
HETATM    5  H   UNL     1     -11.758   4.415  65.683  1.00  0.00     0.000 HD 
BRANCH   4   6
HETATM    6  C   UNL     1     -10.709   5.857  66.750  1.00  0.00    -0.299 C  
BRANCH   6   7
HETATM    7  C   UNL     1     -10.283   5.194  68.072  1.00  0.00    -0.115 C  
HETATM    8  O   UNL     1      -8.852   5.169  68.185  1.00  0.00    -0.102 OA 
HETATM    9  H   UNL     1      -8.590   4.760  69.001  1.00  0.00     0.000 HD 
BRANCH   7  10
HETATM   10  C   UNL     1     -10.875   5.941  69.274  1.00  0.00    -0.344 C  
BRANCH  10  11
HETATM   11  O   UNL     1     -10.810   7.361  69.038  1.00  0.00    -0.184 OA 
BRANCH  11  12
HETATM   12  C   UNL     1     -11.378   8.140  70.013  1.00  0.00     0.000 A  
HETATM   13  C   UNL     1     -11.191   9.537  69.980  1.00  0.00    -0.243 A  
HETATM   14  C   UNL     1     -12.087   7.571  71.083  1.00  0.00    -0.335 A  
HETATM   15  C   UNL     1     -11.772  10.331  70.983  1.00  0.00    -0.461 A  
HETATM   16  C   UNL     1     -12.642   8.372  72.080  1.00  0.00    -0.412 A  
HETATM   17  C   UNL     1     -12.490   9.751  72.029  1.00  0.00    -0.390 A  
BRANCH  13  18
HETATM   18  C   UNL     1     -10.410  10.208  68.889  1.00  0.00    -0.206 C  
HETATM   19  O   UNL     1      -9.182  10.229  68.926  1.00  0.00    -0.156 OA 
BRANCH  18  20
HETATM   20  C   UNL     1     -11.154  10.790  67.694  1.00  0.00    -0.384 C  
BRANCH  20  21
HETATM   21  C   UNL     1     -11.641  12.212  67.951  1.00  0.00    -0.413 C  
BRANCH  21  22
HETATM   22  C   UNL     1     -10.693  13.254  67.407  1.00  0.00    -0.266 A  
HETATM   23  C   UNL     1     -10.777  13.664  66.068  1.00  0.00    -0.280 A  
HETATM   24  C   UNL     1      -9.916  14.645  65.572  1.00  0.00    -0.384 A  
HETATM   25  C   UNL     1      -8.961  15.221  66.406  1.00  0.00    -0.339 A  
HETATM   26  C   UNL     1      -8.861  14.812  67.734  1.00  0.00    -0.175 A  
HETATM   27  C   UNL     1      -9.720  13.830  68.233  1.00  0.00    -0.231 A  
ENDBRANCH  21  22
ENDBRANCH  20  21
ENDBRANCH  18  20
ENDBRANCH  13  18
ENDBRANCH  11  12
ENDBRANCH  10  11
ENDBRANCH   7  10
ENDBRANCH   6   7
ENDBRANCH   4   6
ENDBRANCH   3   4
ENDBRANCH   2   3
TORSDOF 11
ENDMDL
MODEL      292
REMARK 921   NORMALIZED FREE ENERGY PREDICTED BY IDOCK:   -3.87 KCAL/MOL
REMARK 922        TOTAL FREE ENERGY PREDICTED BY IDOCK:   -7.37 KCAL/MOL
REMARK 923 INTER-LIGAND FREE ENERGY PREDICTED BY IDOCK:   -6.49 KCAL/MOL
REMARK 924 INTRA-LIGAND FREE ENERGY PREDICTED BY IDOCK:   -0.88 KCAL/MOL
REMARK 927      BINDING AFFINITY PREDICTED BY RF-SCORE:    0.00 PKD
ROOT
HETATM    1  C   UNL     1     -12.691  11.611  71.653  1.00  0.00    -0.375 C  
HETATM    2  C   UNL     1     -12.900  11.013  70.271  1.00  0.00    -0.178 C  
ENDROOT
BRANCH   2   3
HETATM    3  C   UNL     1     -11.690  10.185  69.838  1.00  0.00    -0.179 C  
BRANCH   3   4
HETATM    4  N   UNL     1     -11.620  10.144  68.379  1.00  0.00    -0.632 NA 
HETATM    5  H   UNL     1     -12.448   9.710  67.969  1.00  0.00     0.000 HD 
BRANCH   4   6
HETATM    6  C   UNL     1     -11.386  11.492  67.843  1.00  0.00    -0.303 C  
BRANCH   6   7
HETATM    7  C   UNL     1     -10.283  12.218  68.635  1.00  0.00    -0.165 C  
HETATM    8  O   UNL     1      -8.990  11.916  68.089  1.00  0.00    -0.174 OA 
HETATM    9  H   UNL     1      -8.310  12.364  68.579  1.00  0.00     0.000 HD 
BRANCH   7  10
HETATM   10  C   UNL     1     -10.502  13.735  68.613  1.00  0.00    -0.239 C  
BRANCH  10  11
HETATM   11  O   UNL     1      -9.522  14.351  67.755  1.00  0.00    -0.204 OA 
BRANCH  11  12
HETATM   12  C   UNL     1     -10.031  15.185  66.793  1.00  0.00    -0.239 A  
HETATM   13  C   UNL     1     -10.087  16.573  67.040  1.00  0.00    -0.279 A  
HETATM   14  C   UNL     1     -10.560  14.683  65.595  1.00  0.00    -0.344 A  
HETATM   15  C   UNL     1     -10.611  17.424  66.053  1.00  0.00    -0.210 A  
HETATM   16  C   UNL     1     -11.094  15.540  64.633  1.00  0.00    -0.373 A  
HETATM   17  C   UNL     1     -11.116  16.910  64.858  1.00  0.00     0.029 A  
BRANCH  13  18
HETATM   18  C   UNL     1      -9.577  17.174  68.316  1.00  0.00    -0.280 C  
HETATM   19  O   UNL     1     -10.011  16.791  69.400  1.00  0.00    -0.228 OA 
BRANCH  18  20
HETATM   20  C   UNL     1      -8.458  18.205  68.255  1.00  0.00    -0.294 C  
BRANCH  20  21
HETATM   21  C   UNL     1      -7.299  17.752  67.374  1.00  0.00    -0.202 C  
BRANCH  21  22
HETATM   22  C   UNL     1      -6.776  18.862  66.493  1.00  0.00    -0.215 A  
HETATM   23  C   UNL     1      -6.662  20.170  66.987  1.00  0.00    -0.259 A  
HETATM   24  C   UNL     1      -6.156  21.190  66.179  1.00  0.00    -0.309 A  
HETATM   25  C   UNL     1      -5.763  20.916  64.871  1.00  0.00    -0.274 A  
HETATM   26  C   UNL     1      -5.884  19.622  64.367  1.00  0.00    -0.311 A  
HETATM   27  C   UNL     1      -6.392  18.600  65.172  1.00  0.00    -0.247 A  
ENDBRANCH  21  22
ENDBRANCH  20  21
ENDBRANCH  18  20
ENDBRANCH  13  18
ENDBRANCH  11  12
ENDBRANCH  10  11
ENDBRANCH   7  10
ENDBRANCH   6   7
ENDBRANCH   4   6
ENDBRANCH   3   4
ENDBRANCH   2   3
TORSDOF 11
ENDMDL
MODEL      293
REMARK 921   NORMALIZED FREE ENERGY PREDICTED BY IDOCK:   -3.87 KCAL/MOL
REMARK 922        TOTAL FREE ENERGY PREDICTED BY IDOCK:   -7.37 KCAL/MOL
REMARK 923 INTER-LIGAND FREE ENERGY PREDICTED BY IDOCK:   -5.53 KCAL/MOL
REMARK 924 INTRA-LIGAND FREE ENERGY PREDICTED BY IDOCK:   -1.84 KCAL/MOL
REMARK 927      BINDING AFFINITY PREDICTED BY RF-SCORE:    0.00 PKD
ROOT
HETATM    1  C   UNL     1     -10.333  11.572  64.288  1.00  0.00    -0.376 C  
HETATM    2  C   UNL     1     -10.496  10.971  65.676  1.00  0.00    -0.293 C  
ENDROOT
BRANCH   2   3
HETATM    3  C   UNL     1     -11.329  11.881  66.577  1.00  0.00    -0.341 C  
BRANCH   3   4
HETATM    4  N   UNL     1     -11.907  11.097  67.667  1.00  0.00    -0.603 NA 
HETATM    5  H   UNL     1     -12.372  10.256  67.326  1.00  0.00     0.000 HD 
BRANCH   4   6
HETATM    6  C   UNL     1     -10.880  10.787  68.671  1.00  0.00    -0.220 C  
BRANCH   6   7
HETATM    7  C   UNL     1     -11.512  10.197  69.944  1.00  0.00    -0.254 C  
HETATM    8  O   UNL     1     -12.943  10.310  69.895  1.00  0.00    -0.541 OA 
HETATM    9  H   UNL     1     -13.332   9.945  70.681  1.00  0.00     0.000 HD 
BRANCH   7  10
HETATM   10  C   UNL     1     -11.124   8.723  70.115  1.00  0.00    -0.202 C  
BRANCH  10  11
HETATM   11  O   UNL     1      -9.770   8.527  69.665  1.00  0.00    -0.175 OA 
BRANCH  11  12
HETATM   12  C   UNL     1      -9.453   7.239  69.317  1.00  0.00    -0.153 A  
HETATM   13  C   UNL     1      -8.110   6.814  69.383  1.00  0.00    -0.123 A  
HETATM   14  C   UNL     1     -10.426   6.352  68.831  1.00  0.00    -0.264 A  
HETATM   15  C   UNL     1      -7.789   5.494  69.024  1.00  0.00    -0.091 A  
HETATM   16  C   UNL     1     -10.088   5.051  68.460  1.00  0.00    -0.184 A  
HETATM   17  C   UNL     1      -8.772   4.620  68.560  1.00  0.00    -0.113 A  
BRANCH  13  18
HETATM   18  C   UNL     1      -7.013   7.721  69.854  1.00  0.00    -0.050 C  
HETATM   19  O   UNL     1      -6.202   8.183  69.055  1.00  0.00    -0.038 OA 
BRANCH  18  20
HETATM   20  C   UNL     1      -6.965   8.129  71.321  1.00  0.00    -0.056 C  
BRANCH  20  21
HETATM   21  C   UNL     1      -7.035   6.928  72.259  1.00  0.00    -0.062 C  
BRANCH  21  22
HETATM   22  C   UNL     1      -8.454   6.573  72.636  1.00  0.00    -0.121 A  
HETATM   23  C   UNL     1      -9.330   7.556  73.120  1.00  0.00    -0.258 A  
HETATM   24  C   UNL     1     -10.649   7.231  73.445  1.00  0.00    -0.435 A  
HETATM   25  C   UNL     1     -11.102   5.922  73.296  1.00  0.00    -0.216 A  
HETATM   26  C   UNL     1     -10.236   4.936  72.828  1.00  0.00    -0.227 A  
HETATM   27  C   UNL     1      -8.916   5.258  72.504  1.00  0.00    -0.134 A  
ENDBRANCH  21  22
ENDBRANCH  20  21
ENDBRANCH  18  20
ENDBRANCH  13  18
ENDBRANCH  11  12
ENDBRANCH  10  11
ENDBRANCH   7  10
ENDBRANCH   6   7
ENDBRANCH   4   6
ENDBRANCH   3   4
ENDBRANCH   2   3
TORSDOF 11
ENDMDL
MODEL      294
REMARK 921   NORMALIZED FREE ENERGY PREDICTED BY IDOCK:   -3.85 KCAL/MOL
REMARK 922        TOTAL FREE ENERGY PREDICTED BY IDOCK:   -7.34 KCAL/MOL
REMARK 923 INTER-LIGAND FREE ENERGY PREDICTED BY IDOCK:   -5.56 KCAL/MOL
REMARK 924 INTRA-LIGAND FREE ENERGY PREDICTED BY IDOCK:   -1.78 KCAL/MOL
REMARK 927      BINDING AFFINITY PREDICTED BY RF-SCORE:    0.00 PKD
ROOT
HETATM    1  C   UNL     1     -11.200  15.676  70.719  1.00  0.00    -0.396 C  
HETATM    2  C   UNL     1     -11.577  16.057  69.296  1.00  0.00    -0.331 C  
ENDROOT
BRANCH   2   3
HETATM    3  C   UNL     1     -10.818  15.209  68.276  1.00  0.00    -0.262 C  
BRANCH   3   4
HETATM    4  N   UNL     1     -11.690  14.906  67.143  1.00  0.00    -0.327 NA 
HETATM    5  H   UNL     1     -12.531  15.483  67.144  1.00  0.00     0.000 HD 
BRANCH   4   6
HETATM    6  C   UNL     1     -10.945  15.025  65.882  1.00  0.00    -0.343 C  
BRANCH   6   7
HETATM    7  C   UNL     1     -11.010  13.716  65.075  1.00  0.00    -0.346 C  
HETATM    8  O   UNL     1     -10.079  13.751  63.983  1.00  0.00    -0.649 OA 
HETATM    9  H   UNL     1     -10.120  12.943  63.485  1.00  0.00     0.000 HD 
BRANCH   7  10
HETATM   10  C   UNL     1     -10.703  12.507  65.967  1.00  0.00    -0.262 C  
BRANCH  10  11
HETATM   11  O   UNL     1      -9.431  12.700  66.616  1.00  0.00    -0.233 OA 
BRANCH  11  12
HETATM   12  C   UNL     1      -9.178  11.853  67.665  1.00  0.00    -0.183 A  
HETATM   13  C   UNL     1      -8.000  11.078  67.661  1.00  0.00    -0.115 A  
HETATM   14  C   UNL     1     -10.100  11.689  68.711  1.00  0.00    -0.169 A  
HETATM   15  C   UNL     1      -7.746  10.210  68.737  1.00  0.00    -0.088 A  
HETATM   16  C   UNL     1      -9.842  10.809  69.761  1.00  0.00     0.173 A  
HETATM   17  C   UNL     1      -8.664  10.073  69.778  1.00  0.00    -0.198 A  
BRANCH  13  18
HETATM   18  C   UNL     1      -6.992  11.172  66.555  1.00  0.00    -0.126 C  
HETATM   19  O   UNL     1      -6.108  12.025  66.592  1.00  0.00    -0.178 OA 
BRANCH  18  20
HETATM   20  C   UNL     1      -7.027  10.147  65.429  1.00  0.00    -0.139 C  
BRANCH  20  21
HETATM   21  C   UNL     1      -8.434   9.623  65.166  1.00  0.00    -0.159 C  
BRANCH  21  22
HETATM   22  C   UNL     1      -8.815   8.497  66.098  1.00  0.00    -0.200 A  
HETATM   23  C   UNL     1     -10.153   8.300  66.469  1.00  0.00    -0.303 A  
HETATM   24  C   UNL     1     -10.506   7.244  67.312  1.00  0.00    -0.380 A  
HETATM   25  C   UNL     1      -9.527   6.379  67.794  1.00  0.00    -0.115 A  
HETATM   26  C   UNL     1      -8.193   6.573  67.441  1.00  0.00    -0.121 A  
HETATM   27  C   UNL     1      -7.837   7.630  66.600  1.00  0.00    -0.106 A  
ENDBRANCH  21  22
ENDBRANCH  20  21
ENDBRANCH  18  20
ENDBRANCH  13  18
ENDBRANCH  11  12
ENDBRANCH  10  11
ENDBRANCH   7  10
ENDBRANCH   6   7
ENDBRANCH   4   6
ENDBRANCH   3   4
ENDBRANCH   2   3
TORSDOF 11
ENDMDL
MODEL      295
REMARK 921   NORMALIZED FREE ENERGY PREDICTED BY IDOCK:   -3.84 KCAL/MOL
REMARK 922        TOTAL FREE ENERGY PREDICTED BY IDOCK:   -7.33 KCAL/MOL
REMARK 923 INTER-LIGAND FREE ENERGY PREDICTED BY IDOCK:   -6.10 KCAL/MOL
REMARK 924 INTRA-LIGAND FREE ENERGY PREDICTED BY IDOCK:   -1.23 KCAL/MOL
REMARK 927      BINDING AFFINITY PREDICTED BY RF-SCORE:    0.00 PKD
ROOT
HETATM    1  C   UNL     1     -11.064   9.948  71.246  1.00  0.00    -0.302 C  
HETATM    2  C   UNL     1     -12.574   9.863  71.088  1.00  0.00    -0.464 C  
ENDROOT
BRANCH   2   3
HETATM    3  C   UNL     1     -13.225  11.236  71.243  1.00  0.00    -0.081 C  
BRANCH   3   4
HETATM    4  N   UNL     1     -12.238  12.281  70.972  1.00  0.00    -0.374 NA 
HETATM    5  H   UNL     1     -12.041  12.369  69.974  1.00  0.00     0.000 HD 
BRANCH   4   6
HETATM    6  C   UNL     1     -12.672  13.555  71.561  1.00  0.00    -0.322 C  
BRANCH   6   7
HETATM    7  C   UNL     1     -12.684  14.676  70.505  1.00  0.00    -0.337 C  
HETATM    8  O   UNL     1     -13.541  15.750  70.921  1.00  0.00    -0.738 OA 
HETATM    9  H   UNL     1     -13.548  16.441  70.270  1.00  0.00     0.000 HD 
BRANCH   7  10
HETATM   10  C   UNL     1     -11.269  15.218  70.267  1.00  0.00    -0.297 C  
BRANCH  10  11
HETATM   11  O   UNL     1     -10.640  14.471  69.208  1.00  0.00    -0.250 OA 
BRANCH  11  12
HETATM   12  C   UNL     1     -10.130  15.229  68.184  1.00  0.00    -0.229 A  
HETATM   13  C   UNL     1      -9.240  14.640  67.263  1.00  0.00    -0.212 A  
HETATM   14  C   UNL     1     -10.423  16.596  68.071  1.00  0.00    -0.320 A  
HETATM   15  C   UNL     1      -8.718  15.420  66.217  1.00  0.00    -0.240 A  
HETATM   16  C   UNL     1      -9.882  17.362  67.038  1.00  0.00    -0.286 A  
HETATM   17  C   UNL     1      -9.035  16.774  66.109  1.00  0.00    -0.295 A  
BRANCH  13  18
HETATM   18  C   UNL     1      -8.851  13.194  67.349  1.00  0.00    -0.204 C  
HETATM   19  O   UNL     1      -9.467  12.346  66.706  1.00  0.00    -0.215 OA 
BRANCH  18  20
HETATM   20  C   UNL     1      -7.634  12.799  68.176  1.00  0.00    -0.134 C  
BRANCH  20  21
HETATM   21  C   UNL     1      -6.956  11.540  67.645  1.00  0.00    -0.091 C  
BRANCH  21  22
HETATM   22  C   UNL     1      -7.378  10.298  68.394  1.00  0.00    -0.084 A  
HETATM   23  C   UNL     1      -7.465   9.063  67.735  1.00  0.00    -0.085 A  
HETATM   24  C   UNL     1      -7.832   7.911  68.434  1.00  0.00    -0.120 A  
HETATM   25  C   UNL     1      -8.119   7.983  69.795  1.00  0.00    -0.115 A  
HETATM   26  C   UNL     1      -8.049   9.208  70.456  1.00  0.00    -0.182 A  
HETATM   27  C   UNL     1      -7.684  10.361  69.759  1.00  0.00    -0.126 A  
ENDBRANCH  21  22
ENDBRANCH  20  21
ENDBRANCH  18  20
ENDBRANCH  13  18
ENDBRANCH  11  12
ENDBRANCH  10  11
ENDBRANCH   7  10
ENDBRANCH   6   7
ENDBRANCH   4   6
ENDBRANCH   3   4
ENDBRANCH   2   3
TORSDOF 11
ENDMDL
MODEL      296
REMARK 921   NORMALIZED FREE ENERGY PREDICTED BY IDOCK:   -3.84 KCAL/MOL
REMARK 922        TOTAL FREE ENERGY PREDICTED BY IDOCK:   -7.32 KCAL/MOL
REMARK 923 INTER-LIGAND FREE ENERGY PREDICTED BY IDOCK:   -6.20 KCAL/MOL
REMARK 924 INTRA-LIGAND FREE ENERGY PREDICTED BY IDOCK:   -1.13 KCAL/MOL
REMARK 927      BINDING AFFINITY PREDICTED BY RF-SCORE:    0.00 PKD
ROOT
HETATM    1  C   UNL     1     -10.249  11.556  63.533  1.00  0.00    -0.462 C  
HETATM    2  C   UNL     1     -10.920  11.406  64.890  1.00  0.00    -0.284 C  
ENDROOT
BRANCH   2   3
HETATM    3  C   UNL     1     -11.858  12.578  65.175  1.00  0.00    -0.405 C  
BRANCH   3   4
HETATM    4  N   UNL     1     -12.160  12.630  66.604  1.00  0.00    -0.539 NA 
HETATM    5  H   UNL     1     -12.813  11.897  66.883  1.00  0.00     0.000 HD 
BRANCH   4   6
HETATM    6  C   UNL     1     -10.918  12.584  67.388  1.00  0.00    -0.259 C  
BRANCH   6   7
HETATM    7  C   UNL     1     -11.047  11.609  68.573  1.00  0.00    -0.235 C  
HETATM    8  O   UNL     1     -12.331  10.966  68.557  1.00  0.00    -0.807 OA 
HETATM    9  H   UNL     1     -12.411  10.365  69.289  1.00  0.00     0.000 HD 
BRANCH   7  10
HETATM   10  C   UNL     1      -9.945  10.544  68.528  1.00  0.00    -0.170 C  
BRANCH  10  11
HETATM   11  O   UNL     1     -10.412   9.342  69.171  1.00  0.00    -0.210 OA 
BRANCH  11  12
HETATM   12  C   UNL     1      -9.507   8.739  70.007  1.00  0.00    -0.169 A  
HETATM   13  C   UNL     1      -9.738   7.418  70.441  1.00  0.00    -0.175 A  
HETATM   14  C   UNL     1      -8.390   9.433  70.497  1.00  0.00    -0.233 A  
HETATM   15  C   UNL     1      -8.810   6.805  71.300  1.00  0.00    -0.136 A  
HETATM   16  C   UNL     1      -7.488   8.817  71.364  1.00  0.00    -0.126 A  
HETATM   17  C   UNL     1      -7.694   7.503  71.761  1.00  0.00    -0.085 A  
BRANCH  13  18
HETATM   18  C   UNL     1     -10.933   6.632  69.990  1.00  0.00    -0.311 C  
HETATM   19  O   UNL     1     -11.983   6.678  70.626  1.00  0.00    -0.395 OA 
BRANCH  18  20
HETATM   20  C   UNL     1     -10.855   5.840  68.691  1.00  0.00    -0.270 C  
BRANCH  20  21
HETATM   21  C   UNL     1      -9.591   6.154  67.896  1.00  0.00    -0.118 C  
BRANCH  21  22
HETATM   22  C   UNL     1      -9.048   4.943  67.174  1.00  0.00    -0.122 A  
HETATM   23  C   UNL     1      -9.296   3.652  67.662  1.00  0.00    -0.246 A  
HETATM   24  C   UNL     1      -8.815   2.532  66.980  1.00  0.00    -0.151 A  
HETATM   25  C   UNL     1      -8.078   2.692  65.809  1.00  0.00    -0.084 A  
HETATM   26  C   UNL     1      -7.815   3.972  65.323  1.00  0.00    -0.089 A  
HETATM   27  C   UNL     1      -8.294   5.093  66.004  1.00  0.00    -0.116 A  
ENDBRANCH  21  22
ENDBRANCH  20  21
ENDBRANCH  18  20
ENDBRANCH  13  18
ENDBRANCH  11  12
ENDBRANCH  10  11
ENDBRANCH   7  10
ENDBRANCH   6   7
ENDBRANCH   4   6
ENDBRANCH   3   4
ENDBRANCH   2   3
TORSDOF 11
ENDMDL
MODEL      297
REMARK 921   NORMALIZED FREE ENERGY PREDICTED BY IDOCK:   -3.84 KCAL/MOL
REMARK 922        TOTAL FREE ENERGY PREDICTED BY IDOCK:   -7.32 KCAL/MOL
REMARK 923 INTER-LIGAND FREE ENERGY PREDICTED BY IDOCK:   -5.84 KCAL/MOL
REMARK 924 INTRA-LIGAND FREE ENERGY PREDICTED BY IDOCK:   -1.48 KCAL/MOL
REMARK 927      BINDING AFFINITY PREDICTED BY RF-SCORE:    0.00 PKD
ROOT
HETATM    1  C   UNL     1     -12.880   8.721  72.570  1.00  0.00    -0.380 C  
HETATM    2  C   UNL     1     -12.113   9.502  71.514  1.00  0.00    -0.468 C  
ENDROOT
BRANCH   2   3
HETATM    3  C   UNL     1     -13.028   9.924  70.365  1.00  0.00     0.085 C  
BRANCH   3   4
HETATM    4  N   UNL     1     -12.288  10.774  69.434  1.00  0.00    -0.631 NA 
HETATM    5  H   UNL     1     -12.901  11.203  68.740  1.00  0.00     0.000 HD 
BRANCH   4   6
HETATM    6  C   UNL     1     -11.508  11.777  70.172  1.00  0.00    -0.081 C  
BRANCH   6   7
HETATM    7  C   UNL     1     -12.290  13.096  70.306  1.00  0.00    -0.249 C  
HETATM    8  O   UNL     1     -11.880  13.806  71.485  1.00  0.00    -0.279 OA 
HETATM    9  H   UNL     1     -12.363  14.620  71.567  1.00  0.00     0.000 HD 
BRANCH   7  10
HETATM   10  C   UNL     1     -12.076  13.986  69.076  1.00  0.00    -0.323 C  
BRANCH  10  11
HETATM   11  O   UNL     1     -10.885  13.569  68.381  1.00  0.00    -0.250 OA 
BRANCH  11  12
HETATM   12  C   UNL     1     -11.062  13.259  67.057  1.00  0.00    -0.282 A  
HETATM   13  C   UNL     1     -10.019  12.627  66.348  1.00  0.00    -0.262 A  
HETATM   14  C   UNL     1     -12.233  13.617  66.372  1.00  0.00    -0.472 A  
HETATM   15  C   UNL     1     -10.203  12.313  64.991  1.00  0.00    -0.312 A  
HETATM   16  C   UNL     1     -12.393  13.315  65.020  1.00  0.00    -0.499 A  
HETATM   17  C   UNL     1     -11.382  12.659  64.330  1.00  0.00    -0.393 A  
BRANCH  13  18
HETATM   18  C   UNL     1      -8.724  12.253  67.007  1.00  0.00    -0.199 C  
HETATM   19  O   UNL     1      -7.802  13.062  67.068  1.00  0.00    -0.103 OA 
BRANCH  18  20
HETATM   20  C   UNL     1      -8.596  10.888  67.671  1.00  0.00    -0.124 C  
BRANCH  20  21
HETATM   21  C   UNL     1      -7.288  10.738  68.440  1.00  0.00    -0.092 C  
BRANCH  21  22
HETATM   22  C   UNL     1      -7.414   9.799  69.617  1.00  0.00    -0.113 A  
HETATM   23  C   UNL     1      -8.352   8.756  69.598  1.00  0.00    -0.126 A  
HETATM   24  C   UNL     1      -8.451   7.874  70.676  1.00  0.00    -0.125 A  
HETATM   25  C   UNL     1      -7.620   8.028  71.783  1.00  0.00    -0.095 A  
HETATM   26  C   UNL     1      -6.695   9.069  71.817  1.00  0.00    -0.003 A  
HETATM   27  C   UNL     1      -6.594   9.954  70.741  1.00  0.00    -0.069 A  
ENDBRANCH  21  22
ENDBRANCH  20  21
ENDBRANCH  18  20
ENDBRANCH  13  18
ENDBRANCH  11  12
ENDBRANCH  10  11
ENDBRANCH   7  10
ENDBRANCH   6   7
ENDBRANCH   4   6
ENDBRANCH   3   4
ENDBRANCH   2   3
TORSDOF 11
ENDMDL
MODEL      298
REMARK 921   NORMALIZED FREE ENERGY PREDICTED BY IDOCK:   -3.83 KCAL/MOL
REMARK 922        TOTAL FREE ENERGY PREDICTED BY IDOCK:   -7.31 KCAL/MOL
REMARK 923 INTER-LIGAND FREE ENERGY PREDICTED BY IDOCK:   -5.32 KCAL/MOL
REMARK 924 INTRA-LIGAND FREE ENERGY PREDICTED BY IDOCK:   -1.99 KCAL/MOL
REMARK 927      BINDING AFFINITY PREDICTED BY RF-SCORE:    0.00 PKD
ROOT
HETATM    1  C   UNL     1     -14.121   9.014  72.533  1.00  0.00    -0.428 C  
HETATM    2  C   UNL     1     -13.037   8.614  71.544  1.00  0.00    -0.339 C  
ENDROOT
BRANCH   2   3
HETATM    3  C   UNL     1     -12.004   9.728  71.375  1.00  0.00    -0.411 C  
BRANCH   3   4
HETATM    4  N   UNL     1     -11.473   9.703  70.014  1.00  0.00    -0.390 NA 
HETATM    5  H   UNL     1     -12.140   9.304  69.352  1.00  0.00     0.000 HD 
BRANCH   4   6
HETATM    6  C   UNL     1     -11.042  11.050  69.612  1.00  0.00    -0.256 C  
BRANCH   6   7
HETATM    7  C   UNL     1     -11.488  11.367  68.174  1.00  0.00    -0.305 C  
HETATM    8  O   UNL     1     -10.935  12.619  67.740  1.00  0.00    -0.220 OA 
HETATM    9  H   UNL     1     -11.210  12.814  66.852  1.00  0.00     0.000 HD 
BRANCH   7  10
HETATM   10  C   UNL     1     -11.053  10.257  67.209  1.00  0.00    -0.142 C  
BRANCH  10  11
HETATM   11  O   UNL     1      -9.854   9.631  67.704  1.00  0.00    -0.152 OA 
BRANCH  11  12
HETATM   12  C   UNL     1      -9.762   8.283  67.471  1.00  0.00    -0.165 A  
HETATM   13  C   UNL     1      -8.504   7.650  67.550  1.00  0.00    -0.116 A  
HETATM   14  C   UNL     1     -10.882   7.528  67.089  1.00  0.00    -0.298 A  
HETATM   15  C   UNL     1      -8.414   6.269  67.308  1.00  0.00    -0.108 A  
HETATM   16  C   UNL     1     -10.772   6.162  66.835  1.00  0.00    -0.413 A  
HETATM   17  C   UNL     1      -9.541   5.531  66.949  1.00  0.00    -0.149 A  
BRANCH  13  18
HETATM   18  C   UNL     1      -7.258   8.403  67.912  1.00  0.00    -0.091 C  
HETATM   19  O   UNL     1      -6.728   9.156  67.098  1.00  0.00    -0.064 OA 
BRANCH  18  20
HETATM   20  C   UNL     1      -6.705   8.287  69.327  1.00  0.00    -0.043 C  
BRANCH  20  21
HETATM   21  C   UNL     1      -7.577   9.006  70.351  1.00  0.00    -0.100 C  
BRANCH  21  22
HETATM   22  C   UNL     1      -8.259   8.051  71.302  1.00  0.00    -0.119 A  
HETATM   23  C   UNL     1      -8.225   6.668  71.068  1.00  0.00    -0.120 A  
HETATM   24  C   UNL     1      -8.834   5.784  71.961  1.00  0.00    -0.138 A  
HETATM   25  C   UNL     1      -9.487   6.272  73.090  1.00  0.00    -0.142 A  
HETATM   26  C   UNL     1      -9.538   7.645  73.324  1.00  0.00    -0.326 A  
HETATM   27  C   UNL     1      -8.931   8.532  72.432  1.00  0.00    -0.284 A  
ENDBRANCH  21  22
ENDBRANCH  20  21
ENDBRANCH  18  20
ENDBRANCH  13  18
ENDBRANCH  11  12
ENDBRANCH  10  11
ENDBRANCH   7  10
ENDBRANCH   6   7
ENDBRANCH   4   6
ENDBRANCH   3   4
ENDBRANCH   2   3
TORSDOF 11
ENDMDL
MODEL      299
REMARK 921   NORMALIZED FREE ENERGY PREDICTED BY IDOCK:   -3.83 KCAL/MOL
REMARK 922        TOTAL FREE ENERGY PREDICTED BY IDOCK:   -7.31 KCAL/MOL
REMARK 923 INTER-LIGAND FREE ENERGY PREDICTED BY IDOCK:   -6.11 KCAL/MOL
REMARK 924 INTRA-LIGAND FREE ENERGY PREDICTED BY IDOCK:   -1.20 KCAL/MOL
REMARK 927      BINDING AFFINITY PREDICTED BY RF-SCORE:    0.00 PKD
ROOT
HETATM    1  C   UNL     1     -10.223  16.541  65.824  1.00  0.00    -0.350 C  
HETATM    2  C   UNL     1     -10.330  15.106  66.317  1.00  0.00    -0.303 C  
ENDROOT
BRANCH   2   3
HETATM    3  C   UNL     1     -11.524  14.393  65.685  1.00  0.00    -0.336 C  
BRANCH   3   4
HETATM    4  N   UNL     1     -11.885  13.229  66.492  1.00  0.00    -0.380 NA 
HETATM    5  H   UNL     1     -12.895  13.142  66.606  1.00  0.00     0.000 HD 
BRANCH   4   6
HETATM    6  C   UNL     1     -11.291  12.011  65.923  1.00  0.00    -0.337 C  
BRANCH   6   7
HETATM    7  C   UNL     1     -10.590  11.177  67.011  1.00  0.00    -0.252 C  
HETATM    8  O   UNL     1      -9.297  11.725  67.310  1.00  0.00    -0.167 OA 
HETATM    9  H   UNL     1      -8.865  11.209  67.981  1.00  0.00     0.000 HD 
BRANCH   7  10
HETATM   10  C   UNL     1     -11.431  11.133  68.292  1.00  0.00    -0.303 C  
BRANCH  10  11
HETATM   11  O   UNL     1     -10.867  10.172  69.206  1.00  0.00    -0.212 OA 
BRANCH  11  12
HETATM   12  C   UNL     1     -11.660   9.850  70.277  1.00  0.00    -0.250 A  
HETATM   13  C   UNL     1     -11.629   8.537  70.792  1.00  0.00    -0.257 A  
HETATM   14  C   UNL     1     -12.554  10.779  70.831  1.00  0.00    -0.498 A  
HETATM   15  C   UNL     1     -12.446   8.211  71.888  1.00  0.00    -0.368 A  
HETATM   16  C   UNL     1     -13.371  10.434  71.906  1.00  0.00    -0.469 A  
HETATM   17  C   UNL     1     -13.314   9.153  72.439  1.00  0.00    -0.527 A  
BRANCH  13  18
HETATM   18  C   UNL     1     -10.729   7.482  70.222  1.00  0.00    -0.238 C  
HETATM   19  O   UNL     1     -11.056   6.866  69.211  1.00  0.00    -0.233 OA 
BRANCH  18  20
HETATM   20  C   UNL     1      -9.368   7.241  70.864  1.00  0.00    -0.159 C  
BRANCH  20  21
HETATM   21  C   UNL     1      -8.266   7.043  69.829  1.00  0.00    -0.131 C  
BRANCH  21  22
HETATM   22  C   UNL     1      -7.312   8.213  69.770  1.00  0.00    -0.065 A  
HETATM   23  C   UNL     1      -7.136   8.929  68.578  1.00  0.00    -0.072 A  
HETATM   24  C   UNL     1      -6.273  10.026  68.531  1.00  0.00    -0.045 A  
HETATM   25  C   UNL     1      -5.574  10.413  69.672  1.00  0.00    -0.039 A  
HETATM   26  C   UNL     1      -5.732   9.699  70.858  1.00  0.00    -0.071 A  
HETATM   27  C   UNL     1      -6.594   8.601  70.908  1.00  0.00    -0.049 A  
ENDBRANCH  21  22
ENDBRANCH  20  21
ENDBRANCH  18  20
ENDBRANCH  13  18
ENDBRANCH  11  12
ENDBRANCH  10  11
ENDBRANCH   7  10
ENDBRANCH   6   7
ENDBRANCH   4   6
ENDBRANCH   3   4
ENDBRANCH   2   3
TORSDOF 11
ENDMDL
MODEL      300
REMARK 921   NORMALIZED FREE ENERGY PREDICTED BY IDOCK:   -3.82 KCAL/MOL
REMARK 922        TOTAL FREE ENERGY PREDICTED BY IDOCK:   -7.29 KCAL/MOL
REMARK 923 INTER-LIGAND FREE ENERGY PREDICTED BY IDOCK:   -5.74 KCAL/MOL
REMARK 924 INTRA-LIGAND FREE ENERGY PREDICTED BY IDOCK:   -1.56 KCAL/MOL
REMARK 927      BINDING AFFINITY PREDICTED BY RF-SCORE:    0.00 PKD
ROOT
HETATM    1  C   UNL     1      -9.105   8.536  67.973  1.00  0.00    -0.144 C  
HETATM    2  C   UNL     1      -8.763   9.272  66.687  1.00  0.00    -0.139 C  
ENDROOT
BRANCH   2   3
HETATM    3  C   UNL     1      -9.981  10.007  66.129  1.00  0.00    -0.256 C  
BRANCH   3   4
HETATM    4  N   UNL     1      -9.984  11.387  66.611  1.00  0.00    -0.203 NA 
HETATM    5  H   UNL     1      -9.558  12.026  65.939  1.00  0.00     0.000 HD 
BRANCH   4   6
HETATM    6  C   UNL     1     -11.350  11.798  66.968  1.00  0.00    -0.321 C  
BRANCH   6   7
HETATM    7  C   UNL     1     -11.392  12.405  68.382  1.00  0.00    -0.285 C  
HETATM    8  O   UNL     1     -10.477  11.721  69.251  1.00  0.00    -0.412 OA 
HETATM    9  H   UNL     1     -10.504  12.096  70.124  1.00  0.00     0.000 HD 
BRANCH   7  10
HETATM   10  C   UNL     1     -11.041  13.897  68.347  1.00  0.00    -0.255 C  
BRANCH  10  11
HETATM   11  O   UNL     1      -9.866  14.097  67.537  1.00  0.00    -0.229 OA 
BRANCH  11  12
HETATM   12  C   UNL     1      -8.763  14.552  68.212  1.00  0.00    -0.173 A  
HETATM   13  C   UNL     1      -8.567  15.941  68.361  1.00  0.00    -0.178 A  
HETATM   14  C   UNL     1      -7.788  13.669  68.700  1.00  0.00    -0.096 A  
HETATM   15  C   UNL     1      -7.434  16.404  69.051  1.00  0.00    -0.227 A  
HETATM   16  C   UNL     1      -6.660  14.145  69.367  1.00  0.00    -0.121 A  
HETATM   17  C   UNL     1      -6.484  15.511  69.547  1.00  0.00    -0.165 A  
BRANCH  13  18
HETATM   18  C   UNL     1      -9.547  16.943  67.828  1.00  0.00    -0.249 C  
HETATM   19  O   UNL     1     -10.336  17.504  68.585  1.00  0.00    -0.349 OA 
BRANCH  18  20
HETATM   20  C   UNL     1      -9.498  17.317  66.352  1.00  0.00    -0.282 C  
BRANCH  20  21
HETATM   21  C   UNL     1      -8.070  17.461  65.837  1.00  0.00    -0.050 C  
BRANCH  21  22
HETATM   22  C   UNL     1      -7.388  18.701  66.366  1.00  0.00    -0.272 A  
HETATM   23  C   UNL     1      -8.117  19.880  66.578  1.00  0.00    -0.357 A  
HETATM   24  C   UNL     1      -7.490  21.018  67.090  1.00  0.00    -0.257 A  
HETATM   25  C   UNL     1      -6.130  20.991  67.390  1.00  0.00    -0.376 A  
HETATM   26  C   UNL     1      -5.394  19.828  67.170  1.00  0.00    -0.163 A  
HETATM   27  C   UNL     1      -6.018  18.689  66.657  1.00  0.00    -0.176 A  
ENDBRANCH  21  22
ENDBRANCH  20  21
ENDBRANCH  18  20
ENDBRANCH  13  18
ENDBRANCH  11  12
ENDBRANCH  10  11
ENDBRANCH   7  10
ENDBRANCH   6   7
ENDBRANCH   4   6
ENDBRANCH   3   4
ENDBRANCH   2   3
TORSDOF 11
ENDMDL
MODEL      301
REMARK 921   NORMALIZED FREE ENERGY PREDICTED BY IDOCK:   -3.81 KCAL/MOL
REMARK 922        TOTAL FREE ENERGY PREDICTED BY IDOCK:   -7.27 KCAL/MOL
REMARK 923 INTER-LIGAND FREE ENERGY PREDICTED BY IDOCK:   -6.62 KCAL/MOL
REMARK 924 INTRA-LIGAND FREE ENERGY PREDICTED BY IDOCK:   -0.66 KCAL/MOL
REMARK 927      BINDING AFFINITY PREDICTED BY RF-SCORE:    0.00 PKD
ROOT
HETATM    1  C   UNL     1     -10.908   6.463  70.933  1.00  0.00    -0.316 C  
HETATM    2  C   UNL     1     -10.236   7.615  71.664  1.00  0.00    -0.217 C  
ENDROOT
BRANCH   2   3
HETATM    3  C   UNL     1     -11.218   8.759  71.914  1.00  0.00    -0.368 C  
BRANCH   3   4
HETATM    4  N   UNL     1     -11.743   9.243  70.639  1.00  0.00    -0.369 NA 
HETATM    5  H   UNL     1     -12.746   9.427  70.685  1.00  0.00     0.000 HD 
BRANCH   4   6
HETATM    6  C   UNL     1     -10.988  10.423  70.193  1.00  0.00    -0.300 C  
BRANCH   6   7
HETATM    7  C   UNL     1     -10.469  10.236  68.756  1.00  0.00    -0.203 C  
HETATM    8  O   UNL     1     -10.475   8.846  68.395  1.00  0.00    -0.210 OA 
HETATM    9  H   UNL     1     -10.155   8.732  67.508  1.00  0.00     0.000 HD 
BRANCH   7  10
HETATM   10  C   UNL     1     -11.327  11.024  67.758  1.00  0.00    -0.292 C  
BRANCH  10  11
HETATM   11  O   UNL     1     -10.471  11.780  66.880  1.00  0.00    -0.212 OA 
BRANCH  11  12
HETATM   12  C   UNL     1     -11.044  12.160  65.693  1.00  0.00    -0.316 A  
HETATM   13  C   UNL     1     -11.104  13.529  65.361  1.00  0.00    -0.302 A  
HETATM   14  C   UNL     1     -11.633  11.222  64.832  1.00  0.00     0.176 A  
HETATM   15  C   UNL     1     -11.694  13.915  64.145  1.00  0.00    -0.369 A  
HETATM   16  C   UNL     1     -12.232  11.624  63.638  1.00  0.00    -0.348 A  
HETATM   17  C   UNL     1     -12.258  12.968  63.291  1.00  0.00    -0.464 A  
BRANCH  13  18
HETATM   18  C   UNL     1     -10.531  14.589  66.254  1.00  0.00    -0.301 C  
HETATM   19  O   UNL     1      -9.431  15.079  66.010  1.00  0.00    -0.298 OA 
BRANCH  18  20
HETATM   20  C   UNL     1     -11.364  15.109  67.419  1.00  0.00    -0.309 C  
BRANCH  20  21
HETATM   21  C   UNL     1     -10.674  14.901  68.763  1.00  0.00    -0.252 C  
BRANCH  21  22
HETATM   22  C   UNL     1      -9.365  15.647  68.862  1.00  0.00    -0.223 A  
HETATM   23  C   UNL     1      -8.198  14.989  69.279  1.00  0.00    -0.165 A  
HETATM   24  C   UNL     1      -6.984  15.675  69.346  1.00  0.00    -0.196 A  
HETATM   25  C   UNL     1      -6.924  17.023  69.003  1.00  0.00    -0.229 A  
HETATM   26  C   UNL     1      -8.080  17.690  68.600  1.00  0.00    -0.269 A  
HETATM   27  C   UNL     1      -9.296  17.007  68.533  1.00  0.00    -0.265 A  
ENDBRANCH  21  22
ENDBRANCH  20  21
ENDBRANCH  18  20
ENDBRANCH  13  18
ENDBRANCH  11  12
ENDBRANCH  10  11
ENDBRANCH   7  10
ENDBRANCH   6   7
ENDBRANCH   4   6
ENDBRANCH   3   4
ENDBRANCH   2   3
TORSDOF 11
ENDMDL
MODEL      302
REMARK 921   NORMALIZED FREE ENERGY PREDICTED BY IDOCK:   -3.81 KCAL/MOL
REMARK 922        TOTAL FREE ENERGY PREDICTED BY IDOCK:   -7.27 KCAL/MOL
REMARK 923 INTER-LIGAND FREE ENERGY PREDICTED BY IDOCK:   -6.35 KCAL/MOL
REMARK 924 INTRA-LIGAND FREE ENERGY PREDICTED BY IDOCK:   -0.92 KCAL/MOL
REMARK 927      BINDING AFFINITY PREDICTED BY RF-SCORE:    0.00 PKD
ROOT
HETATM    1  C   UNL     1     -10.175   3.531  64.150  1.00  0.00    -0.219 C  
HETATM    2  C   UNL     1      -8.682   3.560  64.436  1.00  0.00    -0.097 C  
ENDROOT
BRANCH   2   3
HETATM    3  C   UNL     1      -8.138   4.988  64.396  1.00  0.00    -0.117 C  
BRANCH   3   4
HETATM    4  N   UNL     1      -8.114   5.543  65.747  1.00  0.00    -0.108 NA 
HETATM    5  H   UNL     1      -7.167   5.776  66.046  1.00  0.00     0.000 HD 
BRANCH   4   6
HETATM    6  C   UNL     1      -9.018   6.698  65.839  1.00  0.00    -0.074 C  
BRANCH   6   7
HETATM    7  C   UNL     1      -8.306   7.992  65.407  1.00  0.00    -0.153 C  
HETATM    8  O   UNL     1      -9.048   8.653  64.370  1.00  0.00    -0.394 OA 
HETATM    9  H   UNL     1      -8.608   9.452  64.104  1.00  0.00     0.000 HD 
BRANCH   7  10
HETATM   10  C   UNL     1      -8.135   8.946  66.596  1.00  0.00    -0.107 C  
BRANCH  10  11
HETATM   11  O   UNL     1      -9.431   9.313  67.108  1.00  0.00    -0.141 OA 
BRANCH  11  12
HETATM   12  C   UNL     1      -9.612   9.087  68.449  1.00  0.00    -0.152 A  
HETATM   13  C   UNL     1     -10.391   9.988  69.204  1.00  0.00    -0.233 A  
HETATM   14  C   UNL     1      -8.984   8.015  69.101  1.00  0.00    -0.145 A  
HETATM   15  C   UNL     1     -10.573   9.754  70.577  1.00  0.00    -0.376 A  
HETATM   16  C   UNL     1      -9.160   7.807  70.469  1.00  0.00    -0.154 A  
HETATM   17  C   UNL     1      -9.957   8.672  71.206  1.00  0.00    -0.315 A  
BRANCH  13  18
HETATM   18  C   UNL     1     -11.058  11.178  68.579  1.00  0.00    -0.244 C  
HETATM   19  O   UNL     1     -12.194  11.084  68.121  1.00  0.00    -0.578 OA 
BRANCH  18  20
HETATM   20  C   UNL     1     -10.342  12.522  68.594  1.00  0.00    -0.193 C  
BRANCH  20  21
HETATM   21  C   UNL     1     -11.313  13.694  68.704  1.00  0.00    -0.321 C  
BRANCH  21  22
HETATM   22  C   UNL     1     -11.721  13.974  70.131  1.00  0.00    -0.331 A  
HETATM   23  C   UNL     1     -11.201  15.081  70.817  1.00  0.00    -0.273 A  
HETATM   24  C   UNL     1     -11.598  15.352  72.128  1.00  0.00    -0.554 A  
HETATM   25  C   UNL     1     -12.511  14.518  72.767  1.00  0.00    -0.331 A  
HETATM   26  C   UNL     1     -13.023  13.407  72.099  1.00  0.00    -0.403 A  
HETATM   27  C   UNL     1     -12.627  13.133  70.788  1.00  0.00    -0.338 A  
ENDBRANCH  21  22
ENDBRANCH  20  21
ENDBRANCH  18  20
ENDBRANCH  13  18
ENDBRANCH  11  12
ENDBRANCH  10  11
ENDBRANCH   7  10
ENDBRANCH   6   7
ENDBRANCH   4   6
ENDBRANCH   3   4
ENDBRANCH   2   3
TORSDOF 11
ENDMDL
MODEL      303
REMARK 921   NORMALIZED FREE ENERGY PREDICTED BY IDOCK:   -3.78 KCAL/MOL
REMARK 922        TOTAL FREE ENERGY PREDICTED BY IDOCK:   -7.23 KCAL/MOL
REMARK 923 INTER-LIGAND FREE ENERGY PREDICTED BY IDOCK:   -5.20 KCAL/MOL
REMARK 924 INTRA-LIGAND FREE ENERGY PREDICTED BY IDOCK:   -2.03 KCAL/MOL
REMARK 927      BINDING AFFINITY PREDICTED BY RF-SCORE:    0.00 PKD
ROOT
HETATM    1  C   UNL     1      -6.199   8.739  73.521  1.00  0.00    -0.058 C  
HETATM    2  C   UNL     1      -7.164   7.565  73.587  1.00  0.00    -0.108 C  
ENDROOT
BRANCH   2   3
HETATM    3  C   UNL     1      -8.573   8.027  73.955  1.00  0.00    -0.234 C  
BRANCH   3   4
HETATM    4  N   UNL     1      -9.425   8.000  72.768  1.00  0.00    -0.239 NA 
HETATM    5  H   UNL     1      -8.920   8.292  71.930  1.00  0.00     0.000 HD 
BRANCH   4   6
HETATM    6  C   UNL     1     -10.032   6.672  72.608  1.00  0.00    -0.171 C  
BRANCH   6   7
HETATM    7  C   UNL     1     -11.541   6.784  72.324  1.00  0.00    -0.273 C  
HETATM    8  O   UNL     1     -12.113   7.872  73.066  1.00  0.00    -0.626 OA 
HETATM    9  H   UNL     1     -13.044   7.941  72.890  1.00  0.00     0.000 HD 
BRANCH   7  10
HETATM   10  C   UNL     1     -11.802   6.997  70.828  1.00  0.00    -0.355 C  
BRANCH  10  11
HETATM   11  O   UNL     1     -10.584   7.415  70.181  1.00  0.00    -0.219 OA 
BRANCH  11  12
HETATM   12  C   UNL     1     -10.714   8.481  69.328  1.00  0.00    -0.133 A  
HETATM   13  C   UNL     1     -10.520   8.288  67.944  1.00  0.00    -0.259 A  
HETATM   14  C   UNL     1     -10.970   9.775  69.807  1.00  0.00    -0.287 A  
HETATM   15  C   UNL     1     -10.652   9.383  67.073  1.00  0.00    -0.272 A  
HETATM   16  C   UNL     1     -11.079  10.854  68.931  1.00  0.00    -0.307 A  
HETATM   17  C   UNL     1     -10.926  10.659  67.565  1.00  0.00    -0.371 A  
BRANCH  13  18
HETATM   18  C   UNL     1     -10.204   6.940  67.368  1.00  0.00    -0.203 C  
HETATM   19  O   UNL     1     -10.991   6.393  66.599  1.00  0.00    -0.304 OA 
BRANCH  18  20
HETATM   20  C   UNL     1      -8.859   6.296  67.680  1.00  0.00    -0.111 C  
BRANCH  20  21
HETATM   21  C   UNL     1      -7.854   6.471  66.546  1.00  0.00    -0.104 C  
BRANCH  21  22
HETATM   22  C   UNL     1      -7.552   7.924  66.262  1.00  0.00    -0.083 A  
HETATM   23  C   UNL     1      -7.012   8.748  67.261  1.00  0.00    -0.075 A  
HETATM   24  C   UNL     1      -6.711  10.084  66.990  1.00  0.00    -0.078 A  
HETATM   25  C   UNL     1      -6.951  10.611  65.723  1.00  0.00    -0.094 A  
HETATM   26  C   UNL     1      -7.500   9.804  64.728  1.00  0.00    -0.130 A  
HETATM   27  C   UNL     1      -7.804   8.467  64.996  1.00  0.00    -0.112 A  
ENDBRANCH  21  22
ENDBRANCH  20  21
ENDBRANCH  18  20
ENDBRANCH  13  18
ENDBRANCH  11  12
ENDBRANCH  10  11
ENDBRANCH   7  10
ENDBRANCH   6   7
ENDBRANCH   4   6
ENDBRANCH   3   4
ENDBRANCH   2   3
TORSDOF 11
ENDMDL
MODEL      304
REMARK 921   NORMALIZED FREE ENERGY PREDICTED BY IDOCK:   -3.77 KCAL/MOL
REMARK 922        TOTAL FREE ENERGY PREDICTED BY IDOCK:   -7.22 KCAL/MOL
REMARK 923 INTER-LIGAND FREE ENERGY PREDICTED BY IDOCK:   -6.18 KCAL/MOL
REMARK 924 INTRA-LIGAND FREE ENERGY PREDICTED BY IDOCK:   -1.04 KCAL/MOL
REMARK 927      BINDING AFFINITY PREDICTED BY RF-SCORE:    0.00 PKD
ROOT
HETATM    1  C   UNL     1     -10.366   4.514  65.557  1.00  0.00    -0.254 C  
HETATM    2  C   UNL     1      -8.949   4.925  65.189  1.00  0.00    -0.152 C  
ENDROOT
BRANCH   2   3
HETATM    3  C   UNL     1      -8.381   5.919  66.200  1.00  0.00    -0.124 C  
BRANCH   3   4
HETATM    4  N   UNL     1      -7.875   5.198  67.367  1.00  0.00    -0.095 NA 
HETATM    5  H   UNL     1      -6.857   5.124  67.358  1.00  0.00     0.000 HD 
BRANCH   4   6
HETATM    6  C   UNL     1      -8.368   5.822  68.603  1.00  0.00    -0.107 C  
BRANCH   6   7
HETATM    7  C   UNL     1      -7.243   6.589  69.321  1.00  0.00    -0.090 C  
HETATM    8  O   UNL     1      -7.520   7.997  69.331  1.00  0.00    -0.091 OA 
HETATM    9  H   UNL     1      -6.825   8.470  69.774  1.00  0.00     0.000 HD 
BRANCH   7  10
HETATM   10  C   UNL     1      -7.077   6.094  70.763  1.00  0.00    -0.069 C  
BRANCH  10  11
HETATM   11  O   UNL     1      -7.872   6.909  71.646  1.00  0.00    -0.098 OA 
BRANCH  11  12
HETATM   12  C   UNL     1      -9.068   6.357  72.029  1.00  0.00    -0.141 A  
HETATM   13  C   UNL     1     -10.251   7.114  71.905  1.00  0.00    -0.208 A  
HETATM   14  C   UNL     1      -9.133   5.080  72.606  1.00  0.00    -0.141 A  
HETATM   15  C   UNL     1     -11.474   6.546  72.300  1.00  0.00    -0.326 A  
HETATM   16  C   UNL     1     -10.352   4.538  73.011  1.00  0.00    -0.237 A  
HETATM   17  C   UNL     1     -11.523   5.267  72.854  1.00  0.00    -0.339 A  
BRANCH  13  18
HETATM   18  C   UNL     1     -10.250   8.502  71.335  1.00  0.00    -0.235 C  
HETATM   19  O   UNL     1      -9.276   9.235  71.487  1.00  0.00    -0.305 OA 
BRANCH  18  20
HETATM   20  C   UNL     1     -11.436   8.961  70.496  1.00  0.00    -0.231 C  
BRANCH  20  21
HETATM   21  C   UNL     1     -12.080  10.229  71.048  1.00  0.00    -0.487 C  
BRANCH  21  22
HETATM   22  C   UNL     1     -11.994  11.387  70.083  1.00  0.00    -0.460 A  
HETATM   23  C   UNL     1     -11.706  11.166  68.728  1.00  0.00    -0.394 A  
HETATM   24  C   UNL     1     -11.651  12.235  67.832  1.00  0.00    -0.416 A  
HETATM   25  C   UNL     1     -11.878  13.534  68.280  1.00  0.00    -0.401 A  
HETATM   26  C   UNL     1     -12.152  13.766  69.627  1.00  0.00    -0.392 A  
HETATM   27  C   UNL     1     -12.206  12.698  70.526  1.00  0.00    -0.383 A  
ENDBRANCH  21  22
ENDBRANCH  20  21
ENDBRANCH  18  20
ENDBRANCH  13  18
ENDBRANCH  11  12
ENDBRANCH  10  11
ENDBRANCH   7  10
ENDBRANCH   6   7
ENDBRANCH   4   6
ENDBRANCH   3   4
ENDBRANCH   2   3
TORSDOF 11
ENDMDL
MODEL      305
REMARK 921   NORMALIZED FREE ENERGY PREDICTED BY IDOCK:   -3.77 KCAL/MOL
REMARK 922        TOTAL FREE ENERGY PREDICTED BY IDOCK:   -7.21 KCAL/MOL
REMARK 923 INTER-LIGAND FREE ENERGY PREDICTED BY IDOCK:   -5.57 KCAL/MOL
REMARK 924 INTRA-LIGAND FREE ENERGY PREDICTED BY IDOCK:   -1.65 KCAL/MOL
REMARK 927      BINDING AFFINITY PREDICTED BY RF-SCORE:    0.00 PKD
ROOT
HETATM    1  C   UNL     1     -11.547  15.577  69.114  1.00  0.00    -0.374 C  
HETATM    2  C   UNL     1     -11.560  15.310  67.617  1.00  0.00    -0.249 C  
ENDROOT
BRANCH   2   3
HETATM    3  C   UNL     1     -11.067  13.899  67.302  1.00  0.00    -0.299 C  
BRANCH   3   4
HETATM    4  N   UNL     1     -12.109  13.160  66.592  1.00  0.00    -0.378 NA 
HETATM    5  H   UNL     1     -13.044  13.433  66.897  1.00  0.00     0.000 HD 
BRANCH   4   6
HETATM    6  C   UNL     1     -11.939  13.311  65.140  1.00  0.00    -0.381 C  
BRANCH   6   7
HETATM    7  C   UNL     1     -11.094  12.162  64.561  1.00  0.00    -0.325 C  
HETATM    8  O   UNL     1     -10.079  12.676  63.685  1.00  0.00    -0.536 OA 
HETATM    9  H   UNL     1      -9.558  11.967  63.328  1.00  0.00     0.000 HD 
BRANCH   7  10
HETATM   10  C   UNL     1     -10.435  11.348  65.681  1.00  0.00    -0.262 C  
BRANCH  10  11
HETATM   11  O   UNL     1     -10.198  10.003  65.223  1.00  0.00    -0.296 OA 
BRANCH  11  12
HETATM   12  C   UNL     1      -8.958   9.498  65.517  1.00  0.00    -0.194 A  
HETATM   13  C   UNL     1      -8.821   8.560  66.561  1.00  0.00    -0.165 A  
HETATM   14  C   UNL     1      -7.809   9.944  64.846  1.00  0.00    -0.136 A  
HETATM   15  C   UNL     1      -7.548   8.046  66.860  1.00  0.00    -0.095 A  
HETATM   16  C   UNL     1      -6.550   9.438  65.168  1.00  0.00    -0.079 A  
HETATM   17  C   UNL     1      -6.419   8.486  66.170  1.00  0.00    -0.053 A  
BRANCH  13  18
HETATM   18  C   UNL     1     -10.001   8.070  67.347  1.00  0.00    -0.207 C  
HETATM   19  O   UNL     1     -10.788   7.267  66.851  1.00  0.00    -0.355 OA 
BRANCH  18  20
HETATM   20  C   UNL     1     -10.165   8.514  68.795  1.00  0.00    -0.217 C  
BRANCH  20  21
HETATM   21  C   UNL     1      -9.963  10.017  68.966  1.00  0.00    -0.203 C  
BRANCH  21  22
HETATM   22  C   UNL     1      -8.523  10.377  69.246  1.00  0.00    -0.162 A  
HETATM   23  C   UNL     1      -7.897  11.412  68.536  1.00  0.00    -0.140 A  
HETATM   24  C   UNL     1      -6.574  11.760  68.812  1.00  0.00    -0.074 A  
HETATM   25  C   UNL     1      -5.862  11.075  69.794  1.00  0.00    -0.071 A  
HETATM   26  C   UNL     1      -6.471  10.036  70.495  1.00  0.00    -0.121 A  
HETATM   27  C   UNL     1      -7.794   9.685  70.220  1.00  0.00    -0.193 A  
ENDBRANCH  21  22
ENDBRANCH  20  21
ENDBRANCH  18  20
ENDBRANCH  13  18
ENDBRANCH  11  12
ENDBRANCH  10  11
ENDBRANCH   7  10
ENDBRANCH   6   7
ENDBRANCH   4   6
ENDBRANCH   3   4
ENDBRANCH   2   3
TORSDOF 11
ENDMDL
MODEL      306
REMARK 921   NORMALIZED FREE ENERGY PREDICTED BY IDOCK:   -3.77 KCAL/MOL
REMARK 922        TOTAL FREE ENERGY PREDICTED BY IDOCK:   -7.21 KCAL/MOL
REMARK 923 INTER-LIGAND FREE ENERGY PREDICTED BY IDOCK:   -6.28 KCAL/MOL
REMARK 924 INTRA-LIGAND FREE ENERGY PREDICTED BY IDOCK:   -0.93 KCAL/MOL
REMARK 927      BINDING AFFINITY PREDICTED BY RF-SCORE:    0.00 PKD
ROOT
HETATM    1  C   UNL     1     -11.200  14.321  68.656  1.00  0.00    -0.287 C  
HETATM    2  C   UNL     1      -9.961  14.464  67.785  1.00  0.00    -0.226 C  
ENDROOT
BRANCH   2   3
HETATM    3  C   UNL     1     -10.335  14.786  66.339  1.00  0.00    -0.293 C  
BRANCH   3   4
HETATM    4  N   UNL     1     -11.122  13.689  65.780  1.00  0.00    -0.287 NA 
HETATM    5  H   UNL     1     -12.124  13.835  65.906  1.00  0.00     0.000 HD 
BRANCH   4   6
HETATM    6  C   UNL     1     -10.773  13.481  64.368  1.00  0.00    -0.388 C  
BRANCH   6   7
HETATM    7  C   UNL     1     -10.288  12.040  64.125  1.00  0.00    -0.347 C  
HETATM    8  O   UNL     1      -9.405  11.990  62.994  1.00  0.00    -0.641 OA 
HETATM    9  H   UNL     1      -9.106  11.101  62.844  1.00  0.00     0.000 HD 
BRANCH   7  10
HETATM   10  C   UNL     1      -9.563  11.491  65.360  1.00  0.00    -0.224 C  
BRANCH  10  11
HETATM   11  O   UNL     1      -9.883  10.096  65.525  1.00  0.00    -0.258 OA 
BRANCH  11  12
HETATM   12  C   UNL     1      -8.845   9.229  65.297  1.00  0.00    -0.198 A  
HETATM   13  C   UNL     1      -7.809   9.123  66.248  1.00  0.00    -0.103 A  
HETATM   14  C   UNL     1      -8.754   8.494  64.105  1.00  0.00     0.114 A  
HETATM   15  C   UNL     1      -6.746   8.236  66.010  1.00  0.00    -0.057 A  
HETATM   16  C   UNL     1      -7.683   7.632  63.875  1.00  0.00    -0.126 A  
HETATM   17  C   UNL     1      -6.682   7.498  64.828  1.00  0.00    -0.047 A  
BRANCH  13  18
HETATM   18  C   UNL     1      -7.821   9.910  67.525  1.00  0.00    -0.098 C  
HETATM   19  O   UNL     1      -7.171  10.949  67.621  1.00  0.00    -0.089 OA 
BRANCH  18  20
HETATM   20  C   UNL     1      -8.711   9.451  68.673  1.00  0.00    -0.131 C  
BRANCH  20  21
HETATM   21  C   UNL     1      -9.926  10.353  68.861  1.00  0.00    -0.208 C  
BRANCH  21  22
HETATM   22  C   UNL     1     -10.783   9.931  70.031  1.00  0.00    -0.338 A  
HETATM   23  C   UNL     1     -12.046  10.507  70.234  1.00  0.00    -0.402 A  
HETATM   24  C   UNL     1     -12.847  10.098  71.302  1.00  0.00    -0.508 A  
HETATM   25  C   UNL     1     -12.393   9.116  72.179  1.00  0.00    -0.424 A  
HETATM   26  C   UNL     1     -11.134   8.547  71.994  1.00  0.00    -0.412 A  
HETATM   27  C   UNL     1     -10.330   8.955  70.927  1.00  0.00    -0.303 A  
ENDBRANCH  21  22
ENDBRANCH  20  21
ENDBRANCH  18  20
ENDBRANCH  13  18
ENDBRANCH  11  12
ENDBRANCH  10  11
ENDBRANCH   7  10
ENDBRANCH   6   7
ENDBRANCH   4   6
ENDBRANCH   3   4
ENDBRANCH   2   3
TORSDOF 11
ENDMDL
MODEL      307
REMARK 921   NORMALIZED FREE ENERGY PREDICTED BY IDOCK:   -3.76 KCAL/MOL
REMARK 922        TOTAL FREE ENERGY PREDICTED BY IDOCK:   -7.20 KCAL/MOL
REMARK 923 INTER-LIGAND FREE ENERGY PREDICTED BY IDOCK:   -5.06 KCAL/MOL
REMARK 924 INTRA-LIGAND FREE ENERGY PREDICTED BY IDOCK:   -2.14 KCAL/MOL
REMARK 927      BINDING AFFINITY PREDICTED BY RF-SCORE:    0.00 PKD
ROOT
HETATM    1  C   UNL     1     -13.258  11.598  72.052  1.00  0.00    -0.443 C  
HETATM    2  C   UNL     1     -12.664  10.596  71.073  1.00  0.00    -0.512 C  
ENDROOT
BRANCH   2   3
HETATM    3  C   UNL     1     -11.697  11.277  70.105  1.00  0.00    -0.343 C  
BRANCH   3   4
HETATM    4  N   UNL     1     -12.441  11.823  68.971  1.00  0.00    -0.085 NA 
HETATM    5  H   UNL     1     -13.435  11.601  69.024  1.00  0.00     0.000 HD 
BRANCH   4   6
HETATM    6  C   UNL     1     -12.208  13.270  68.861  1.00  0.00    -0.098 C  
BRANCH   6   7
HETATM    7  C   UNL     1     -11.034  13.571  67.912  1.00  0.00    -0.256 C  
HETATM    8  O   UNL     1      -9.786  13.506  68.619  1.00  0.00    -0.329 OA 
HETATM    9  H   UNL     1      -9.062  13.692  68.033  1.00  0.00     0.000 HD 
BRANCH   7  10
HETATM   10  C   UNL     1     -11.007  12.579  66.743  1.00  0.00    -0.265 C  
BRANCH  10  11
HETATM   11  O   UNL     1     -10.105  11.498  67.049  1.00  0.00    -0.204 OA 
BRANCH  11  12
HETATM   12  C   UNL     1      -9.389  11.017  65.984  1.00  0.00    -0.201 A  
HETATM   13  C   UNL     1      -7.980  11.066  66.018  1.00  0.00    -0.094 A  
HETATM   14  C   UNL     1     -10.027  10.539  64.829  1.00  0.00    -0.412 A  
HETATM   15  C   UNL     1      -7.249  10.574  64.923  1.00  0.00     0.027 A  
HETATM   16  C   UNL     1      -9.287  10.072  63.743  1.00  0.00    -0.307 A  
HETATM   17  C   UNL     1      -7.900  10.085  63.790  1.00  0.00    -0.152 A  
BRANCH  13  18
HETATM   18  C   UNL     1      -7.232  11.602  67.202  1.00  0.00    -0.145 C  
HETATM   19  O   UNL     1      -6.970  12.800  67.282  1.00  0.00    -0.150 OA 
BRANCH  18  20
HETATM   20  C   UNL     1      -6.875  10.659  68.344  1.00  0.00    -0.064 C  
BRANCH  20  21
HETATM   21  C   UNL     1      -6.806   9.204  67.893  1.00  0.00    -0.069 C  
BRANCH  21  22
HETATM   22  C   UNL     1      -8.101   8.464  68.133  1.00  0.00    -0.120 A  
HETATM   23  C   UNL     1      -8.508   7.440  67.264  1.00  0.00    -0.118 A  
HETATM   24  C   UNL     1      -9.693   6.741  67.500  1.00  0.00    -0.154 A  
HETATM   25  C   UNL     1     -10.484   7.060  68.601  1.00  0.00    -0.224 A  
HETATM   26  C   UNL     1     -10.095   8.084  69.462  1.00  0.00    -0.196 A  
HETATM   27  C   UNL     1      -8.911   8.786  69.228  1.00  0.00    -0.144 A  
ENDBRANCH  21  22
ENDBRANCH  20  21
ENDBRANCH  18  20
ENDBRANCH  13  18
ENDBRANCH  11  12
ENDBRANCH  10  11
ENDBRANCH   7  10
ENDBRANCH   6   7
ENDBRANCH   4   6
ENDBRANCH   3   4
ENDBRANCH   2   3
TORSDOF 11
ENDMDL
MODEL      308
REMARK 921   NORMALIZED FREE ENERGY PREDICTED BY IDOCK:   -3.75 KCAL/MOL
REMARK 922        TOTAL FREE ENERGY PREDICTED BY IDOCK:   -7.18 KCAL/MOL
REMARK 923 INTER-LIGAND FREE ENERGY PREDICTED BY IDOCK:   -6.03 KCAL/MOL
REMARK 924 INTRA-LIGAND FREE ENERGY PREDICTED BY IDOCK:   -1.16 KCAL/MOL
REMARK 927      BINDING AFFINITY PREDICTED BY RF-SCORE:    0.00 PKD
ROOT
HETATM    1  C   UNL     1     -12.989  10.218  72.251  1.00  0.00    -0.276 C  
HETATM    2  C   UNL     1     -12.114  10.074  71.014  1.00  0.00    -0.469 C  
ENDROOT
BRANCH   2   3
HETATM    3  C   UNL     1     -12.909  10.357  69.740  1.00  0.00     0.334 C  
BRANCH   3   4
HETATM    4  N   UNL     1     -12.178  11.310  68.907  1.00  0.00    -0.532 NA 
HETATM    5  H   UNL     1     -12.796  11.805  68.263  1.00  0.00     0.000 HD 
BRANCH   4   6
HETATM    6  C   UNL     1     -11.409  12.236  69.749  1.00  0.00    -0.076 C  
BRANCH   6   7
HETATM    7  C   UNL     1     -12.057  13.632  69.770  1.00  0.00    -0.334 C  
HETATM    8  O   UNL     1     -11.752  14.311  70.998  1.00  0.00    -0.473 OA 
HETATM    9  H   UNL     1     -12.152  15.172  71.011  1.00  0.00     0.000 HD 
BRANCH   7  10
HETATM   10  C   UNL     1     -11.570  14.479  68.588  1.00  0.00    -0.315 C  
BRANCH  10  11
HETATM   11  O   UNL     1     -10.594  13.735  67.833  1.00  0.00    -0.245 OA 
BRANCH  11  12
HETATM   12  C   UNL     1     -10.941  13.471  66.532  1.00  0.00    -0.291 A  
HETATM   13  C   UNL     1     -10.241  12.479  65.817  1.00  0.00    -0.289 A  
HETATM   14  C   UNL     1     -11.933  14.214  65.875  1.00  0.00    -0.420 A  
HETATM   15  C   UNL     1     -10.598  12.213  64.484  1.00  0.00    -0.350 A  
HETATM   16  C   UNL     1     -12.263  13.951  64.546  1.00  0.00    -0.451 A  
HETATM   17  C   UNL     1     -11.600  12.948  63.851  1.00  0.00    -0.515 A  
BRANCH  13  18
HETATM   18  C   UNL     1      -9.141  11.675  66.444  1.00  0.00    -0.206 C  
HETATM   19  O   UNL     1      -8.011  12.145  66.551  1.00  0.00    -0.019 OA 
BRANCH  18  20
HETATM   20  C   UNL     1      -9.461  10.301  67.020  1.00  0.00    -0.191 C  
BRANCH  20  21
HETATM   21  C   UNL     1      -9.925   9.318  65.950  1.00  0.00    -0.289 C  
BRANCH  21  22
HETATM   22  C   UNL     1      -9.155   8.019  65.986  1.00  0.00    -0.193 A  
HETATM   23  C   UNL     1      -8.522   7.534  64.833  1.00  0.00     0.029 A  
HETATM   24  C   UNL     1      -7.790   6.346  64.873  1.00  0.00    -0.113 A  
HETATM   25  C   UNL     1      -7.686   5.629  66.064  1.00  0.00    -0.095 A  
HETATM   26  C   UNL     1      -8.323   6.097  67.212  1.00  0.00    -0.105 A  
HETATM   27  C   UNL     1      -9.057   7.284  67.174  1.00  0.00    -0.144 A  
ENDBRANCH  21  22
ENDBRANCH  20  21
ENDBRANCH  18  20
ENDBRANCH  13  18
ENDBRANCH  11  12
ENDBRANCH  10  11
ENDBRANCH   7  10
ENDBRANCH   6   7
ENDBRANCH   4   6
ENDBRANCH   3   4
ENDBRANCH   2   3
TORSDOF 11
ENDMDL
MODEL      309
REMARK 921   NORMALIZED FREE ENERGY PREDICTED BY IDOCK:   -3.75 KCAL/MOL
REMARK 922        TOTAL FREE ENERGY PREDICTED BY IDOCK:   -7.18 KCAL/MOL
REMARK 923 INTER-LIGAND FREE ENERGY PREDICTED BY IDOCK:   -6.40 KCAL/MOL
REMARK 924 INTRA-LIGAND FREE ENERGY PREDICTED BY IDOCK:   -0.78 KCAL/MOL
REMARK 927      BINDING AFFINITY PREDICTED BY RF-SCORE:    0.00 PKD
ROOT
HETATM    1  C   UNL     1     -10.619  11.964  63.621  1.00  0.00    -0.500 C  
HETATM    2  C   UNL     1      -9.896  10.909  62.797  1.00  0.00    -0.255 C  
ENDROOT
BRANCH   2   3
HETATM    3  C   UNL     1      -8.581  10.498  63.458  1.00  0.00    -0.165 C  
BRANCH   3   4
HETATM    4  N   UNL     1      -8.677   9.116  63.923  1.00  0.00    -0.365 NA 
HETATM    5  H   UNL     1      -9.412   8.600  63.439  1.00  0.00     0.000 HD 
BRANCH   4   6
HETATM    6  C   UNL     1      -7.372   8.449  63.808  1.00  0.00    -0.106 C  
BRANCH   6   7
HETATM    7  C   UNL     1      -6.515   8.691  65.064  1.00  0.00    -0.061 C  
HETATM    8  O   UNL     1      -5.440   9.597  64.772  1.00  0.00    -0.053 OA 
HETATM    9  H   UNL     1      -4.911   9.746  65.548  1.00  0.00     0.000 HD 
BRANCH   7  10
HETATM   10  C   UNL     1      -7.365   9.262  66.205  1.00  0.00    -0.092 C  
BRANCH  10  11
HETATM   11  O   UNL     1      -7.486   8.281  67.253  1.00  0.00    -0.087 OA 
BRANCH  11  12
HETATM   12  C   UNL     1      -8.542   7.416  67.122  1.00  0.00    -0.118 A  
HETATM   13  C   UNL     1      -9.842   7.857  67.445  1.00  0.00    -0.237 A  
HETATM   14  C   UNL     1      -8.350   6.080  66.739  1.00  0.00    -0.106 A  
HETATM   15  C   UNL     1     -10.922   6.967  67.312  1.00  0.00    -0.406 A  
HETATM   16  C   UNL     1      -9.430   5.204  66.630  1.00  0.00    -0.147 A  
HETATM   17  C   UNL     1     -10.715   5.647  66.911  1.00  0.00    -0.350 A  
BRANCH  13  18
HETATM   18  C   UNL     1     -10.115   9.259  67.900  1.00  0.00    -0.200 C  
HETATM   19  O   UNL     1     -10.874   9.984  67.261  1.00  0.00    -0.270 OA 
BRANCH  18  20
HETATM   20  C   UNL     1      -9.505   9.747  69.208  1.00  0.00    -0.201 C  
BRANCH  20  21
HETATM   21  C   UNL     1      -9.751   8.778  70.360  1.00  0.00    -0.209 C  
BRANCH  21  22
HETATM   22  C   UNL     1     -11.096   8.990  71.014  1.00  0.00    -0.356 A  
HETATM   23  C   UNL     1     -11.733  10.238  70.947  1.00  0.00    -0.472 A  
HETATM   24  C   UNL     1     -12.987  10.425  71.532  1.00  0.00    -0.562 A  
HETATM   25  C   UNL     1     -13.613   9.371  72.193  1.00  0.00    -0.528 A  
HETATM   26  C   UNL     1     -12.982   8.132  72.278  1.00  0.00    -0.232 A  
HETATM   27  C   UNL     1     -11.727   7.942  71.695  1.00  0.00    -0.320 A  
ENDBRANCH  21  22
ENDBRANCH  20  21
ENDBRANCH  18  20
ENDBRANCH  13  18
ENDBRANCH  11  12
ENDBRANCH  10  11
ENDBRANCH   7  10
ENDBRANCH   6   7
ENDBRANCH   4   6
ENDBRANCH   3   4
ENDBRANCH   2   3
TORSDOF 11
ENDMDL
MODEL      310
REMARK 921   NORMALIZED FREE ENERGY PREDICTED BY IDOCK:   -3.73 KCAL/MOL
REMARK 922        TOTAL FREE ENERGY PREDICTED BY IDOCK:   -7.14 KCAL/MOL
REMARK 923 INTER-LIGAND FREE ENERGY PREDICTED BY IDOCK:   -6.41 KCAL/MOL
REMARK 924 INTRA-LIGAND FREE ENERGY PREDICTED BY IDOCK:   -0.73 KCAL/MOL
REMARK 927      BINDING AFFINITY PREDICTED BY RF-SCORE:    0.00 PKD
ROOT
HETATM    1  C   UNL     1     -12.635   7.302  71.712  1.00  0.00    -0.376 C  
HETATM    2  C   UNL     1     -12.835   8.775  72.031  1.00  0.00    -0.442 C  
ENDROOT
BRANCH   2   3
HETATM    3  C   UNL     1     -11.679   9.619  71.496  1.00  0.00    -0.400 C  
BRANCH   3   4
HETATM    4  N   UNL     1     -10.712   8.756  70.821  1.00  0.00    -0.217 NA 
HETATM    5  H   UNL     1     -10.966   7.770  70.892  1.00  0.00     0.000 HD 
BRANCH   4   6
HETATM    6  C   UNL     1     -10.542   9.178  69.424  1.00  0.00    -0.223 C  
BRANCH   6   7
HETATM    7  C   UNL     1     -10.571  10.713  69.303  1.00  0.00    -0.233 C  
HETATM    8  O   UNL     1      -9.241  11.230  69.144  1.00  0.00    -0.397 OA 
HETATM    9  H   UNL     1      -9.259  12.177  69.069  1.00  0.00     0.000 HD 
BRANCH   7  10
HETATM   10  C   UNL     1     -11.433  11.152  68.113  1.00  0.00    -0.303 C  
BRANCH  10  11
HETATM   11  O   UNL     1     -10.681  12.058  67.283  1.00  0.00    -0.219 OA 
BRANCH  11  12
HETATM   12  C   UNL     1     -11.156  12.207  66.005  1.00  0.00    -0.313 A  
HETATM   13  C   UNL     1     -10.484  11.576  64.938  1.00  0.00    -0.345 A  
HETATM   14  C   UNL     1     -12.258  13.029  65.725  1.00  0.00    -0.511 A  
HETATM   15  C   UNL     1     -10.972  11.733  63.630  1.00  0.00    -0.513 A  
HETATM   16  C   UNL     1     -12.719  13.190  64.419  1.00  0.00    -0.235 A  
HETATM   17  C   UNL     1     -12.081  12.539  63.372  1.00  0.00    -0.621 A  
BRANCH  13  18
HETATM   18  C   UNL     1      -9.275  10.716  65.159  1.00  0.00    -0.207 C  
HETATM   19  O   UNL     1      -8.748  10.658  66.268  1.00  0.00    -0.146 OA 
BRANCH  18  20
HETATM   20  C   UNL     1      -8.759   9.852  64.015  1.00  0.00    -0.229 C  
BRANCH  20  21
HETATM   21  C   UNL     1      -7.264   9.571  64.130  1.00  0.00    -0.115 C  
BRANCH  21  22
HETATM   22  C   UNL     1      -6.973   8.140  64.514  1.00  0.00    -0.075 A  
HETATM   23  C   UNL     1      -5.722   7.782  65.036  1.00  0.00    -0.037 A  
HETATM   24  C   UNL     1      -5.463   6.463  65.413  1.00  0.00    -0.018 A  
HETATM   25  C   UNL     1      -6.448   5.489  65.268  1.00  0.00    -0.039 A  
HETATM   26  C   UNL     1      -7.690   5.832  64.738  1.00  0.00    -0.096 A  
HETATM   27  C   UNL     1      -7.952   7.150  64.358  1.00  0.00    -0.101 A  
ENDBRANCH  21  22
ENDBRANCH  20  21
ENDBRANCH  18  20
ENDBRANCH  13  18
ENDBRANCH  11  12
ENDBRANCH  10  11
ENDBRANCH   7  10
ENDBRANCH   6   7
ENDBRANCH   4   6
ENDBRANCH   3   4
ENDBRANCH   2   3
TORSDOF 11
ENDMDL
MODEL      311
REMARK 921   NORMALIZED FREE ENERGY PREDICTED BY IDOCK:   -3.70 KCAL/MOL
REMARK 922        TOTAL FREE ENERGY PREDICTED BY IDOCK:   -7.09 KCAL/MOL
REMARK 923 INTER-LIGAND FREE ENERGY PREDICTED BY IDOCK:   -7.15 KCAL/MOL
REMARK 924 INTRA-LIGAND FREE ENERGY PREDICTED BY IDOCK:    0.05 KCAL/MOL
REMARK 927      BINDING AFFINITY PREDICTED BY RF-SCORE:    0.00 PKD
ROOT
HETATM    1  C   UNL     1     -12.062  16.084  71.249  1.00  0.00    -0.440 C  
HETATM    2  C   UNL     1     -11.821  15.048  72.337  1.00  0.00    -0.432 C  
ENDROOT
BRANCH   2   3
HETATM    3  C   UNL     1     -13.136  14.438  72.820  1.00  0.00    -0.505 C  
BRANCH   3   4
HETATM    4  N   UNL     1     -13.775  13.716  71.721  1.00  0.00    -0.359 NA 
HETATM    5  H   UNL     1     -14.194  14.350  71.040  1.00  0.00     0.000 HD 
BRANCH   4   6
HETATM    6  C   UNL     1     -12.818  12.793  71.095  1.00  0.00    -0.226 C  
BRANCH   6   7
HETATM    7  C   UNL     1     -12.939  11.381  71.695  1.00  0.00    -0.418 C  
HETATM    8  O   UNL     1     -14.104  11.286  72.530  1.00  0.00    -0.066 OA 
HETATM    9  H   UNL     1     -14.178  10.414  72.900  1.00  0.00     0.000 HD 
BRANCH   7  10
HETATM   10  C   UNL     1     -13.019  10.321  70.589  1.00  0.00    -0.266 C  
BRANCH  10  11
HETATM   11  O   UNL     1     -11.723  10.162  69.980  1.00  0.00    -0.256 OA 
BRANCH  11  12
HETATM   12  C   UNL     1     -10.776   9.563  70.772  1.00  0.00    -0.321 A  
HETATM   13  C   UNL     1      -9.421   9.614  70.388  1.00  0.00    -0.280 A  
HETATM   14  C   UNL     1     -11.134   8.843  71.921  1.00  0.00    -0.442 A  
HETATM   15  C   UNL     1      -8.454   8.997  71.201  1.00  0.00    -0.234 A  
HETATM   16  C   UNL     1     -10.165   8.220  72.707  1.00  0.00    -0.325 A  
HETATM   17  C   UNL     1      -8.826   8.300  72.351  1.00  0.00    -0.286 A  
BRANCH  13  18
HETATM   18  C   UNL     1      -8.971  10.331  69.150  1.00  0.00    -0.180 C  
HETATM   19  O   UNL     1      -7.839  10.156  68.706  1.00  0.00    -0.088 OA 
BRANCH  18  20
HETATM   20  C   UNL     1      -9.962  11.216  68.404  1.00  0.00    -0.193 C  
BRANCH  20  21
HETATM   21  C   UNL     1      -9.341  11.876  67.177  1.00  0.00    -0.180 C  
BRANCH  21  22
HETATM   22  C   UNL     1      -9.693  13.341  67.069  1.00  0.00    -0.238 A  
HETATM   23  C   UNL     1      -9.748  14.147  68.216  1.00  0.00    -0.227 A  
HETATM   24  C   UNL     1     -10.049  15.506  68.112  1.00  0.00    -0.218 A  
HETATM   25  C   UNL     1     -10.304  16.071  66.864  1.00  0.00    -0.289 A  
HETATM   26  C   UNL     1     -10.265  15.276  65.721  1.00  0.00    -0.372 A  
HETATM   27  C   UNL     1      -9.965  13.916  65.822  1.00  0.00    -0.304 A  
ENDBRANCH  21  22
ENDBRANCH  20  21
ENDBRANCH  18  20
ENDBRANCH  13  18
ENDBRANCH  11  12
ENDBRANCH  10  11
ENDBRANCH   7  10
ENDBRANCH   6   7
ENDBRANCH   4   6
ENDBRANCH   3   4
ENDBRANCH   2   3
TORSDOF 11
ENDMDL
MODEL      312
REMARK 921   NORMALIZED FREE ENERGY PREDICTED BY IDOCK:   -3.69 KCAL/MOL
REMARK 922        TOTAL FREE ENERGY PREDICTED BY IDOCK:   -7.08 KCAL/MOL
REMARK 923 INTER-LIGAND FREE ENERGY PREDICTED BY IDOCK:   -6.23 KCAL/MOL
REMARK 924 INTRA-LIGAND FREE ENERGY PREDICTED BY IDOCK:   -0.85 KCAL/MOL
REMARK 927      BINDING AFFINITY PREDICTED BY RF-SCORE:    0.00 PKD
ROOT
HETATM    1  C   UNL     1      -5.504  10.351  65.059  1.00  0.00    -0.136 C  
HETATM    2  C   UNL     1      -6.904  10.056  65.575  1.00  0.00    -0.120 C  
ENDROOT
BRANCH   2   3
HETATM    3  C   UNL     1      -7.106  10.623  66.980  1.00  0.00    -0.100 C  
BRANCH   3   4
HETATM    4  N   UNL     1      -5.812  10.760  67.645  1.00  0.00    -0.043 NA 
HETATM    5  H   UNL     1      -5.037  10.723  66.982  1.00  0.00     0.000 HD 
BRANCH   4   6
HETATM    6  C   UNL     1      -5.784  11.986  68.454  1.00  0.00    -0.049 C  
BRANCH   6   7
HETATM    7  C   UNL     1      -7.150  12.694  68.433  1.00  0.00    -0.101 C  
HETATM    8  O   UNL     1      -7.363  13.414  69.657  1.00  0.00    -0.299 OA 
HETATM    9  H   UNL     1      -8.207  13.850  69.643  1.00  0.00     0.000 HD 
BRANCH   7  10
HETATM   10  C   UNL     1      -7.246  13.664  67.249  1.00  0.00     0.026 C  
BRANCH  10  11
HETATM   11  O   UNL     1      -8.606  13.711  66.775  1.00  0.00    -0.156 OA 
BRANCH  11  12
HETATM   12  C   UNL     1      -9.321  14.815  67.164  1.00  0.00    -0.224 A  
HETATM   13  C   UNL     1     -10.624  14.651  67.676  1.00  0.00    -0.256 A  
HETATM   14  C   UNL     1      -8.810  16.112  67.001  1.00  0.00    -0.231 A  
HETATM   15  C   UNL     1     -11.354  15.784  68.072  1.00  0.00    -0.310 A  
HETATM   16  C   UNL     1      -9.555  17.228  67.381  1.00  0.00    -0.252 A  
HETATM   17  C   UNL     1     -10.824  17.065  67.921  1.00  0.00    -0.302 A  
BRANCH  13  18
HETATM   18  C   UNL     1     -11.248  13.297  67.839  1.00  0.00    -0.272 C  
HETATM   19  O   UNL     1     -11.954  12.827  66.950  1.00  0.00    -0.398 OA 
BRANCH  18  20
HETATM   20  C   UNL     1     -10.929  12.477  69.083  1.00  0.00    -0.198 C  
BRANCH  20  21
HETATM   21  C   UNL     1     -12.133  12.336  70.009  1.00  0.00    -0.346 C  
BRANCH  21  22
HETATM   22  C   UNL     1     -12.256  10.946  70.588  1.00  0.00    -0.472 A  
HETATM   23  C   UNL     1     -11.483   9.892  70.081  1.00  0.00    -0.309 A  
HETATM   24  C   UNL     1     -11.579   8.613  70.633  1.00  0.00    -0.225 A  
HETATM   25  C   UNL     1     -12.452   8.375  71.693  1.00  0.00    -0.363 A  
HETATM   26  C   UNL     1     -13.234   9.413  72.195  1.00  0.00    -0.541 A  
HETATM   27  C   UNL     1     -13.141  10.692  71.643  1.00  0.00    -0.555 A  
ENDBRANCH  21  22
ENDBRANCH  20  21
ENDBRANCH  18  20
ENDBRANCH  13  18
ENDBRANCH  11  12
ENDBRANCH  10  11
ENDBRANCH   7  10
ENDBRANCH   6   7
ENDBRANCH   4   6
ENDBRANCH   3   4
ENDBRANCH   2   3
TORSDOF 11
ENDMDL
MODEL      313
REMARK 921   NORMALIZED FREE ENERGY PREDICTED BY IDOCK:   -3.67 KCAL/MOL
REMARK 922        TOTAL FREE ENERGY PREDICTED BY IDOCK:   -7.05 KCAL/MOL
REMARK 923 INTER-LIGAND FREE ENERGY PREDICTED BY IDOCK:   -5.42 KCAL/MOL
REMARK 924 INTRA-LIGAND FREE ENERGY PREDICTED BY IDOCK:   -1.64 KCAL/MOL
REMARK 927      BINDING AFFINITY PREDICTED BY RF-SCORE:    0.00 PKD
ROOT
HETATM    1  C   UNL     1     -12.467  12.938  64.722  1.00  0.00    -0.517 C  
HETATM    2  C   UNL     1     -11.791  11.858  63.891  1.00  0.00    -0.509 C  
ENDROOT
BRANCH   2   3
HETATM    3  C   UNL     1     -10.404  11.526  64.438  1.00  0.00    -0.312 C  
BRANCH   3   4
HETATM    4  N   UNL     1     -10.212  10.077  64.446  1.00  0.00    -0.381 NA 
HETATM    5  H   UNL     1     -10.343   9.670  63.520  1.00  0.00     0.000 HD 
BRANCH   4   6
HETATM    6  C   UNL     1      -8.898   9.742  65.012  1.00  0.00    -0.191 C  
BRANCH   6   7
HETATM    7  C   UNL     1      -8.897   8.319  65.600  1.00  0.00    -0.132 C  
HETATM    8  O   UNL     1      -7.597   7.986  66.110  1.00  0.00    -0.082 OA 
HETATM    9  H   UNL     1      -7.597   7.108  66.472  1.00  0.00     0.000 HD 
BRANCH   7  10
HETATM   10  C   UNL     1      -9.932   8.190  66.724  1.00  0.00    -0.279 C  
BRANCH  10  11
HETATM   11  O   UNL     1      -9.443   8.851  67.907  1.00  0.00    -0.140 OA 
BRANCH  11  12
HETATM   12  C   UNL     1     -10.355   9.653  68.545  1.00  0.00    -0.205 A  
HETATM   13  C   UNL     1     -10.434   9.626  69.953  1.00  0.00    -0.285 A  
HETATM   14  C   UNL     1     -11.258  10.450  67.826  1.00  0.00    -0.309 A  
HETATM   15  C   UNL     1     -11.371  10.447  70.603  1.00  0.00    -0.411 A  
HETATM   16  C   UNL     1     -12.195  11.245  68.486  1.00  0.00     0.032 A  
HETATM   17  C   UNL     1     -12.249  11.248  69.873  1.00  0.00    -0.358 A  
BRANCH  13  18
HETATM   18  C   UNL     1      -9.527   8.767  70.783  1.00  0.00    -0.206 C  
HETATM   19  O   UNL     1      -8.410   9.168  71.101  1.00  0.00    -0.241 OA 
BRANCH  18  20
HETATM   20  C   UNL     1     -10.038   7.427  71.296  1.00  0.00    -0.195 C  
BRANCH  20  21
HETATM   21  C   UNL     1     -10.128   6.379  70.191  1.00  0.00    -0.209 C  
BRANCH  21  22
HETATM   22  C   UNL     1      -8.870   5.551  70.077  1.00  0.00    -0.139 A  
HETATM   23  C   UNL     1      -7.867   5.900  69.161  1.00  0.00    -0.095 A  
HETATM   24  C   UNL     1      -6.694   5.148  69.074  1.00  0.00    -0.053 A  
HETATM   25  C   UNL     1      -6.513   4.039  69.897  1.00  0.00    -0.032 A  
HETATM   26  C   UNL     1      -7.510   3.676  70.801  1.00  0.00    -0.040 A  
HETATM   27  C   UNL     1      -8.684   4.425  70.889  1.00  0.00    -0.126 A  
ENDBRANCH  21  22
ENDBRANCH  20  21
ENDBRANCH  18  20
ENDBRANCH  13  18
ENDBRANCH  11  12
ENDBRANCH  10  11
ENDBRANCH   7  10
ENDBRANCH   6   7
ENDBRANCH   4   6
ENDBRANCH   3   4
ENDBRANCH   2   3
TORSDOF 11
ENDMDL
MODEL      314
REMARK 921   NORMALIZED FREE ENERGY PREDICTED BY IDOCK:   -3.67 KCAL/MOL
REMARK 922        TOTAL FREE ENERGY PREDICTED BY IDOCK:   -7.04 KCAL/MOL
REMARK 923 INTER-LIGAND FREE ENERGY PREDICTED BY IDOCK:   -5.17 KCAL/MOL
REMARK 924 INTRA-LIGAND FREE ENERGY PREDICTED BY IDOCK:   -1.88 KCAL/MOL
REMARK 927      BINDING AFFINITY PREDICTED BY RF-SCORE:    0.00 PKD
ROOT
HETATM    1  C   UNL     1     -12.115  13.615  63.965  1.00  0.00    -0.474 C  
HETATM    2  C   UNL     1     -11.831  12.121  63.913  1.00  0.00    -0.558 C  
ENDROOT
BRANCH   2   3
HETATM    3  C   UNL     1     -10.543  11.830  63.144  1.00  0.00    -0.280 C  
BRANCH   3   4
HETATM    4  N   UNL     1     -10.138  10.444  63.371  1.00  0.00    -0.464 NA 
HETATM    5  H   UNL     1      -9.726  10.026  62.537  1.00  0.00     0.000 HD 
BRANCH   4   6
HETATM    6  C   UNL     1      -9.237  10.362  64.529  1.00  0.00    -0.246 C  
BRANCH   6   7
HETATM    7  C   UNL     1      -9.778   9.379  65.582  1.00  0.00    -0.266 C  
HETATM    8  O   UNL     1      -8.706   8.620  66.161  1.00  0.00    -0.138 OA 
HETATM    9  H   UNL     1      -9.040   8.013  66.811  1.00  0.00     0.000 HD 
BRANCH   7  10
HETATM   10  C   UNL     1     -10.529  10.124  66.692  1.00  0.00    -0.185 C  
BRANCH  10  11
HETATM   11  O   UNL     1      -9.601  10.517  67.721  1.00  0.00    -0.154 OA 
BRANCH  11  12
HETATM   12  C   UNL     1      -9.278  11.850  67.737  1.00  0.00    -0.184 A  
HETATM   13  C   UNL     1      -7.926  12.236  67.640  1.00  0.00    -0.161 A  
HETATM   14  C   UNL     1     -10.259  12.838  67.916  1.00  0.00    -0.229 A  
HETATM   15  C   UNL     1      -7.599  13.603  67.658  1.00  0.00    -0.186 A  
HETATM   16  C   UNL     1      -9.916  14.189  67.951  1.00  0.00    -0.231 A  
HETATM   17  C   UNL     1      -8.589  14.573  67.818  1.00  0.00    -0.176 A  
BRANCH  13  18
HETATM   18  C   UNL     1      -6.822  11.232  67.489  1.00  0.00    -0.086 C  
HETATM   19  O   UNL     1      -6.550  10.769  66.383  1.00  0.00    -0.109 OA 
BRANCH  18  20
HETATM   20  C   UNL     1      -5.989  10.854  68.707  1.00  0.00    -0.039 C  
BRANCH  20  21
HETATM   21  C   UNL     1      -6.841  10.686  69.961  1.00  0.00    -0.150 C  
BRANCH  21  22
HETATM   22  C   UNL     1      -7.527   9.342  70.018  1.00  0.00    -0.094 A  
HETATM   23  C   UNL     1      -8.679   9.162  70.797  1.00  0.00    -0.285 A  
HETATM   24  C   UNL     1      -9.326   7.925  70.829  1.00  0.00    -0.161 A  
HETATM   25  C   UNL     1      -8.827   6.856  70.088  1.00  0.00    -0.145 A  
HETATM   26  C   UNL     1      -7.675   7.021  69.321  1.00  0.00    -0.109 A  
HETATM   27  C   UNL     1      -7.025   8.257  69.288  1.00  0.00    -0.058 A  
ENDBRANCH  21  22
ENDBRANCH  20  21
ENDBRANCH  18  20
ENDBRANCH  13  18
ENDBRANCH  11  12
ENDBRANCH  10  11
ENDBRANCH   7  10
ENDBRANCH   6   7
ENDBRANCH   4   6
ENDBRANCH   3   4
ENDBRANCH   2   3
TORSDOF 11
ENDMDL
MODEL      315
REMARK 921   NORMALIZED FREE ENERGY PREDICTED BY IDOCK:   -3.62 KCAL/MOL
REMARK 922        TOTAL FREE ENERGY PREDICTED BY IDOCK:   -6.97 KCAL/MOL
REMARK 923 INTER-LIGAND FREE ENERGY PREDICTED BY IDOCK:   -5.28 KCAL/MOL
REMARK 924 INTRA-LIGAND FREE ENERGY PREDICTED BY IDOCK:   -1.69 KCAL/MOL
REMARK 927      BINDING AFFINITY PREDICTED BY RF-SCORE:    0.00 PKD
ROOT
HETATM    1  C   UNL     1     -14.123   8.896  72.427  1.00  0.00    -0.493 C  
HETATM    2  C   UNL     1     -13.330   8.128  71.381  1.00  0.00    -0.243 C  
ENDROOT
BRANCH   2   3
HETATM    3  C   UNL     1     -11.892   8.637  71.292  1.00  0.00    -0.295 C  
BRANCH   3   4
HETATM    4  N   UNL     1     -11.333   8.302  69.984  1.00  0.00    -0.452 NA 
HETATM    5  H   UNL     1     -12.061   8.102  69.298  1.00  0.00     0.000 HD 
BRANCH   4   6
HETATM    6  C   UNL     1     -10.430   9.369  69.529  1.00  0.00    -0.218 C  
BRANCH   6   7
HETATM    7  C   UNL     1     -10.628   9.658  68.030  1.00  0.00    -0.243 C  
HETATM    8  O   UNL     1      -9.686  10.644  67.580  1.00  0.00    -0.163 OA 
HETATM    9  H   UNL     1      -9.808  10.822  66.655  1.00  0.00     0.000 HD 
BRANCH   7  10
HETATM   10  C   UNL     1     -10.461   8.380  67.200  1.00  0.00    -0.310 C  
BRANCH  10  11
HETATM   11  O   UNL     1      -9.505   7.512  67.838  1.00  0.00    -0.141 OA 
BRANCH  11  12
HETATM   12  C   UNL     1      -9.479   6.225  67.364  1.00  0.00    -0.115 A  
HETATM   13  C   UNL     1      -8.467   5.347  67.802  1.00  0.00    -0.105 A  
HETATM   14  C   UNL     1     -10.397   5.782  66.400  1.00  0.00    -0.207 A  
HETATM   15  C   UNL     1      -8.442   4.030  67.313  1.00  0.00    -0.100 A  
HETATM   16  C   UNL     1     -10.347   4.478  65.910  1.00  0.00    -0.289 A  
HETATM   17  C   UNL     1      -9.374   3.600  66.368  1.00  0.00    -0.194 A  
BRANCH  13  18
HETATM   18  C   UNL     1      -7.428   5.766  68.800  1.00  0.00    -0.085 C  
HETATM   19  O   UNL     1      -6.554   6.569  68.486  1.00  0.00    -0.047 OA 
BRANCH  18  20
HETATM   20  C   UNL     1      -7.520   5.247  70.230  1.00  0.00    -0.071 C  
BRANCH  20  21
HETATM   21  C   UNL     1      -8.850   5.596  70.889  1.00  0.00    -0.147 C  
BRANCH  21  22
HETATM   22  C   UNL     1      -9.485   4.408  71.572  1.00  0.00    -0.215 A  
HETATM   23  C   UNL     1      -9.129   3.102  71.207  1.00  0.00    -0.179 A  
HETATM   24  C   UNL     1      -9.699   2.005  71.855  1.00  0.00    -0.205 A  
HETATM   25  C   UNL     1     -10.633   2.201  72.870  1.00  0.00    -0.240 A  
HETATM   26  C   UNL     1     -11.003   3.495  73.231  1.00  0.00    -0.271 A  
HETATM   27  C   UNL     1     -10.436   4.594  72.583  1.00  0.00    -0.258 A  
ENDBRANCH  21  22
ENDBRANCH  20  21
ENDBRANCH  18  20
ENDBRANCH  13  18
ENDBRANCH  11  12
ENDBRANCH  10  11
ENDBRANCH   7  10
ENDBRANCH   6   7
ENDBRANCH   4   6
ENDBRANCH   3   4
ENDBRANCH   2   3
TORSDOF 11
ENDMDL
MODEL      316
REMARK 921   NORMALIZED FREE ENERGY PREDICTED BY IDOCK:   -3.62 KCAL/MOL
REMARK 922        TOTAL FREE ENERGY PREDICTED BY IDOCK:   -6.96 KCAL/MOL
REMARK 923 INTER-LIGAND FREE ENERGY PREDICTED BY IDOCK:   -5.77 KCAL/MOL
REMARK 924 INTRA-LIGAND FREE ENERGY PREDICTED BY IDOCK:   -1.19 KCAL/MOL
REMARK 927      BINDING AFFINITY PREDICTED BY RF-SCORE:    0.00 PKD
ROOT
HETATM    1  C   UNL     1      -9.221   4.854  63.412  1.00  0.00     0.099 C  
HETATM    2  C   UNL     1      -9.974   3.711  64.077  1.00  0.00    -0.190 C  
ENDROOT
BRANCH   2   3
HETATM    3  C   UNL     1     -10.083   3.926  65.586  1.00  0.00    -0.048 C  
BRANCH   3   4
HETATM    4  N   UNL     1     -11.023   5.011  65.861  1.00  0.00    -0.770 NA 
HETATM    5  H   UNL     1     -11.970   4.665  66.014  1.00  0.00     0.000 HD 
BRANCH   4   6
HETATM    6  C   UNL     1     -10.546   5.822  66.991  1.00  0.00    -0.300 C  
BRANCH   6   7
HETATM    7  C   UNL     1      -9.009   5.906  67.001  1.00  0.00    -0.116 C  
HETATM    8  O   UNL     1      -8.552   6.876  66.045  1.00  0.00    -0.137 OA 
HETATM    9  H   UNL     1      -7.604   6.927  66.052  1.00  0.00     0.000 HD 
BRANCH   7  10
HETATM   10  C   UNL     1      -8.491   6.282  68.394  1.00  0.00    -0.115 C  
BRANCH  10  11
HETATM   11  O   UNL     1      -9.003   7.576  68.765  1.00  0.00    -0.131 OA 
BRANCH  11  12
HETATM   12  C   UNL     1      -8.053   8.550  68.942  1.00  0.00    -0.119 A  
HETATM   13  C   UNL     1      -8.459   9.872  69.215  1.00  0.00    -0.158 A  
HETATM   14  C   UNL     1      -6.685   8.274  68.790  1.00  0.00    -0.058 A  
HETATM   15  C   UNL     1      -7.482  10.867  69.393  1.00  0.00    -0.105 A  
HETATM   16  C   UNL     1      -5.730   9.276  68.951  1.00  0.00    -0.040 A  
HETATM   17  C   UNL     1      -6.126  10.571  69.257  1.00  0.00    -0.039 A  
BRANCH  13  18
HETATM   18  C   UNL     1      -9.905  10.247  69.350  1.00  0.00    -0.227 C  
HETATM   19  O   UNL     1     -10.549   9.893  70.334  1.00  0.00    -0.274 OA 
BRANCH  18  20
HETATM   20  C   UNL     1     -10.542  11.141  68.294  1.00  0.00    -0.221 C  
BRANCH  20  21
HETATM   21  C   UNL     1     -10.387  10.576  66.885  1.00  0.00    -0.293 C  
BRANCH  21  22
HETATM   22  C   UNL     1     -11.067  11.430  65.842  1.00  0.00    -0.225 A  
HETATM   23  C   UNL     1     -10.898  11.159  64.477  1.00  0.00    -0.320 A  
HETATM   24  C   UNL     1     -11.546  11.935  63.514  1.00  0.00    -0.537 A  
HETATM   25  C   UNL     1     -12.365  12.991  63.905  1.00  0.00    -0.453 A  
HETATM   26  C   UNL     1     -12.529  13.278  65.259  1.00  0.00    -0.543 A  
HETATM   27  C   UNL     1     -11.881  12.504  66.224  1.00  0.00    -0.453 A  
ENDBRANCH  21  22
ENDBRANCH  20  21
ENDBRANCH  18  20
ENDBRANCH  13  18
ENDBRANCH  11  12
ENDBRANCH  10  11
ENDBRANCH   7  10
ENDBRANCH   6   7
ENDBRANCH   4   6
ENDBRANCH   3   4
ENDBRANCH   2   3
TORSDOF 11
ENDMDL
MODEL      317
REMARK 921   NORMALIZED FREE ENERGY PREDICTED BY IDOCK:   -3.61 KCAL/MOL
REMARK 922        TOTAL FREE ENERGY PREDICTED BY IDOCK:   -6.95 KCAL/MOL
REMARK 923 INTER-LIGAND FREE ENERGY PREDICTED BY IDOCK:   -5.13 KCAL/MOL
REMARK 924 INTRA-LIGAND FREE ENERGY PREDICTED BY IDOCK:   -1.82 KCAL/MOL
REMARK 927      BINDING AFFINITY PREDICTED BY RF-SCORE:    0.00 PKD
ROOT
HETATM    1  C   UNL     1      -5.488  10.894  65.799  1.00  0.00    -0.137 C  
HETATM    2  C   UNL     1      -6.981  10.804  66.076  1.00  0.00    -0.104 C  
ENDROOT
BRANCH   2   3
HETATM    3  C   UNL     1      -7.739  10.285  64.856  1.00  0.00    -0.124 C  
BRANCH   3   4
HETATM    4  N   UNL     1      -9.159  10.155  65.178  1.00  0.00    -0.184 NA 
HETATM    5  H   UNL     1      -9.317   9.502  65.946  1.00  0.00     0.000 HD 
BRANCH   4   6
HETATM    6  C   UNL     1      -9.741  11.476  65.453  1.00  0.00    -0.233 C  
BRANCH   6   7
HETATM    7  C   UNL     1     -10.365  11.523  66.860  1.00  0.00    -0.223 C  
HETATM    8  O   UNL     1     -11.255  12.644  66.978  1.00  0.00    -0.271 OA 
HETATM    9  H   UNL     1     -11.640  12.672  67.847  1.00  0.00     0.000 HD 
BRANCH   7  10
HETATM   10  C   UNL     1     -11.133  10.230  67.161  1.00  0.00    -0.091 C  
BRANCH  10  11
HETATM   11  O   UNL     1     -10.852   9.806  68.509  1.00  0.00    -0.222 OA 
BRANCH  11  12
HETATM   12  C   UNL     1      -9.526   9.596  68.788  1.00  0.00    -0.148 A  
HETATM   13  C   UNL     1      -8.928   8.370  68.428  1.00  0.00    -0.136 A  
HETATM   14  C   UNL     1      -8.766  10.547  69.486  1.00  0.00    -0.040 A  
HETATM   15  C   UNL     1      -7.569   8.158  68.719  1.00  0.00    -0.105 A  
HETATM   16  C   UNL     1      -7.424  10.313  69.784  1.00  0.00    -0.169 A  
HETATM   17  C   UNL     1      -6.824   9.122  69.396  1.00  0.00    -0.048 A  
BRANCH  13  18
HETATM   18  C   UNL     1      -9.692   7.293  67.717  1.00  0.00    -0.140 C  
HETATM   19  O   UNL     1      -9.903   7.375  66.510  1.00  0.00    -0.197 OA 
BRANCH  18  20
HETATM   20  C   UNL     1     -10.130   6.058  68.494  1.00  0.00    -0.197 C  
BRANCH  20  21
HETATM   21  C   UNL     1     -11.425   6.288  69.267  1.00  0.00    -0.288 C  
BRANCH  21  22
HETATM   22  C   UNL     1     -11.179   6.601  70.724  1.00  0.00    -0.366 A  
HETATM   23  C   UNL     1     -11.490   7.866  71.243  1.00  0.00    -0.293 A  
HETATM   24  C   UNL     1     -11.285   8.147  72.596  1.00  0.00    -0.447 A  
HETATM   25  C   UNL     1     -10.762   7.170  73.440  1.00  0.00    -0.410 A  
HETATM   26  C   UNL     1     -10.437   5.914  72.930  1.00  0.00    -0.249 A  
HETATM   27  C   UNL     1     -10.640   5.631  71.578  1.00  0.00    -0.306 A  
ENDBRANCH  21  22
ENDBRANCH  20  21
ENDBRANCH  18  20
ENDBRANCH  13  18
ENDBRANCH  11  12
ENDBRANCH  10  11
ENDBRANCH   7  10
ENDBRANCH   6   7
ENDBRANCH   4   6
ENDBRANCH   3   4
ENDBRANCH   2   3
TORSDOF 11
ENDMDL
MODEL      318
REMARK 921   NORMALIZED FREE ENERGY PREDICTED BY IDOCK:   -3.60 KCAL/MOL
REMARK 922        TOTAL FREE ENERGY PREDICTED BY IDOCK:   -6.94 KCAL/MOL
REMARK 923 INTER-LIGAND FREE ENERGY PREDICTED BY IDOCK:   -5.80 KCAL/MOL
REMARK 924 INTRA-LIGAND FREE ENERGY PREDICTED BY IDOCK:   -1.14 KCAL/MOL
REMARK 927      BINDING AFFINITY PREDICTED BY RF-SCORE:    0.00 PKD
ROOT
HETATM    1  C   UNL     1      -5.692   7.096  67.200  1.00  0.00    -0.025 C  
HETATM    2  C   UNL     1      -5.590   8.371  66.376  1.00  0.00    -0.035 C  
ENDROOT
BRANCH   2   3
HETATM    3  C   UNL     1      -6.900   8.662  65.645  1.00  0.00    -0.071 C  
BRANCH   3   4
HETATM    4  N   UNL     1      -7.531   9.848  66.220  1.00  0.00    -0.100 NA 
HETATM    5  H   UNL     1      -7.245  10.702  65.740  1.00  0.00     0.000 HD 
BRANCH   4   6
HETATM    6  C   UNL     1      -8.991   9.690  66.236  1.00  0.00    -0.155 C  
BRANCH   6   7
HETATM    7  C   UNL     1      -9.656  10.781  67.095  1.00  0.00    -0.161 C  
HETATM    8  O   UNL     1      -8.956  12.028  66.956  1.00  0.00    -0.184 OA 
HETATM    9  H   UNL     1      -9.367  12.700  67.486  1.00  0.00     0.000 HD 
BRANCH   7  10
HETATM   10  C   UNL     1     -11.123  10.975  66.696  1.00  0.00    -0.133 C  
BRANCH  10  11
HETATM   11  O   UNL     1     -11.966  10.779  67.848  1.00  0.00    -0.518 OA 
BRANCH  11  12
HETATM   12  C   UNL     1     -11.984  11.820  68.740  1.00  0.00    -0.257 A  
HETATM   13  C   UNL     1     -12.132  11.550  70.116  1.00  0.00    -0.432 A  
HETATM   14  C   UNL     1     -11.927  13.154  68.309  1.00  0.00    -0.328 A  
HETATM   15  C   UNL     1     -12.152  12.619  71.028  1.00  0.00    -0.019 A  
HETATM   16  C   UNL     1     -11.967  14.205  69.225  1.00  0.00    -0.382 A  
HETATM   17  C   UNL     1     -12.075  13.939  70.583  1.00  0.00    -0.417 A  
BRANCH  13  18
HETATM   18  C   UNL     1     -12.241  10.150  70.643  1.00  0.00    -0.302 C  
HETATM   19  O   UNL     1     -13.340   9.612  70.758  1.00  0.00    -0.209 OA 
BRANCH  18  20
HETATM   20  C   UNL     1     -10.968   9.373  70.956  1.00  0.00    -0.409 C  
BRANCH  20  21
HETATM   21  C   UNL     1     -10.688   8.280  69.930  1.00  0.00    -0.234 C  
BRANCH  21  22
HETATM   22  C   UNL     1     -10.463   6.931  70.570  1.00  0.00    -0.234 A  
HETATM   23  C   UNL     1      -9.500   6.050  70.056  1.00  0.00    -0.180 A  
HETATM   24  C   UNL     1      -9.277   4.813  70.664  1.00  0.00    -0.191 A  
HETATM   25  C   UNL     1     -10.015   4.442  71.785  1.00  0.00    -0.257 A  
HETATM   26  C   UNL     1     -10.983   5.305  72.295  1.00  0.00    -0.249 A  
HETATM   27  C   UNL     1     -11.210   6.542  71.689  1.00  0.00    -0.315 A  
ENDBRANCH  21  22
ENDBRANCH  20  21
ENDBRANCH  18  20
ENDBRANCH  13  18
ENDBRANCH  11  12
ENDBRANCH  10  11
ENDBRANCH   7  10
ENDBRANCH   6   7
ENDBRANCH   4   6
ENDBRANCH   3   4
ENDBRANCH   2   3
TORSDOF 11
ENDMDL
MODEL      319
REMARK 921   NORMALIZED FREE ENERGY PREDICTED BY IDOCK:   -3.60 KCAL/MOL
REMARK 922        TOTAL FREE ENERGY PREDICTED BY IDOCK:   -6.93 KCAL/MOL
REMARK 923 INTER-LIGAND FREE ENERGY PREDICTED BY IDOCK:   -5.01 KCAL/MOL
REMARK 924 INTRA-LIGAND FREE ENERGY PREDICTED BY IDOCK:   -1.92 KCAL/MOL
REMARK 927      BINDING AFFINITY PREDICTED BY RF-SCORE:    0.00 PKD
ROOT
HETATM    1  C   UNL     1     -11.789  13.491  67.777  1.00  0.00    -0.398 C  
HETATM    2  C   UNL     1     -11.062  12.300  68.382  1.00  0.00    -0.283 C  
ENDROOT
BRANCH   2   3
HETATM    3  C   UNL     1     -11.681  10.982  67.920  1.00  0.00    -0.135 C  
BRANCH   3   4
HETATM    4  N   UNL     1     -10.623  10.055  67.521  1.00  0.00    -0.262 NA 
HETATM    5  H   UNL     1     -10.989   9.265  66.989  1.00  0.00     0.000 HD 
BRANCH   4   6
HETATM    6  C   UNL     1      -9.572  10.771  66.786  1.00  0.00    -0.172 C  
BRANCH   6   7
HETATM    7  C   UNL     1      -8.173  10.318  67.241  1.00  0.00    -0.121 C  
HETATM    8  O   UNL     1      -8.019  10.506  68.657  1.00  0.00    -0.109 OA 
HETATM    9  H   UNL     1      -7.156  10.226  68.937  1.00  0.00     0.000 HD 
BRANCH   7  10
HETATM   10  C   UNL     1      -7.935   8.843  66.896  1.00  0.00    -0.101 C  
BRANCH  10  11
HETATM   11  O   UNL     1      -8.355   8.017  67.998  1.00  0.00    -0.124 OA 
BRANCH  11  12
HETATM   12  C   UNL     1      -8.276   6.666  67.777  1.00  0.00    -0.119 A  
HETATM   13  C   UNL     1      -9.459   5.898  67.749  1.00  0.00    -0.114 A  
HETATM   14  C   UNL     1      -7.039   6.017  67.644  1.00  0.00    -0.074 A  
HETATM   15  C   UNL     1      -9.374   4.514  67.523  1.00  0.00    -0.172 A  
HETATM   16  C   UNL     1      -6.971   4.639  67.440  1.00  0.00    -0.061 A  
HETATM   17  C   UNL     1      -8.137   3.888  67.374  1.00  0.00    -0.091 A  
BRANCH  13  18
HETATM   18  C   UNL     1     -10.813   6.520  67.924  1.00  0.00    -0.304 C  
HETATM   19  O   UNL     1     -11.378   7.058  66.975  1.00  0.00    -0.238 OA 
BRANCH  18  20
HETATM   20  C   UNL     1     -11.514   6.404  69.272  1.00  0.00    -0.318 C  
BRANCH  20  21
HETATM   21  C   UNL     1     -10.724   5.557  70.265  1.00  0.00    -0.333 C  
BRANCH  21  22
HETATM   22  C   UNL     1     -10.179   6.373  71.413  1.00  0.00    -0.228 A  
HETATM   23  C   UNL     1     -11.014   6.765  72.469  1.00  0.00    -0.281 A  
HETATM   24  C   UNL     1     -10.503   7.499  73.542  1.00  0.00    -0.362 A  
HETATM   25  C   UNL     1      -9.156   7.852  73.567  1.00  0.00    -0.346 A  
HETATM   26  C   UNL     1      -8.321   7.479  72.516  1.00  0.00    -0.138 A  
HETATM   27  C   UNL     1      -8.829   6.746  71.441  1.00  0.00    -0.131 A  
ENDBRANCH  21  22
ENDBRANCH  20  21
ENDBRANCH  18  20
ENDBRANCH  13  18
ENDBRANCH  11  12
ENDBRANCH  10  11
ENDBRANCH   7  10
ENDBRANCH   6   7
ENDBRANCH   4   6
ENDBRANCH   3   4
ENDBRANCH   2   3
TORSDOF 11
ENDMDL
MODEL      320
REMARK 921   NORMALIZED FREE ENERGY PREDICTED BY IDOCK:   -3.59 KCAL/MOL
REMARK 922        TOTAL FREE ENERGY PREDICTED BY IDOCK:   -6.92 KCAL/MOL
REMARK 923 INTER-LIGAND FREE ENERGY PREDICTED BY IDOCK:   -5.37 KCAL/MOL
REMARK 924 INTRA-LIGAND FREE ENERGY PREDICTED BY IDOCK:   -1.55 KCAL/MOL
REMARK 927      BINDING AFFINITY PREDICTED BY RF-SCORE:    0.00 PKD
ROOT
HETATM    1  C   UNL     1     -11.903  14.879  68.684  1.00  0.00    -0.332 C  
HETATM    2  C   UNL     1     -11.948  14.406  67.239  1.00  0.00    -0.409 C  
ENDROOT
BRANCH   2   3
HETATM    3  C   UNL     1     -11.161  13.109  67.057  1.00  0.00    -0.294 C  
BRANCH   3   4
HETATM    4  N   UNL     1     -11.953  12.161  66.275  1.00  0.00    -0.613 NA 
HETATM    5  H   UNL     1     -12.930  12.148  66.567  1.00  0.00     0.000 HD 
BRANCH   4   6
HETATM    6  C   UNL     1     -11.813  12.444  64.840  1.00  0.00    -0.386 C  
BRANCH   6   7
HETATM    7  C   UNL     1     -10.848  11.448  64.171  1.00  0.00    -0.365 C  
HETATM    8  O   UNL     1      -9.818  12.147  63.457  1.00  0.00    -0.536 OA 
HETATM    9  H   UNL     1      -9.223  11.532  63.044  1.00  0.00     0.000 HD 
BRANCH   7  10
HETATM   10  C   UNL     1     -10.207  10.524  65.213  1.00  0.00    -0.282 C  
BRANCH  10  11
HETATM   11  O   UNL     1      -8.772  10.632  65.135  1.00  0.00    -0.187 OA 
BRANCH  11  12
HETATM   12  C   UNL     1      -8.106  10.404  66.311  1.00  0.00    -0.136 A  
HETATM   13  C   UNL     1      -7.047   9.473  66.338  1.00  0.00    -0.088 A  
HETATM   14  C   UNL     1      -8.497  11.027  67.506  1.00  0.00    -0.127 A  
HETATM   15  C   UNL     1      -6.368   9.241  67.546  1.00  0.00    -0.062 A  
HETATM   16  C   UNL     1      -7.825  10.771  68.701  1.00  0.00    -0.122 A  
HETATM   17  C   UNL     1      -6.758   9.883  68.721  1.00  0.00    -0.050 A  
BRANCH  13  18
HETATM   18  C   UNL     1      -6.602   8.741  65.107  1.00  0.00    -0.064 C  
HETATM   19  O   UNL     1      -5.920   9.310  64.258  1.00  0.00    -0.069 OA 
BRANCH  18  20
HETATM   20  C   UNL     1      -6.937   7.262  64.962  1.00  0.00    -0.055 C  
BRANCH  20  21
HETATM   21  C   UNL     1      -8.440   7.003  64.979  1.00  0.00     0.018 C  
BRANCH  21  22
HETATM   22  C   UNL     1      -8.930   6.537  66.329  1.00  0.00    -0.168 A  
HETATM   23  C   UNL     1     -10.265   6.737  66.711  1.00  0.00    -0.273 A  
HETATM   24  C   UNL     1     -10.723   6.285  67.950  1.00  0.00    -0.380 A  
HETATM   25  C   UNL     1      -9.852   5.635  68.821  1.00  0.00    -0.193 A  
HETATM   26  C   UNL     1      -8.520   5.443  68.457  1.00  0.00    -0.096 A  
HETATM   27  C   UNL     1      -8.059   5.896  67.219  1.00  0.00    -0.102 A  
ENDBRANCH  21  22
ENDBRANCH  20  21
ENDBRANCH  18  20
ENDBRANCH  13  18
ENDBRANCH  11  12
ENDBRANCH  10  11
ENDBRANCH   7  10
ENDBRANCH   6   7
ENDBRANCH   4   6
ENDBRANCH   3   4
ENDBRANCH   2   3
TORSDOF 11
ENDMDL
MODEL      321
REMARK 921   NORMALIZED FREE ENERGY PREDICTED BY IDOCK:   -3.59 KCAL/MOL
REMARK 922        TOTAL FREE ENERGY PREDICTED BY IDOCK:   -6.91 KCAL/MOL
REMARK 923 INTER-LIGAND FREE ENERGY PREDICTED BY IDOCK:   -5.11 KCAL/MOL
REMARK 924 INTRA-LIGAND FREE ENERGY PREDICTED BY IDOCK:   -1.80 KCAL/MOL
REMARK 927      BINDING AFFINITY PREDICTED BY RF-SCORE:    0.00 PKD
ROOT
HETATM    1  C   UNL     1     -13.593   6.134  71.650  1.00  0.00     0.877 C  
HETATM    2  C   UNL     1     -14.342   7.430  71.378  1.00  0.00    -0.522 C  
ENDROOT
BRANCH   2   3
HETATM    3  C   UNL     1     -13.677   8.611  72.083  1.00  0.00    -0.415 C  
BRANCH   3   4
HETATM    4  N   UNL     1     -12.360   8.212  72.575  1.00  0.00    -0.567 NA 
HETATM    5  H   UNL     1     -12.167   7.227  72.391  1.00  0.00     0.000 HD 
BRANCH   4   6
HETATM    6  C   UNL     1     -11.322   9.088  72.016  1.00  0.00    -0.324 C  
BRANCH   6   7
HETATM    7  C   UNL     1     -11.855   9.875  70.806  1.00  0.00    -0.330 C  
HETATM    8  O   UNL     1     -11.844  11.285  71.077  1.00  0.00    -0.304 OA 
HETATM    9  H   UNL     1     -12.173  11.770  70.330  1.00  0.00     0.000 HD 
BRANCH   7  10
HETATM   10  C   UNL     1     -11.015   9.592  69.555  1.00  0.00    -0.195 C  
BRANCH  10  11
HETATM   11  O   UNL     1     -10.864  10.804  68.791  1.00  0.00    -0.190 OA 
BRANCH  11  12
HETATM   12  C   UNL     1      -9.572  11.234  68.629  1.00  0.00    -0.190 A  
HETATM   13  C   UNL     1      -9.294  12.257  67.700  1.00  0.00    -0.186 A  
HETATM   14  C   UNL     1      -8.509  10.631  69.319  1.00  0.00    -0.102 A  
HETATM   15  C   UNL     1      -7.968  12.693  67.536  1.00  0.00    -0.174 A  
HETATM   16  C   UNL     1      -7.196  11.062  69.130  1.00  0.00    -0.121 A  
HETATM   17  C   UNL     1      -6.925  12.095  68.244  1.00  0.00    -0.080 A  
BRANCH  13  18
HETATM   18  C   UNL     1     -10.376  12.918  66.899  1.00  0.00    -0.243 C  
HETATM   19  O   UNL     1     -10.624  14.111  67.056  1.00  0.00    -0.273 OA 
BRANCH  18  20
HETATM   20  C   UNL     1     -11.106  12.113  65.832  1.00  0.00    -0.360 C  
BRANCH  20  21
HETATM   21  C   UNL     1     -10.176  11.656  64.713  1.00  0.00    -0.321 C  
BRANCH  21  22
HETATM   22  C   UNL     1      -9.383  10.427  65.088  1.00  0.00    -0.271 A  
HETATM   23  C   UNL     1      -8.013  10.347  64.800  1.00  0.00    -0.103 A  
HETATM   24  C   UNL     1      -7.276   9.220  65.169  1.00  0.00    -0.094 A  
HETATM   25  C   UNL     1      -7.901   8.161  65.823  1.00  0.00    -0.096 A  
HETATM   26  C   UNL     1      -9.265   8.224  66.101  1.00  0.00    -0.250 A  
HETATM   27  C   UNL     1     -10.004   9.350  65.732  1.00  0.00    -0.278 A  
ENDBRANCH  21  22
ENDBRANCH  20  21
ENDBRANCH  18  20
ENDBRANCH  13  18
ENDBRANCH  11  12
ENDBRANCH  10  11
ENDBRANCH   7  10
ENDBRANCH   6   7
ENDBRANCH   4   6
ENDBRANCH   3   4
ENDBRANCH   2   3
TORSDOF 11
ENDMDL
MODEL      322
REMARK 921   NORMALIZED FREE ENERGY PREDICTED BY IDOCK:   -3.59 KCAL/MOL
REMARK 922        TOTAL FREE ENERGY PREDICTED BY IDOCK:   -6.91 KCAL/MOL
REMARK 923 INTER-LIGAND FREE ENERGY PREDICTED BY IDOCK:   -6.50 KCAL/MOL
REMARK 924 INTRA-LIGAND FREE ENERGY PREDICTED BY IDOCK:   -0.41 KCAL/MOL
REMARK 927      BINDING AFFINITY PREDICTED BY RF-SCORE:    0.00 PKD
ROOT
HETATM    1  C   UNL     1      -6.286   5.652  68.833  1.00  0.00    -0.029 C  
HETATM    2  C   UNL     1      -5.500   6.743  68.122  1.00  0.00    -0.012 C  
ENDROOT
BRANCH   2   3
HETATM    3  C   UNL     1      -6.424   7.652  67.312  1.00  0.00    -0.058 C  
BRANCH   3   4
HETATM    4  N   UNL     1      -7.462   8.199  68.183  1.00  0.00    -0.095 NA 
HETATM    5  H   UNL     1      -7.250   9.153  68.475  1.00  0.00     0.000 HD 
BRANCH   4   6
HETATM    6  C   UNL     1      -8.775   8.105  67.530  1.00  0.00    -0.129 C  
BRANCH   6   7
HETATM    7  C   UNL     1      -9.646   9.331  67.860  1.00  0.00    -0.142 C  
HETATM    8  O   UNL     1      -8.871  10.330  68.539  1.00  0.00    -0.118 OA 
HETATM    9  H   UNL     1      -9.408  11.087  68.742  1.00  0.00     0.000 HD 
BRANCH   7  10
HETATM   10  C   UNL     1     -10.247   9.934  66.585  1.00  0.00    -0.226 C  
BRANCH  10  11
HETATM   11  O   UNL     1     -11.273  10.882  66.938  1.00  0.00    -0.279 OA 
BRANCH  11  12
HETATM   12  C   UNL     1     -11.113  12.137  66.410  1.00  0.00    -0.314 A  
HETATM   13  C   UNL     1     -11.404  13.265  67.204  1.00  0.00    -0.351 A  
HETATM   14  C   UNL     1     -10.732  12.325  65.072  1.00  0.00    -0.336 A  
HETATM   15  C   UNL     1     -11.241  14.550  66.659  1.00  0.00    -0.346 A  
HETATM   16  C   UNL     1     -10.592  13.606  64.540  1.00  0.00    -0.428 A  
HETATM   17  C   UNL     1     -10.842  14.718  65.333  1.00  0.00    -0.372 A  
BRANCH  13  18
HETATM   18  C   UNL     1     -11.856  13.137  68.629  1.00  0.00    -0.328 C  
HETATM   19  O   UNL     1     -11.867  14.119  69.368  1.00  0.00    -0.288 OA 
BRANCH  18  20
HETATM   20  C   UNL     1     -12.379  11.795  69.124  1.00  0.00     0.000 C  
BRANCH  20  21
HETATM   21  C   UNL     1     -11.750  11.382  70.451  1.00  0.00    -0.362 C  
BRANCH  21  22
HETATM   22  C   UNL     1     -12.194  10.009  70.898  1.00  0.00    -0.441 A  
HETATM   23  C   UNL     1     -11.271   8.958  70.994  1.00  0.00    -0.342 A  
HETATM   24  C   UNL     1     -11.678   7.696  71.430  1.00  0.00    -0.310 A  
HETATM   25  C   UNL     1     -13.010   7.470  71.768  1.00  0.00    -0.364 A  
HETATM   26  C   UNL     1     -13.938   8.505  71.663  1.00  0.00    -0.463 A  
HETATM   27  C   UNL     1     -13.534   9.768  71.226  1.00  0.00    -0.362 A  
ENDBRANCH  21  22
ENDBRANCH  20  21
ENDBRANCH  18  20
ENDBRANCH  13  18
ENDBRANCH  11  12
ENDBRANCH  10  11
ENDBRANCH   7  10
ENDBRANCH   6   7
ENDBRANCH   4   6
ENDBRANCH   3   4
ENDBRANCH   2   3
TORSDOF 11
ENDMDL
MODEL      323
REMARK 921   NORMALIZED FREE ENERGY PREDICTED BY IDOCK:   -3.58 KCAL/MOL
REMARK 922        TOTAL FREE ENERGY PREDICTED BY IDOCK:   -6.90 KCAL/MOL
REMARK 923 INTER-LIGAND FREE ENERGY PREDICTED BY IDOCK:   -5.80 KCAL/MOL
REMARK 924 INTRA-LIGAND FREE ENERGY PREDICTED BY IDOCK:   -1.09 KCAL/MOL
REMARK 927      BINDING AFFINITY PREDICTED BY RF-SCORE:    0.00 PKD
ROOT
HETATM    1  C   UNL     1      -5.163  17.012  70.967  1.00  0.00    -0.146 C  
HETATM    2  C   UNL     1      -5.326  17.103  69.457  1.00  0.00    -0.168 C  
ENDROOT
BRANCH   2   3
HETATM    3  C   UNL     1      -6.575  16.357  68.990  1.00  0.00    -0.181 C  
BRANCH   3   4
HETATM    4  N   UNL     1      -6.576  15.005  69.546  1.00  0.00    -0.142 NA 
HETATM    5  H   UNL     1      -7.518  14.616  69.599  1.00  0.00     0.000 HD 
BRANCH   4   6
HETATM    6  C   UNL     1      -5.668  14.140  68.781  1.00  0.00    -0.082 C  
BRANCH   6   7
HETATM    7  C   UNL     1      -6.205  12.699  68.711  1.00  0.00    -0.075 C  
HETATM    8  O   UNL     1      -7.522  12.625  69.279  1.00  0.00    -0.323 OA 
HETATM    9  H   UNL     1      -7.853  11.736  69.235  1.00  0.00     0.000 HD 
BRANCH   7  10
HETATM   10  C   UNL     1      -6.248  12.201  67.261  1.00  0.00    -0.152 C  
BRANCH  10  11
HETATM   11  O   UNL     1      -7.614  12.169  66.803  1.00  0.00    -0.076 OA 
BRANCH  11  12
HETATM   12  C   UNL     1      -7.923  11.129  65.965  1.00  0.00    -0.041 A  
HETATM   13  C   UNL     1      -9.262  10.932  65.569  1.00  0.00    -0.232 A  
HETATM   14  C   UNL     1      -6.946  10.213  65.544  1.00  0.00    -0.131 A  
HETATM   15  C   UNL     1      -9.575   9.864  64.712  1.00  0.00    -0.339 A  
HETATM   16  C   UNL     1      -7.276   9.147  64.708  1.00  0.00    -0.097 A  
HETATM   17  C   UNL     1      -8.588   8.974  64.288  1.00  0.00    -0.171 A  
BRANCH  13  18
HETATM   18  C   UNL     1     -10.364  11.848  66.014  1.00  0.00    -0.233 C  
HETATM   19  O   UNL     1     -10.518  12.942  65.476  1.00  0.00    -0.280 OA 
BRANCH  18  20
HETATM   20  C   UNL     1     -11.339  11.372  67.083  1.00  0.00    -0.327 C  
BRANCH  20  21
HETATM   21  C   UNL     1     -11.145  12.098  68.410  1.00  0.00    -0.289 C  
BRANCH  21  22
HETATM   22  C   UNL     1     -11.525  11.245  69.597  1.00  0.00    -0.380 A  
HETATM   23  C   UNL     1     -12.563  11.639  70.455  1.00  0.00    -0.213 A  
HETATM   24  C   UNL     1     -12.930  10.837  71.537  1.00  0.00    -0.562 A  
HETATM   25  C   UNL     1     -12.262   9.638  71.776  1.00  0.00    -0.464 A  
HETATM   26  C   UNL     1     -11.221   9.245  70.937  1.00  0.00    -0.372 A  
HETATM   27  C   UNL     1     -10.851  10.045  69.855  1.00  0.00    -0.328 A  
ENDBRANCH  21  22
ENDBRANCH  20  21
ENDBRANCH  18  20
ENDBRANCH  13  18
ENDBRANCH  11  12
ENDBRANCH  10  11
ENDBRANCH   7  10
ENDBRANCH   6   7
ENDBRANCH   4   6
ENDBRANCH   3   4
ENDBRANCH   2   3
TORSDOF 11
ENDMDL
MODEL      324
REMARK 921   NORMALIZED FREE ENERGY PREDICTED BY IDOCK:   -3.58 KCAL/MOL
REMARK 922        TOTAL FREE ENERGY PREDICTED BY IDOCK:   -6.89 KCAL/MOL
REMARK 923 INTER-LIGAND FREE ENERGY PREDICTED BY IDOCK:   -5.65 KCAL/MOL
REMARK 924 INTRA-LIGAND FREE ENERGY PREDICTED BY IDOCK:   -1.24 KCAL/MOL
REMARK 927      BINDING AFFINITY PREDICTED BY RF-SCORE:    0.00 PKD
ROOT
HETATM    1  C   UNL     1      -9.290   3.307  73.954  1.00  0.00    -0.109 C  
HETATM    2  C   UNL     1     -10.496   3.068  73.059  1.00  0.00    -0.251 C  
ENDROOT
BRANCH   2   3
HETATM    3  C   UNL     1     -10.095   2.348  71.772  1.00  0.00    -0.060 C  
BRANCH   3   4
HETATM    4  N   UNL     1      -8.983   3.054  71.140  1.00  0.00    -0.091 NA 
HETATM    5  H   UNL     1      -8.155   2.464  71.054  1.00  0.00     0.000 HD 
BRANCH   4   6
HETATM    6  C   UNL     1      -9.401   3.603  69.842  1.00  0.00    -0.176 C  
BRANCH   6   7
HETATM    7  C   UNL     1      -9.466   5.140  69.887  1.00  0.00    -0.160 C  
HETATM    8  O   UNL     1      -8.951   5.701  68.669  1.00  0.00    -0.111 OA 
HETATM    9  H   UNL     1      -8.991   6.650  68.698  1.00  0.00     0.000 HD 
BRANCH   7  10
HETATM   10  C   UNL     1     -10.906   5.622  70.099  1.00  0.00    -0.286 C  
BRANCH  10  11
HETATM   11  O   UNL     1     -11.030   6.205  71.410  1.00  0.00    -0.257 OA 
BRANCH  11  12
HETATM   12  C   UNL     1     -11.910   7.253  71.501  1.00  0.00    -0.304 A  
HETATM   13  C   UNL     1     -11.413   8.572  71.540  1.00  0.00    -0.350 A  
HETATM   14  C   UNL     1     -13.291   7.040  71.623  1.00  0.00    -0.356 A  
HETATM   15  C   UNL     1     -12.317   9.644  71.635  1.00  0.00    -0.489 A  
HETATM   16  C   UNL     1     -14.174   8.114  71.736  1.00  0.00    -0.548 A  
HETATM   17  C   UNL     1     -13.689   9.415  71.737  1.00  0.00    -0.418 A  
BRANCH  13  18
HETATM   18  C   UNL     1      -9.946   8.871  71.455  1.00  0.00    -0.320 C  
HETATM   19  O   UNL     1      -9.249   8.857  72.467  1.00  0.00    -0.334 OA 
BRANCH  18  20
HETATM   20  C   UNL     1      -9.315   9.110  70.089  1.00  0.00    -0.235 C  
BRANCH  20  21
HETATM   21  C   UNL     1      -7.976   9.836  70.188  1.00  0.00    -0.201 C  
BRANCH  21  22
HETATM   22  C   UNL     1      -7.463  10.285  68.841  1.00  0.00    -0.094 A  
HETATM   23  C   UNL     1      -6.286   9.738  68.308  1.00  0.00    -0.055 A  
HETATM   24  C   UNL     1      -5.825  10.137  67.052  1.00  0.00    -0.050 A  
HETATM   25  C   UNL     1      -6.531  11.088  66.319  1.00  0.00    -0.112 A  
HETATM   26  C   UNL     1      -7.694  11.647  66.845  1.00  0.00    -0.147 A  
HETATM   27  C   UNL     1      -8.157  11.251  68.102  1.00  0.00    -0.134 A  
ENDBRANCH  21  22
ENDBRANCH  20  21
ENDBRANCH  18  20
ENDBRANCH  13  18
ENDBRANCH  11  12
ENDBRANCH  10  11
ENDBRANCH   7  10
ENDBRANCH   6   7
ENDBRANCH   4   6
ENDBRANCH   3   4
ENDBRANCH   2   3
TORSDOF 11
ENDMDL
MODEL      325
REMARK 921   NORMALIZED FREE ENERGY PREDICTED BY IDOCK:   -3.56 KCAL/MOL
REMARK 922        TOTAL FREE ENERGY PREDICTED BY IDOCK:   -6.86 KCAL/MOL
REMARK 923 INTER-LIGAND FREE ENERGY PREDICTED BY IDOCK:   -5.66 KCAL/MOL
REMARK 924 INTRA-LIGAND FREE ENERGY PREDICTED BY IDOCK:   -1.19 KCAL/MOL
REMARK 927      BINDING AFFINITY PREDICTED BY RF-SCORE:    0.00 PKD
ROOT
HETATM    1  C   UNL     1     -11.831  15.620  69.011  1.00  0.00    -0.379 C  
HETATM    2  C   UNL     1     -12.044  14.891  67.693  1.00  0.00    -0.051 C  
ENDROOT
BRANCH   2   3
HETATM    3  C   UNL     1     -11.244  13.590  67.644  1.00  0.00    -0.279 C  
BRANCH   3   4
HETATM    4  N   UNL     1     -11.991  12.582  66.894  1.00  0.00    -0.543 NA 
HETATM    5  H   UNL     1     -12.999  12.688  67.013  1.00  0.00     0.000 HD 
BRANCH   4   6
HETATM    6  C   UNL     1     -11.600  12.610  65.478  1.00  0.00    -0.370 C  
BRANCH   6   7
HETATM    7  C   UNL     1     -10.524  11.549  65.180  1.00  0.00    -0.286 C  
HETATM    8  O   UNL     1      -9.249  12.173  64.966  1.00  0.00    -0.417 OA 
HETATM    9  H   UNL     1      -8.585  11.518  64.782  1.00  0.00     0.000 HD 
BRANCH   7  10
HETATM   10  C   UNL     1     -10.412  10.546  66.334  1.00  0.00    -0.192 C  
BRANCH  10  11
HETATM   11  O   UNL     1      -9.152   9.852  66.248  1.00  0.00    -0.148 OA 
BRANCH  11  12
HETATM   12  C   UNL     1      -8.524   9.633  67.447  1.00  0.00    -0.125 A  
HETATM   13  C   UNL     1      -8.250   8.312  67.855  1.00  0.00    -0.128 A  
HETATM   14  C   UNL     1      -8.207  10.693  68.311  1.00  0.00    -0.120 A  
HETATM   15  C   UNL     1      -7.608   8.091  69.085  1.00  0.00    -0.097 A  
HETATM   16  C   UNL     1      -7.588  10.456  69.538  1.00  0.00    -0.158 A  
HETATM   17  C   UNL     1      -7.283   9.158  69.924  1.00  0.00    -0.062 A  
BRANCH  13  18
HETATM   18  C   UNL     1      -8.598   7.129  67.000  1.00  0.00    -0.122 C  
HETATM   19  O   UNL     1      -7.711   6.426  66.522  1.00  0.00    -0.096 OA 
BRANCH  18  20
HETATM   20  C   UNL     1     -10.063   6.763  66.799  1.00  0.00    -0.250 C  
BRANCH  20  21
HETATM   21  C   UNL     1     -10.837   6.728  68.113  1.00  0.00    -0.296 C  
BRANCH  21  22
HETATM   22  C   UNL     1     -10.318   5.672  69.060  1.00  0.00    -0.314 A  
HETATM   23  C   UNL     1     -10.392   5.862  70.448  1.00  0.00    -0.294 A  
HETATM   24  C   UNL     1      -9.934   4.875  71.322  1.00  0.00    -0.271 A  
HETATM   25  C   UNL     1      -9.395   3.692  70.820  1.00  0.00    -0.225 A  
HETATM   26  C   UNL     1      -9.305   3.500  69.443  1.00  0.00    -0.243 A  
HETATM   27  C   UNL     1      -9.761   4.487  68.566  1.00  0.00    -0.198 A  
ENDBRANCH  21  22
ENDBRANCH  20  21
ENDBRANCH  18  20
ENDBRANCH  13  18
ENDBRANCH  11  12
ENDBRANCH  10  11
ENDBRANCH   7  10
ENDBRANCH   6   7
ENDBRANCH   4   6
ENDBRANCH   3   4
ENDBRANCH   2   3
TORSDOF 11
ENDMDL
MODEL      326
REMARK 921   NORMALIZED FREE ENERGY PREDICTED BY IDOCK:   -3.56 KCAL/MOL
REMARK 922        TOTAL FREE ENERGY PREDICTED BY IDOCK:   -6.86 KCAL/MOL
REMARK 923 INTER-LIGAND FREE ENERGY PREDICTED BY IDOCK:   -5.61 KCAL/MOL
REMARK 924 INTRA-LIGAND FREE ENERGY PREDICTED BY IDOCK:   -1.24 KCAL/MOL
REMARK 927      BINDING AFFINITY PREDICTED BY RF-SCORE:    0.00 PKD
ROOT
HETATM    1  C   UNL     1      -9.153   5.790  71.275  1.00  0.00    -0.151 C  
HETATM    2  C   UNL     1      -8.932   7.197  70.740  1.00  0.00    -0.152 C  
ENDROOT
BRANCH   2   3
HETATM    3  C   UNL     1     -10.126   7.667  69.911  1.00  0.00    -0.198 C  
BRANCH   3   4
HETATM    4  N   UNL     1      -9.674   8.615  68.894  1.00  0.00    -0.166 NA 
HETATM    5  H   UNL     1      -9.918   8.308  67.952  1.00  0.00     0.000 HD 
BRANCH   4   6
HETATM    6  C   UNL     1     -10.194   9.958  69.185  1.00  0.00    -0.205 C  
BRANCH   6   7
HETATM    7  C   UNL     1     -11.207  10.403  68.114  1.00  0.00    -0.268 C  
HETATM    8  O   UNL     1     -12.464  10.741  68.721  1.00  0.00    -0.793 OA 
HETATM    9  H   UNL     1     -13.089  11.015  68.060  1.00  0.00     0.000 HD 
BRANCH   7  10
HETATM   10  C   UNL     1     -10.680  11.611  67.330  1.00  0.00    -0.234 C  
BRANCH  10  11
HETATM   11  O   UNL     1      -9.823  12.399  68.179  1.00  0.00    -0.203 OA 
BRANCH  11  12
HETATM   12  C   UNL     1     -10.192  13.713  68.320  1.00  0.00    -0.243 A  
HETATM   13  C   UNL     1      -9.201  14.691  68.541  1.00  0.00    -0.193 A  
HETATM   14  C   UNL     1     -11.542  14.097  68.317  1.00  0.00    -0.356 A  
HETATM   15  C   UNL     1      -9.583  16.035  68.687  1.00  0.00    -0.222 A  
HETATM   16  C   UNL     1     -11.906  15.433  68.483  1.00  0.00    -0.293 A  
HETATM   17  C   UNL     1     -10.928  16.403  68.663  1.00  0.00    -0.345 A  
BRANCH  13  18
HETATM   18  C   UNL     1      -7.743  14.344  68.596  1.00  0.00    -0.138 C  
HETATM   19  O   UNL     1      -7.304  13.644  69.506  1.00  0.00     0.122 OA 
BRANCH  18  20
HETATM   20  C   UNL     1      -6.827  14.802  67.468  1.00  0.00    -0.181 C  
BRANCH  20  21
HETATM   21  C   UNL     1      -5.573  15.498  67.985  1.00  0.00    -0.142 C  
BRANCH  21  22
HETATM   22  C   UNL     1      -5.777  16.982  68.185  1.00  0.00    -0.120 A  
HETATM   23  C   UNL     1      -5.592  17.876  67.120  1.00  0.00    -0.155 A  
HETATM   24  C   UNL     1      -5.805  19.244  67.300  1.00  0.00    -0.178 A  
HETATM   25  C   UNL     1      -6.198  19.732  68.543  1.00  0.00    -0.294 A  
HETATM   26  C   UNL     1      -6.371  18.853  69.611  1.00  0.00    -0.261 A  
HETATM   27  C   UNL     1      -6.158  17.485  69.435  1.00  0.00    -0.245 A  
ENDBRANCH  21  22
ENDBRANCH  20  21
ENDBRANCH  18  20
ENDBRANCH  13  18
ENDBRANCH  11  12
ENDBRANCH  10  11
ENDBRANCH   7  10
ENDBRANCH   6   7
ENDBRANCH   4   6
ENDBRANCH   3   4
ENDBRANCH   2   3
TORSDOF 11
ENDMDL
MODEL      327
REMARK 921   NORMALIZED FREE ENERGY PREDICTED BY IDOCK:   -3.53 KCAL/MOL
REMARK 922        TOTAL FREE ENERGY PREDICTED BY IDOCK:   -6.82 KCAL/MOL
REMARK 923 INTER-LIGAND FREE ENERGY PREDICTED BY IDOCK:   -5.15 KCAL/MOL
REMARK 924 INTRA-LIGAND FREE ENERGY PREDICTED BY IDOCK:   -1.67 KCAL/MOL
REMARK 927      BINDING AFFINITY PREDICTED BY RF-SCORE:    0.00 PKD
ROOT
HETATM    1  C   UNL     1      -9.722   3.053  74.302  1.00  0.00    -0.138 C  
HETATM    2  C   UNL     1     -11.003   2.655  73.585  1.00  0.00    -0.312 C  
ENDROOT
BRANCH   2   3
HETATM    3  C   UNL     1     -10.716   1.690  72.436  1.00  0.00    -0.073 C  
BRANCH   3   4
HETATM    4  N   UNL     1      -9.365   1.919  71.926  1.00  0.00    -0.087 NA 
HETATM    5  H   UNL     1      -8.838   1.050  71.839  1.00  0.00     0.000 HD 
BRANCH   4   6
HETATM    6  C   UNL     1      -9.420   2.658  70.657  1.00  0.00    -0.135 C  
BRANCH   6   7
HETATM    7  C   UNL     1      -8.929   4.105  70.838  1.00  0.00    -0.095 C  
HETATM    8  O   UNL     1      -7.931   4.425  69.856  1.00  0.00    -0.056 OA 
HETATM    9  H   UNL     1      -7.628   5.318  69.969  1.00  0.00     0.000 HD 
BRANCH   7  10
HETATM   10  C   UNL     1     -10.092   5.097  70.722  1.00  0.00    -0.233 C  
BRANCH  10  11
HETATM   11  O   UNL     1     -10.079   5.990  71.852  1.00  0.00    -0.187 OA 
BRANCH  11  12
HETATM   12  C   UNL     1     -11.055   6.953  71.845  1.00  0.00    -0.246 A  
HETATM   13  C   UNL     1     -10.686   8.314  71.832  1.00  0.00    -0.350 A  
HETATM   14  C   UNL     1     -12.415   6.616  71.920  1.00  0.00    -0.334 A  
HETATM   15  C   UNL     1     -11.690   9.297  71.828  1.00  0.00    -0.456 A  
HETATM   16  C   UNL     1     -13.399   7.604  71.933  1.00  0.00    -0.293 A  
HETATM   17  C   UNL     1     -13.038   8.944  71.883  1.00  0.00    -0.436 A  
BRANCH  13  18
HETATM   18  C   UNL     1      -9.251   8.747  71.794  1.00  0.00    -0.262 C  
HETATM   19  O   UNL     1      -8.571   8.735  72.818  1.00  0.00    -0.412 OA 
BRANCH  18  20
HETATM   20  C   UNL     1      -8.623   9.121  70.458  1.00  0.00    -0.252 C  
BRANCH  20  21
HETATM   21  C   UNL     1      -9.475   8.679  69.273  1.00  0.00    -0.158 C  
BRANCH  21  22
HETATM   22  C   UNL     1      -8.750   7.710  68.370  1.00  0.00    -0.127 A  
HETATM   23  C   UNL     1      -7.348   7.661  68.357  1.00  0.00    -0.095 A  
HETATM   24  C   UNL     1      -6.679   6.747  67.539  1.00  0.00    -0.070 A  
HETATM   25  C   UNL     1      -7.403   5.880  66.724  1.00  0.00    -0.079 A  
HETATM   26  C   UNL     1      -8.795   5.930  66.720  1.00  0.00    -0.118 A  
HETATM   27  C   UNL     1      -9.467   6.843  67.535  1.00  0.00    -0.143 A  
ENDBRANCH  21  22
ENDBRANCH  20  21
ENDBRANCH  18  20
ENDBRANCH  13  18
ENDBRANCH  11  12
ENDBRANCH  10  11
ENDBRANCH   7  10
ENDBRANCH   6   7
ENDBRANCH   4   6
ENDBRANCH   3   4
ENDBRANCH   2   3
TORSDOF 11
ENDMDL
MODEL      328
REMARK 921   NORMALIZED FREE ENERGY PREDICTED BY IDOCK:   -3.49 KCAL/MOL
REMARK 922        TOTAL FREE ENERGY PREDICTED BY IDOCK:   -6.75 KCAL/MOL
REMARK 923 INTER-LIGAND FREE ENERGY PREDICTED BY IDOCK:   -5.77 KCAL/MOL
REMARK 924 INTRA-LIGAND FREE ENERGY PREDICTED BY IDOCK:   -0.98 KCAL/MOL
REMARK 927      BINDING AFFINITY PREDICTED BY RF-SCORE:    0.00 PKD
ROOT
HETATM    1  C   UNL     1      -7.948   4.034  64.306  1.00  0.00    -0.086 C  
HETATM    2  C   UNL     1      -9.309   3.514  64.742  1.00  0.00    -0.152 C  
ENDROOT
BRANCH   2   3
HETATM    3  C   UNL     1      -9.750   4.156  66.057  1.00  0.00    -0.205 C  
BRANCH   3   4
HETATM    4  N   UNL     1     -10.838   5.099  65.803  1.00  0.00    -0.712 NA 
HETATM    5  H   UNL     1     -11.718   4.621  65.607  1.00  0.00     0.000 HD 
BRANCH   4   6
HETATM    6  C   UNL     1     -10.964   6.043  66.922  1.00  0.00    -0.266 C  
BRANCH   6   7
HETATM    7  C   UNL     1      -9.995   5.681  68.062  1.00  0.00    -0.143 C  
HETATM    8  O   UNL     1      -9.083   6.762  68.310  1.00  0.00    -0.126 OA 
HETATM    9  H   UNL     1      -8.485   6.538  69.013  1.00  0.00     0.000 HD 
BRANCH   7  10
HETATM   10  C   UNL     1     -10.761   5.358  69.350  1.00  0.00    -0.156 C  
BRANCH  10  11
HETATM   11  O   UNL     1     -11.109   6.583  70.024  1.00  0.00    -0.297 OA 
BRANCH  11  12
HETATM   12  C   UNL     1     -10.851   6.602  71.371  1.00  0.00    -0.242 A  
HETATM   13  C   UNL     1     -10.406   7.796  71.974  1.00  0.00    -0.267 A  
HETATM   14  C   UNL     1     -10.955   5.440  72.151  1.00  0.00    -0.265 A  
HETATM   15  C   UNL     1     -10.140   7.810  73.354  1.00  0.00    -0.327 A  
HETATM   16  C   UNL     1     -10.670   5.466  73.516  1.00  0.00    -0.331 A  
HETATM   17  C   UNL     1     -10.267   6.650  74.119  1.00  0.00    -0.390 A  
BRANCH  13  18
HETATM   18  C   UNL     1     -10.233   9.064  71.192  1.00  0.00    -0.293 C  
HETATM   19  O   UNL     1     -11.178   9.834  71.041  1.00  0.00    -0.330 OA 
BRANCH  18  20
HETATM   20  C   UNL     1      -8.852   9.425  70.659  1.00  0.00    -0.275 C  
BRANCH  20  21
HETATM   21  C   UNL     1      -8.901   9.935  69.222  1.00  0.00    -0.178 C  
BRANCH  21  22
HETATM   22  C   UNL     1      -7.857  10.992  68.950  1.00  0.00    -0.138 A  
HETATM   23  C   UNL     1      -6.691  11.060  69.727  1.00  0.00    -0.136 A  
HETATM   24  C   UNL     1      -5.716  12.022  69.458  1.00  0.00    -0.085 A  
HETATM   25  C   UNL     1      -5.898  12.928  68.416  1.00  0.00    -0.071 A  
HETATM   26  C   UNL     1      -7.059  12.878  67.647  1.00  0.00    -0.151 A  
HETATM   27  C   UNL     1      -8.037  11.917  67.914  1.00  0.00    -0.147 A  
ENDBRANCH  21  22
ENDBRANCH  20  21
ENDBRANCH  18  20
ENDBRANCH  13  18
ENDBRANCH  11  12
ENDBRANCH  10  11
ENDBRANCH   7  10
ENDBRANCH   6   7
ENDBRANCH   4   6
ENDBRANCH   3   4
ENDBRANCH   2   3
TORSDOF 11
ENDMDL
MODEL      329
REMARK 921   NORMALIZED FREE ENERGY PREDICTED BY IDOCK:   -3.46 KCAL/MOL
REMARK 922        TOTAL FREE ENERGY PREDICTED BY IDOCK:   -6.70 KCAL/MOL
REMARK 923 INTER-LIGAND FREE ENERGY PREDICTED BY IDOCK:   -5.55 KCAL/MOL
REMARK 924 INTRA-LIGAND FREE ENERGY PREDICTED BY IDOCK:   -1.15 KCAL/MOL
REMARK 927      BINDING AFFINITY PREDICTED BY RF-SCORE:    0.00 PKD
ROOT
HETATM    1  C   UNL     1      -9.703  11.418  62.914  1.00  0.00    -0.344 C  
HETATM    2  C   UNL     1     -10.496  11.181  64.190  1.00  0.00    -0.442 C  
ENDROOT
BRANCH   2   3
HETATM    3  C   UNL     1     -11.856  11.874  64.133  1.00  0.00    -0.318 C  
BRANCH   3   4
HETATM    4  N   UNL     1     -12.217  12.360  65.464  1.00  0.00    -0.604 NA 
HETATM    5  H   UNL     1     -12.779  11.681  65.977  1.00  0.00     0.000 HD 
BRANCH   4   6
HETATM    6  C   UNL     1     -11.010  12.747  66.208  1.00  0.00    -0.280 C  
BRANCH   6   7
HETATM    7  C   UNL     1     -10.984  12.089  67.599  1.00  0.00    -0.238 C  
HETATM    8  O   UNL     1     -12.303  11.670  67.983  1.00  0.00    -0.429 OA 
HETATM    9  H   UNL     1     -12.286  11.264  68.841  1.00  0.00     0.000 HD 
BRANCH   7  10
HETATM   10  C   UNL     1     -10.042  10.879  67.616  1.00  0.00    -0.179 C  
BRANCH  10  11
HETATM   11  O   UNL     1      -9.165  10.968  68.755  1.00  0.00    -0.176 OA 
BRANCH  11  12
HETATM   12  C   UNL     1      -7.843  11.181  68.458  1.00  0.00    -0.136 A  
HETATM   13  C   UNL     1      -6.852  10.444  69.138  1.00  0.00    -0.066 A  
HETATM   14  C   UNL     1      -7.450  12.167  67.540  1.00  0.00    -0.148 A  
HETATM   15  C   UNL     1      -5.499  10.667  68.833  1.00  0.00    -0.041 A  
HETATM   16  C   UNL     1      -6.102  12.390  67.262  1.00  0.00    -0.143 A  
HETATM   17  C   UNL     1      -5.127  11.638  67.903  1.00  0.00    -0.048 A  
BRANCH  13  18
HETATM   18  C   UNL     1      -7.199   9.403  70.162  1.00  0.00    -0.096 C  
HETATM   19  O   UNL     1      -7.807   9.715  71.183  1.00  0.00    -0.289 OA 
BRANCH  18  20
HETATM   20  C   UNL     1      -6.862   7.944  69.881  1.00  0.00    -0.045 C  
BRANCH  20  21
HETATM   21  C   UNL     1      -7.040   7.580  68.411  1.00  0.00    -0.081 C  
BRANCH  21  22
HETATM   22  C   UNL     1      -8.430   7.075  68.106  1.00  0.00    -0.129 A  
HETATM   23  C   UNL     1      -8.942   5.952  68.772  1.00  0.00    -0.117 A  
HETATM   24  C   UNL     1     -10.237   5.500  68.506  1.00  0.00    -0.250 A  
HETATM   25  C   UNL     1     -11.028   6.162  67.570  1.00  0.00    -0.404 A  
HETATM   26  C   UNL     1     -10.524   7.270  66.893  1.00  0.00    -0.369 A  
HETATM   27  C   UNL     1      -9.229   7.724  67.156  1.00  0.00    -0.174 A  
ENDBRANCH  21  22
ENDBRANCH  20  21
ENDBRANCH  18  20
ENDBRANCH  13  18
ENDBRANCH  11  12
ENDBRANCH  10  11
ENDBRANCH   7  10
ENDBRANCH   6   7
ENDBRANCH   4   6
ENDBRANCH   3   4
ENDBRANCH   2   3
TORSDOF 11
ENDMDL
MODEL      330
REMARK 921   NORMALIZED FREE ENERGY PREDICTED BY IDOCK:   -3.43 KCAL/MOL
REMARK 922        TOTAL FREE ENERGY PREDICTED BY IDOCK:   -6.66 KCAL/MOL
REMARK 923 INTER-LIGAND FREE ENERGY PREDICTED BY IDOCK:   -4.82 KCAL/MOL
REMARK 924 INTRA-LIGAND FREE ENERGY PREDICTED BY IDOCK:   -1.83 KCAL/MOL
REMARK 927      BINDING AFFINITY PREDICTED BY RF-SCORE:    0.00 PKD
ROOT
HETATM    1  C   UNL     1      -9.379  13.314  67.373  1.00  0.00    -0.217 C  
HETATM    2  C   UNL     1      -8.843  12.219  68.283  1.00  0.00    -0.178 C  
ENDROOT
BRANCH   2   3
HETATM    3  C   UNL     1      -8.444  10.981  67.481  1.00  0.00    -0.127 C  
BRANCH   3   4
HETATM    4  N   UNL     1      -7.904   9.965  68.382  1.00  0.00    -0.084 NA 
HETATM    5  H   UNL     1      -7.360   9.262  67.882  1.00  0.00     0.000 HD 
BRANCH   4   6
HETATM    6  C   UNL     1      -7.126  10.599  69.455  1.00  0.00    -0.127 C  
BRANCH   6   7
HETATM    7  C   UNL     1      -6.935   9.637  70.642  1.00  0.00    -0.110 C  
HETATM    8  O   UNL     1      -8.143   9.541  71.412  1.00  0.00    -0.252 OA 
HETATM    9  H   UNL     1      -8.025   8.948  72.144  1.00  0.00     0.000 HD 
BRANCH   7  10
HETATM   10  C   UNL     1      -6.531   8.240  70.155  1.00  0.00    -0.035 C  
BRANCH  10  11
HETATM   11  O   UNL     1      -7.682   7.374  70.170  1.00  0.00    -0.087 OA 
BRANCH  11  12
HETATM   12  C   UNL     1      -7.473   6.119  69.657  1.00  0.00    -0.081 A  
HETATM   13  C   UNL     1      -8.277   5.663  68.592  1.00  0.00    -0.103 A  
HETATM   14  C   UNL     1      -6.521   5.251  70.213  1.00  0.00    -0.034 A  
HETATM   15  C   UNL     1      -8.061   4.376  68.071  1.00  0.00    -0.090 A  
HETATM   16  C   UNL     1      -6.332   3.969  69.697  1.00  0.00    -0.028 A  
HETATM   17  C   UNL     1      -7.097   3.533  68.624  1.00  0.00    -0.050 A  
BRANCH  13  18
HETATM   18  C   UNL     1      -9.341   6.523  67.977  1.00  0.00    -0.108 C  
HETATM   19  O   UNL     1      -9.053   7.338  67.103  1.00  0.00    -0.125 OA 
BRANCH  18  20
HETATM   20  C   UNL     1     -10.793   6.316  68.389  1.00  0.00    -0.394 C  
BRANCH  20  21
HETATM   21  C   UNL     1     -10.933   5.976  69.869  1.00  0.00    -0.458 C  
BRANCH  21  22
HETATM   22  C   UNL     1     -11.608   7.077  70.653  1.00  0.00    -0.379 A  
HETATM   23  C   UNL     1     -11.061   8.368  70.683  1.00  0.00    -0.278 A  
HETATM   24  C   UNL     1     -11.698   9.391  71.388  1.00  0.00    -0.448 A  
HETATM   25  C   UNL     1     -12.884   9.133  72.072  1.00  0.00    -0.483 A  
HETATM   26  C   UNL     1     -13.428   7.851  72.059  1.00  0.00    -0.258 A  
HETATM   27  C   UNL     1     -12.792   6.825  71.356  1.00  0.00    -0.287 A  
ENDBRANCH  21  22
ENDBRANCH  20  21
ENDBRANCH  18  20
ENDBRANCH  13  18
ENDBRANCH  11  12
ENDBRANCH  10  11
ENDBRANCH   7  10
ENDBRANCH   6   7
ENDBRANCH   4   6
ENDBRANCH   3   4
ENDBRANCH   2   3
TORSDOF 11
ENDMDL
MODEL      331
REMARK 921   NORMALIZED FREE ENERGY PREDICTED BY IDOCK:   -3.42 KCAL/MOL
REMARK 922        TOTAL FREE ENERGY PREDICTED BY IDOCK:   -6.63 KCAL/MOL
REMARK 923 INTER-LIGAND FREE ENERGY PREDICTED BY IDOCK:   -5.47 KCAL/MOL
REMARK 924 INTRA-LIGAND FREE ENERGY PREDICTED BY IDOCK:   -1.17 KCAL/MOL
REMARK 927      BINDING AFFINITY PREDICTED BY RF-SCORE:    0.00 PKD
ROOT
HETATM    1  C   UNL     1      -5.664  19.864  70.628  1.00  0.00    -0.326 C  
HETATM    2  C   UNL     1      -6.187  20.218  69.244  1.00  0.00    -0.356 C  
ENDROOT
BRANCH   2   3
HETATM    3  C   UNL     1      -7.531  19.544  68.972  1.00  0.00    -0.345 C  
BRANCH   3   4
HETATM    4  N   UNL     1      -7.355  18.094  68.929  1.00  0.00    -0.268 NA 
HETATM    5  H   UNL     1      -8.247  17.603  68.874  1.00  0.00     0.000 HD 
BRANCH   4   6
HETATM    6  C   UNL     1      -6.456  17.723  67.827  1.00  0.00    -0.183 C  
BRANCH   6   7
HETATM    7  C   UNL     1      -7.114  17.993  66.462  1.00  0.00    -0.228 C  
HETATM    8  O   UNL     1      -6.123  18.031  65.424  1.00  0.00    -0.191 OA 
HETATM    9  H   UNL     1      -6.530  18.197  64.582  1.00  0.00     0.000 HD 
BRANCH   7  10
HETATM   10  C   UNL     1      -8.153  16.914  66.133  1.00  0.00    -0.260 C  
BRANCH  10  11
HETATM   11  O   UNL     1      -8.087  15.865  67.119  1.00  0.00    -0.170 OA 
BRANCH  11  12
HETATM   12  C   UNL     1      -9.280  15.247  67.393  1.00  0.00    -0.195 A  
HETATM   13  C   UNL     1      -9.279  13.993  68.038  1.00  0.00    -0.201 A  
HETATM   14  C   UNL     1     -10.502  15.804  66.986  1.00  0.00    -0.309 A  
HETATM   15  C   UNL     1     -10.503  13.362  68.315  1.00  0.00    -0.256 A  
HETATM   16  C   UNL     1     -11.708  15.156  67.252  1.00  0.00    -0.169 A  
HETATM   17  C   UNL     1     -11.710  13.939  67.920  1.00  0.00    -0.396 A  
BRANCH  13  18
HETATM   18  C   UNL     1      -8.007  13.321  68.464  1.00  0.00    -0.097 C  
HETATM   19  O   UNL     1      -7.062  13.987  68.879  1.00  0.00    -0.104 OA 
BRANCH  18  20
HETATM   20  C   UNL     1      -7.932  11.800  68.453  1.00  0.00    -0.147 C  
BRANCH  20  21
HETATM   21  C   UNL     1      -7.712  11.240  67.052  1.00  0.00    -0.147 C  
BRANCH  21  22
HETATM   22  C   UNL     1      -8.455   9.945  66.824  1.00  0.00    -0.125 A  
HETATM   23  C   UNL     1      -9.743   9.761  67.348  1.00  0.00    -0.202 A  
HETATM   24  C   UNL     1     -10.439   8.573  67.117  1.00  0.00    -0.370 A  
HETATM   25  C   UNL     1      -9.854   7.556  66.366  1.00  0.00    -0.152 A  
HETATM   26  C   UNL     1      -8.570   7.724  65.852  1.00  0.00    -0.170 A  
HETATM   27  C   UNL     1      -7.871   8.910  66.083  1.00  0.00    -0.102 A  
ENDBRANCH  21  22
ENDBRANCH  20  21
ENDBRANCH  18  20
ENDBRANCH  13  18
ENDBRANCH  11  12
ENDBRANCH  10  11
ENDBRANCH   7  10
ENDBRANCH   6   7
ENDBRANCH   4   6
ENDBRANCH   3   4
ENDBRANCH   2   3
TORSDOF 11
ENDMDL
MODEL      332
REMARK 921   NORMALIZED FREE ENERGY PREDICTED BY IDOCK:   -3.42 KCAL/MOL
REMARK 922        TOTAL FREE ENERGY PREDICTED BY IDOCK:   -6.63 KCAL/MOL
REMARK 923 INTER-LIGAND FREE ENERGY PREDICTED BY IDOCK:   -5.72 KCAL/MOL
REMARK 924 INTRA-LIGAND FREE ENERGY PREDICTED BY IDOCK:   -0.91 KCAL/MOL
REMARK 927      BINDING AFFINITY PREDICTED BY RF-SCORE:    0.00 PKD
ROOT
HETATM    1  C   UNL     1      -9.207  12.720  66.546  1.00  0.00    -0.190 C  
HETATM    2  C   UNL     1     -10.379  13.641  66.243  1.00  0.00    -0.293 C  
ENDROOT
BRANCH   2   3
HETATM    3  C   UNL     1     -10.782  14.446  67.478  1.00  0.00    -0.271 C  
BRANCH   3   4
HETATM    4  N   UNL     1     -11.817  13.725  68.217  1.00  0.00    -0.363 NA 
HETATM    5  H   UNL     1     -12.433  13.200  67.596  1.00  0.00     0.000 HD 
BRANCH   4   6
HETATM    6  C   UNL     1     -11.206  12.863  69.239  1.00  0.00    -0.190 C  
BRANCH   6   7
HETATM    7  C   UNL     1     -11.977  11.538  69.378  1.00  0.00    -0.325 C  
HETATM    8  O   UNL     1     -11.973  10.820  68.135  1.00  0.00    -0.775 OA 
HETATM    9  H   UNL     1     -12.450  10.003  68.221  1.00  0.00     0.000 HD 
BRANCH   7  10
HETATM   10  C   UNL     1     -11.363  10.660  70.474  1.00  0.00    -0.267 C  
BRANCH  10  11
HETATM   11  O   UNL     1     -10.967   9.394  69.911  1.00  0.00    -0.234 OA 
BRANCH  11  12
HETATM   12  C   UNL     1     -10.697   8.408  70.825  1.00  0.00    -0.212 A  
HETATM   13  C   UNL     1     -10.526   7.080  70.382  1.00  0.00    -0.225 A  
HETATM   14  C   UNL     1     -10.654   8.679  72.201  1.00  0.00    -0.411 A  
HETATM   15  C   UNL     1     -10.252   6.073  71.323  1.00  0.00    -0.253 A  
HETATM   16  C   UNL     1     -10.400   7.665  73.124  1.00  0.00    -0.411 A  
HETATM   17  C   UNL     1     -10.194   6.363  72.686  1.00  0.00    -0.200 A  
BRANCH  13  18
HETATM   18  C   UNL     1     -10.600   6.712  68.930  1.00  0.00    -0.230 C  
HETATM   19  O   UNL     1     -11.689   6.550  68.385  1.00  0.00     0.138 OA 
BRANCH  18  20
HETATM   20  C   UNL     1      -9.313   6.622  68.121  1.00  0.00    -0.114 C  
BRANCH  20  21
HETATM   21  C   UNL     1      -8.773   5.197  68.046  1.00  0.00    -0.102 C  
BRANCH  21  22
HETATM   22  C   UNL     1      -8.939   4.589  66.673  1.00  0.00    -0.114 A  
HETATM   23  C   UNL     1      -8.902   5.396  65.527  1.00  0.00    -0.153 A  
HETATM   24  C   UNL     1      -9.031   4.830  64.257  1.00  0.00    -0.107 A  
HETATM   25  C   UNL     1      -9.203   3.454  64.121  1.00  0.00    -0.127 A  
HETATM   26  C   UNL     1      -9.254   2.645  65.254  1.00  0.00    -0.124 A  
HETATM   27  C   UNL     1      -9.127   3.209  66.525  1.00  0.00    -0.170 A  
ENDBRANCH  21  22
ENDBRANCH  20  21
ENDBRANCH  18  20
ENDBRANCH  13  18
ENDBRANCH  11  12
ENDBRANCH  10  11
ENDBRANCH   7  10
ENDBRANCH   6   7
ENDBRANCH   4   6
ENDBRANCH   3   4
ENDBRANCH   2   3
TORSDOF 11
ENDMDL
MODEL      333
REMARK 921   NORMALIZED FREE ENERGY PREDICTED BY IDOCK:   -3.42 KCAL/MOL
REMARK 922        TOTAL FREE ENERGY PREDICTED BY IDOCK:   -6.63 KCAL/MOL
REMARK 923 INTER-LIGAND FREE ENERGY PREDICTED BY IDOCK:   -5.25 KCAL/MOL
REMARK 924 INTRA-LIGAND FREE ENERGY PREDICTED BY IDOCK:   -1.38 KCAL/MOL
REMARK 927      BINDING AFFINITY PREDICTED BY RF-SCORE:    0.00 PKD
ROOT
HETATM    1  C   UNL     1      -7.916   8.224  74.532  1.00  0.00    -0.276 C  
HETATM    2  C   UNL     1      -8.791   7.846  73.347  1.00  0.00    -0.324 C  
ENDROOT
BRANCH   2   3
HETATM    3  C   UNL     1      -9.721   6.685  73.694  1.00  0.00    -0.203 C  
BRANCH   3   4
HETATM    4  N   UNL     1     -11.027   6.900  73.073  1.00  0.00    -0.372 NA 
HETATM    5  H   UNL     1     -11.773   6.963  73.767  1.00  0.00     0.000 HD 
BRANCH   4   6
HETATM    6  C   UNL     1     -10.988   8.083  72.202  1.00  0.00    -0.295 C  
BRANCH   6   7
HETATM    7  C   UNL     1     -11.778   7.840  70.904  1.00  0.00    -0.265 C  
HETATM    8  O   UNL     1     -12.262   9.081  70.369  1.00  0.00    -0.474 OA 
HETATM    9  H   UNL     1     -12.750   8.930  69.568  1.00  0.00     0.000 HD 
BRANCH   7  10
HETATM   10  C   UNL     1     -10.904   7.141  69.855  1.00  0.00    -0.254 C  
BRANCH  10  11
HETATM   11  O   UNL     1      -9.514   7.327  70.185  1.00  0.00    -0.165 OA 
BRANCH  11  12
HETATM   12  C   UNL     1      -8.656   7.329  69.115  1.00  0.00    -0.133 A  
HETATM   13  C   UNL     1      -8.117   8.550  68.661  1.00  0.00    -0.121 A  
HETATM   14  C   UNL     1      -8.356   6.149  68.417  1.00  0.00    -0.114 A  
HETATM   15  C   UNL     1      -7.240   8.547  67.562  1.00  0.00    -0.084 A  
HETATM   16  C   UNL     1      -7.498   6.165  67.317  1.00  0.00    -0.081 A  
HETATM   17  C   UNL     1      -6.937   7.362  66.892  1.00  0.00    -0.082 A  
BRANCH  13  18
HETATM   18  C   UNL     1      -8.428   9.854  69.333  1.00  0.00    -0.165 C  
HETATM   19  O   UNL     1      -7.925  10.128  70.420  1.00  0.00    -0.181 OA 
BRANCH  18  20
HETATM   20  C   UNL     1      -9.309  10.868  68.615  1.00  0.00    -0.188 C  
BRANCH  20  21
HETATM   21  C   UNL     1      -8.505  12.026  68.032  1.00  0.00    -0.168 C  
BRANCH  21  22
HETATM   22  C   UNL     1      -9.165  13.363  68.268  1.00  0.00    -0.198 A  
HETATM   23  C   UNL     1      -8.409  14.545  68.248  1.00  0.00    -0.152 A  
HETATM   24  C   UNL     1      -9.025  15.783  68.442  1.00  0.00    -0.187 A  
HETATM   25  C   UNL     1     -10.398  15.853  68.663  1.00  0.00    -0.229 A  
HETATM   26  C   UNL     1     -11.156  14.683  68.699  1.00  0.00    -0.276 A  
HETATM   27  C   UNL     1     -10.543  13.444  68.506  1.00  0.00    -0.264 A  
ENDBRANCH  21  22
ENDBRANCH  20  21
ENDBRANCH  18  20
ENDBRANCH  13  18
ENDBRANCH  11  12
ENDBRANCH  10  11
ENDBRANCH   7  10
ENDBRANCH   6   7
ENDBRANCH   4   6
ENDBRANCH   3   4
ENDBRANCH   2   3
TORSDOF 11
ENDMDL
MODEL      334
REMARK 921   NORMALIZED FREE ENERGY PREDICTED BY IDOCK:   -3.40 KCAL/MOL
REMARK 922        TOTAL FREE ENERGY PREDICTED BY IDOCK:   -6.60 KCAL/MOL
REMARK 923 INTER-LIGAND FREE ENERGY PREDICTED BY IDOCK:   -5.23 KCAL/MOL
REMARK 924 INTRA-LIGAND FREE ENERGY PREDICTED BY IDOCK:   -1.38 KCAL/MOL
REMARK 927      BINDING AFFINITY PREDICTED BY RF-SCORE:    0.00 PKD
ROOT
HETATM    1  C   UNL     1      -9.277  12.525  66.518  1.00  0.00    -0.210 C  
HETATM    2  C   UNL     1     -10.645  13.045  66.104  1.00  0.00    -0.289 C  
ENDROOT
BRANCH   2   3
HETATM    3  C   UNL     1     -11.413  13.598  67.303  1.00  0.00    -0.343 C  
BRANCH   3   4
HETATM    4  N   UNL     1     -12.135  12.514  67.967  1.00  0.00    -0.342 NA 
HETATM    5  H   UNL     1     -12.412  11.783  67.311  1.00  0.00     0.000 HD 
BRANCH   4   6
HETATM    6  C   UNL     1     -11.338  11.979  69.079  1.00  0.00    -0.275 C  
BRANCH   6   7
HETATM    7  C   UNL     1     -11.716  10.516  69.376  1.00  0.00    -0.223 C  
HETATM    8  O   UNL     1     -11.360   9.670  68.273  1.00  0.00    -0.515 OA 
HETATM    9  H   UNL     1     -11.594   8.768  68.457  1.00  0.00     0.000 HD 
BRANCH   7  10
HETATM   10  C   UNL     1     -11.016  10.017  70.646  1.00  0.00    -0.322 C  
BRANCH  10  11
HETATM   11  O   UNL     1     -10.177   8.892  70.322  1.00  0.00    -0.186 OA 
BRANCH  11  12
HETATM   12  C   UNL     1     -10.144   7.898  71.267  1.00  0.00    -0.180 A  
HETATM   13  C   UNL     1      -9.687   6.614  70.906  1.00  0.00    -0.190 A  
HETATM   14  C   UNL     1     -10.621   8.112  72.570  1.00  0.00    -0.411 A  
HETATM   15  C   UNL     1      -9.657   5.598  71.877  1.00  0.00    -0.176 A  
HETATM   16  C   UNL     1     -10.602   7.088  73.516  1.00  0.00    -0.405 A  
HETATM   17  C   UNL     1     -10.117   5.833  73.173  1.00  0.00    -0.200 A  
BRANCH  13  18
HETATM   18  C   UNL     1      -9.202   6.304  69.522  1.00  0.00    -0.139 C  
HETATM   19  O   UNL     1      -9.996   5.972  68.645  1.00  0.00    -0.134 OA 
BRANCH  18  20
HETATM   20  C   UNL     1      -7.725   6.486  69.194  1.00  0.00    -0.102 C  
BRANCH  20  21
HETATM   21  C   UNL     1      -7.486   7.629  68.212  1.00  0.00    -0.104 C  
BRANCH  21  22
HETATM   22  C   UNL     1      -7.130   8.922  68.908  1.00  0.00    -0.066 A  
HETATM   23  C   UNL     1      -6.319   8.916  70.052  1.00  0.00    -0.037 A  
HETATM   24  C   UNL     1      -5.971  10.114  70.680  1.00  0.00    -0.104 A  
HETATM   25  C   UNL     1      -6.435  11.327  70.175  1.00  0.00    -0.071 A  
HETATM   26  C   UNL     1      -7.253  11.342  69.047  1.00  0.00    -0.118 A  
HETATM   27  C   UNL     1      -7.603  10.146  68.418  1.00  0.00    -0.087 A  
ENDBRANCH  21  22
ENDBRANCH  20  21
ENDBRANCH  18  20
ENDBRANCH  13  18
ENDBRANCH  11  12
ENDBRANCH  10  11
ENDBRANCH   7  10
ENDBRANCH   6   7
ENDBRANCH   4   6
ENDBRANCH   3   4
ENDBRANCH   2   3
TORSDOF 11
ENDMDL
MODEL      335
REMARK 921   NORMALIZED FREE ENERGY PREDICTED BY IDOCK:   -3.39 KCAL/MOL
REMARK 922        TOTAL FREE ENERGY PREDICTED BY IDOCK:   -6.59 KCAL/MOL
REMARK 923 INTER-LIGAND FREE ENERGY PREDICTED BY IDOCK:   -5.52 KCAL/MOL
REMARK 924 INTRA-LIGAND FREE ENERGY PREDICTED BY IDOCK:   -1.07 KCAL/MOL
REMARK 927      BINDING AFFINITY PREDICTED BY RF-SCORE:    0.00 PKD
ROOT
HETATM    1  C   UNL     1      -8.002   4.978  72.629  1.00  0.00    -0.098 C  
HETATM    2  C   UNL     1      -7.995   5.464  71.188  1.00  0.00    -0.109 C  
ENDROOT
BRANCH   2   3
HETATM    3  C   UNL     1      -8.862   4.572  70.300  1.00  0.00    -0.083 C  
BRANCH   3   4
HETATM    4  N   UNL     1     -10.150   5.220  70.061  1.00  0.00    -0.243 NA 
HETATM    5  H   UNL     1     -10.850   4.940  70.749  1.00  0.00     0.000 HD 
BRANCH   4   6
HETATM    6  C   UNL     1      -9.984   6.679  70.011  1.00  0.00    -0.172 C  
BRANCH   6   7
HETATM    7  C   UNL     1     -11.079   7.331  69.147  1.00  0.00     0.008 C  
HETATM    8  O   UNL     1     -11.197   8.729  69.454  1.00  0.00    -0.440 OA 
HETATM    9  H   UNL     1     -11.873   9.130  68.921  1.00  0.00     0.000 HD 
BRANCH   7  10
HETATM   10  C   UNL     1     -10.772   7.161  67.655  1.00  0.00    -0.244 C  
BRANCH  10  11
HETATM   11  O   UNL     1     -10.546   8.454  67.060  1.00  0.00    -0.314 OA 
BRANCH  11  12
HETATM   12  C   UNL     1      -9.530   8.503  66.141  1.00  0.00    -0.217 A  
HETATM   13  C   UNL     1      -9.299   9.696  65.426  1.00  0.00    -0.320 A  
HETATM   14  C   UNL     1      -8.756   7.370  65.846  1.00  0.00    -0.161 A  
HETATM   15  C   UNL     1      -8.257   9.742  64.484  1.00  0.00    -0.156 A  
HETATM   16  C   UNL     1      -7.738   7.426  64.894  1.00  0.00    -0.113 A  
HETATM   17  C   UNL     1      -7.485   8.611  64.216  1.00  0.00    -0.109 A  
BRANCH  13  18
HETATM   18  C   UNL     1     -10.114  10.933  65.661  1.00  0.00    -0.261 C  
HETATM   19  O   UNL     1     -11.259  11.015  65.223  1.00  0.00    -0.023 OA 
BRANCH  18  20
HETATM   20  C   UNL     1      -9.537  12.052  66.519  1.00  0.00    -0.234 C  
BRANCH  20  21
HETATM   21  C   UNL     1     -10.453  13.269  66.578  1.00  0.00    -0.282 C  
BRANCH  21  22
HETATM   22  C   UNL     1     -10.966  13.538  67.973  1.00  0.00    -0.271 A  
HETATM   23  C   UNL     1     -10.852  14.816  68.540  1.00  0.00    -0.255 A  
HETATM   24  C   UNL     1     -11.349  15.069  69.820  1.00  0.00    -0.310 A  
HETATM   25  C   UNL     1     -11.958  14.049  70.547  1.00  0.00    -0.390 A  
HETATM   26  C   UNL     1     -12.064  12.773  69.998  1.00  0.00    -0.355 A  
HETATM   27  C   UNL     1     -11.567  12.516  68.718  1.00  0.00    -0.366 A  
ENDBRANCH  21  22
ENDBRANCH  20  21
ENDBRANCH  18  20
ENDBRANCH  13  18
ENDBRANCH  11  12
ENDBRANCH  10  11
ENDBRANCH   7  10
ENDBRANCH   6   7
ENDBRANCH   4   6
ENDBRANCH   3   4
ENDBRANCH   2   3
TORSDOF 11
ENDMDL
MODEL      336
REMARK 921   NORMALIZED FREE ENERGY PREDICTED BY IDOCK:   -3.37 KCAL/MOL
REMARK 922        TOTAL FREE ENERGY PREDICTED BY IDOCK:   -6.56 KCAL/MOL
REMARK 923 INTER-LIGAND FREE ENERGY PREDICTED BY IDOCK:   -5.45 KCAL/MOL
REMARK 924 INTRA-LIGAND FREE ENERGY PREDICTED BY IDOCK:   -1.11 KCAL/MOL
REMARK 927      BINDING AFFINITY PREDICTED BY RF-SCORE:    0.00 PKD
ROOT
HETATM    1  C   UNL     1     -12.159  12.998  65.112  1.00  0.00    -0.476 C  
HETATM    2  C   UNL     1     -12.091  12.338  63.744  1.00  0.00    -0.624 C  
ENDROOT
BRANCH   2   3
HETATM    3  C   UNL     1     -10.644  12.086  63.322  1.00  0.00    -0.348 C  
BRANCH   3   4
HETATM    4  N   UNL     1      -9.877  11.596  64.466  1.00  0.00    -0.306 NA 
HETATM    5  H   UNL     1     -10.041  12.157  65.303  1.00  0.00     0.000 HD 
BRANCH   4   6
HETATM    6  C   UNL     1     -10.160  10.173  64.696  1.00  0.00    -0.140 C  
BRANCH   6   7
HETATM    7  C   UNL     1      -8.940   9.458  65.304  1.00  0.00    -0.204 C  
HETATM    8  O   UNL     1      -7.737  10.189  65.023  1.00  0.00    -0.135 OA 
HETATM    9  H   UNL     1      -6.984   9.747  65.398  1.00  0.00     0.000 HD 
BRANCH   7  10
HETATM   10  C   UNL     1      -9.097   9.301  66.821  1.00  0.00    -0.140 C  
BRANCH  10  11
HETATM   11  O   UNL     1      -8.792  10.552  67.468  1.00  0.00    -0.131 OA 
BRANCH  11  12
HETATM   12  C   UNL     1      -9.818  11.095  68.199  1.00  0.00    -0.180 A  
HETATM   13  C   UNL     1      -9.923  12.497  68.310  1.00  0.00    -0.229 A  
HETATM   14  C   UNL     1     -10.728  10.285  68.895  1.00  0.00    -0.256 A  
HETATM   15  C   UNL     1     -10.975  13.049  69.061  1.00  0.00    -0.242 A  
HETATM   16  C   UNL     1     -11.755  10.849  69.652  1.00  0.00    -0.403 A  
HETATM   17  C   UNL     1     -11.882  12.229  69.732  1.00  0.00    -0.388 A  
BRANCH  13  18
HETATM   18  C   UNL     1      -8.961  13.422  67.626  1.00  0.00    -0.202 C  
HETATM   19  O   UNL     1      -9.343  14.507  67.193  1.00  0.00    -0.202 OA 
BRANCH  18  20
HETATM   20  C   UNL     1      -7.489  13.037  67.547  1.00  0.00    -0.158 C  
BRANCH  20  21
HETATM   21  C   UNL     1      -6.801  13.093  68.907  1.00  0.00    -0.103 C  
BRANCH  21  22
HETATM   22  C   UNL     1      -6.288  14.475  69.237  1.00  0.00    -0.117 A  
HETATM   23  C   UNL     1      -6.026  15.400  68.216  1.00  0.00    -0.122 A  
HETATM   24  C   UNL     1      -5.574  16.685  68.523  1.00  0.00    -0.121 A  
HETATM   25  C   UNL     1      -5.376  17.056  69.851  1.00  0.00    -0.190 A  
HETATM   26  C   UNL     1      -5.620  16.140  70.872  1.00  0.00     0.081 A  
HETATM   27  C   UNL     1      -6.071  14.853  70.567  1.00  0.00    -0.113 A  
ENDBRANCH  21  22
ENDBRANCH  20  21
ENDBRANCH  18  20
ENDBRANCH  13  18
ENDBRANCH  11  12
ENDBRANCH  10  11
ENDBRANCH   7  10
ENDBRANCH   6   7
ENDBRANCH   4   6
ENDBRANCH   3   4
ENDBRANCH   2   3
TORSDOF 11
ENDMDL
MODEL      337
REMARK 921   NORMALIZED FREE ENERGY PREDICTED BY IDOCK:   -3.34 KCAL/MOL
REMARK 922        TOTAL FREE ENERGY PREDICTED BY IDOCK:   -6.50 KCAL/MOL
REMARK 923 INTER-LIGAND FREE ENERGY PREDICTED BY IDOCK:   -4.77 KCAL/MOL
REMARK 924 INTRA-LIGAND FREE ENERGY PREDICTED BY IDOCK:   -1.73 KCAL/MOL
REMARK 927      BINDING AFFINITY PREDICTED BY RF-SCORE:    0.00 PKD
ROOT
HETATM    1  C   UNL     1      -8.643  13.779  67.587  1.00  0.00    -0.187 C  
HETATM    2  C   UNL     1      -7.718  12.782  68.267  1.00  0.00    -0.136 C  
ENDROOT
BRANCH   2   3
HETATM    3  C   UNL     1      -6.877  12.020  67.243  1.00  0.00    -0.150 C  
BRANCH   3   4
HETATM    4  N   UNL     1      -6.727  10.630  67.667  1.00  0.00    -0.071 NA 
HETATM    5  H   UNL     1      -6.647   9.995  66.872  1.00  0.00     0.000 HD 
BRANCH   4   6
HETATM    6  C   UNL     1      -5.590  10.499  68.588  1.00  0.00    -0.041 C  
BRANCH   6   7
HETATM    7  C   UNL     1      -6.039   9.922  69.943  1.00  0.00    -0.048 C  
HETATM    8  O   UNL     1      -6.830  10.882  70.661  1.00  0.00    -0.472 OA 
HETATM    9  H   UNL     1      -7.107  10.525  71.497  1.00  0.00     0.000 HD 
BRANCH   7  10
HETATM   10  C   UNL     1      -6.853   8.638  69.747  1.00  0.00    -0.042 C  
BRANCH  10  11
HETATM   11  O   UNL     1      -8.199   8.975  69.358  1.00  0.00    -0.110 OA 
BRANCH  11  12
HETATM   12  C   UNL     1      -9.182   8.496  70.185  1.00  0.00    -0.156 A  
HETATM   13  C   UNL     1      -9.765   7.241  69.913  1.00  0.00    -0.174 A  
HETATM   14  C   UNL     1      -9.670   9.256  71.258  1.00  0.00    -0.299 A  
HETATM   15  C   UNL     1     -10.774   6.754  70.761  1.00  0.00    -0.270 A  
HETATM   16  C   UNL     1     -10.685   8.767  72.080  1.00  0.00    -0.383 A  
HETATM   17  C   UNL     1     -11.234   7.516  71.836  1.00  0.00    -0.286 A  
BRANCH  13  18
HETATM   18  C   UNL     1      -9.322   6.393  68.758  1.00  0.00    -0.125 C  
HETATM   19  O   UNL     1      -8.315   5.695  68.850  1.00  0.00    -0.102 OA 
BRANCH  18  20
HETATM   20  C   UNL     1     -10.180   6.344  67.500  1.00  0.00    -0.211 C  
BRANCH  20  21
HETATM   21  C   UNL     1     -10.764   7.707  67.143  1.00  0.00    -0.361 C  
BRANCH  21  22
HETATM   22  C   UNL     1      -9.888   8.478  66.185  1.00  0.00    -0.227 A  
HETATM   23  C   UNL     1     -10.085   9.852  65.987  1.00  0.00    -0.314 A  
HETATM   24  C   UNL     1      -9.259  10.569  65.119  1.00  0.00    -0.243 A  
HETATM   25  C   UNL     1      -8.233   9.919  64.437  1.00  0.00    -0.164 A  
HETATM   26  C   UNL     1      -8.037   8.551  64.616  1.00  0.00    -0.153 A  
HETATM   27  C   UNL     1      -8.863   7.832  65.483  1.00  0.00    -0.048 A  
ENDBRANCH  21  22
ENDBRANCH  20  21
ENDBRANCH  18  20
ENDBRANCH  13  18
ENDBRANCH  11  12
ENDBRANCH  10  11
ENDBRANCH   7  10
ENDBRANCH   6   7
ENDBRANCH   4   6
ENDBRANCH   3   4
ENDBRANCH   2   3
TORSDOF 11
ENDMDL
MODEL      338
REMARK 921   NORMALIZED FREE ENERGY PREDICTED BY IDOCK:   -3.33 KCAL/MOL
REMARK 922        TOTAL FREE ENERGY PREDICTED BY IDOCK:   -6.49 KCAL/MOL
REMARK 923 INTER-LIGAND FREE ENERGY PREDICTED BY IDOCK:   -4.14 KCAL/MOL
REMARK 924 INTRA-LIGAND FREE ENERGY PREDICTED BY IDOCK:   -2.35 KCAL/MOL
REMARK 927      BINDING AFFINITY PREDICTED BY RF-SCORE:    0.00 PKD
ROOT
HETATM    1  C   UNL     1     -13.072  11.289  71.905  1.00  0.00    -0.510 C  
HETATM    2  C   UNL     1     -12.790   9.862  71.459  1.00  0.00    -0.522 C  
ENDROOT
BRANCH   2   3
HETATM    3  C   UNL     1     -11.436   9.759  70.759  1.00  0.00    -0.342 C  
BRANCH   3   4
HETATM    4  N   UNL     1     -11.637   9.439  69.347  1.00  0.00    -0.367 NA 
HETATM    5  H   UNL     1     -12.601   9.168  69.151  1.00  0.00     0.000 HD 
BRANCH   4   6
HETATM    6  C   UNL     1     -11.202  10.562  68.505  1.00  0.00    -0.274 C  
BRANCH   6   7
HETATM    7  C   UNL     1      -9.857  10.253  67.823  1.00  0.00    -0.169 C  
HETATM    8  O   UNL     1      -8.769  10.794  68.587  1.00  0.00    -0.138 OA 
HETATM    9  H   UNL     1      -7.939  10.603  68.166  1.00  0.00     0.000 HD 
BRANCH   7  10
HETATM   10  C   UNL     1      -9.661   8.741  67.659  1.00  0.00    -0.169 C  
BRANCH  10  11
HETATM   11  O   UNL     1      -9.066   8.201  68.855  1.00  0.00    -0.147 OA 
BRANCH  11  12
HETATM   12  C   UNL     1      -8.144   7.207  68.649  1.00  0.00    -0.124 A  
HETATM   13  C   UNL     1      -6.798   7.427  69.008  1.00  0.00    -0.068 A  
HETATM   14  C   UNL     1      -8.495   6.000  68.026  1.00  0.00    -0.115 A  
HETATM   15  C   UNL     1      -5.855   6.407  68.793  1.00  0.00    -0.020 A  
HETATM   16  C   UNL     1      -7.544   5.006  67.802  1.00  0.00    -0.083 A  
HETATM   17  C   UNL     1      -6.226   5.205  68.190  1.00  0.00    -0.034 A  
BRANCH  13  18
HETATM   18  C   UNL     1      -6.344   8.708  69.641  1.00  0.00    -0.039 C  
HETATM   19  O   UNL     1      -5.906   9.623  68.947  1.00  0.00    -0.039 OA 
BRANCH  18  20
HETATM   20  C   UNL     1      -6.508   8.894  71.144  1.00  0.00    -0.066 C  
BRANCH  20  21
HETATM   21  C   UNL     1      -6.299   7.594  71.915  1.00  0.00    -0.039 C  
BRANCH  21  22
HETATM   22  C   UNL     1      -7.583   6.822  72.103  1.00  0.00    -0.094 A  
HETATM   23  C   UNL     1      -7.613   5.432  71.913  1.00  0.00    -0.098 A  
HETATM   24  C   UNL     1      -8.795   4.716  72.111  1.00  0.00    -0.135 A  
HETATM   25  C   UNL     1      -9.958   5.380  72.494  1.00  0.00    -0.201 A  
HETATM   26  C   UNL     1      -9.942   6.762  72.672  1.00  0.00    -0.186 A  
HETATM   27  C   UNL     1      -8.762   7.481  72.473  1.00  0.00    -0.163 A  
ENDBRANCH  21  22
ENDBRANCH  20  21
ENDBRANCH  18  20
ENDBRANCH  13  18
ENDBRANCH  11  12
ENDBRANCH  10  11
ENDBRANCH   7  10
ENDBRANCH   6   7
ENDBRANCH   4   6
ENDBRANCH   3   4
ENDBRANCH   2   3
TORSDOF 11
ENDMDL
MODEL      339
REMARK 921   NORMALIZED FREE ENERGY PREDICTED BY IDOCK:   -3.30 KCAL/MOL
REMARK 922        TOTAL FREE ENERGY PREDICTED BY IDOCK:   -6.43 KCAL/MOL
REMARK 923 INTER-LIGAND FREE ENERGY PREDICTED BY IDOCK:   -5.27 KCAL/MOL
REMARK 924 INTRA-LIGAND FREE ENERGY PREDICTED BY IDOCK:   -1.17 KCAL/MOL
REMARK 927      BINDING AFFINITY PREDICTED BY RF-SCORE:    0.00 PKD
ROOT
HETATM    1  C   UNL     1     -12.059  14.563  64.510  1.00  0.00    -0.501 C  
HETATM    2  C   UNL     1     -10.789  15.234  65.012  1.00  0.00    -0.457 C  
ENDROOT
BRANCH   2   3
HETATM    3  C   UNL     1      -9.861  14.226  65.687  1.00  0.00    -0.271 C  
BRANCH   3   4
HETATM    4  N   UNL     1     -10.027  12.913  65.067  1.00  0.00    -0.493 NA 
HETATM    5  H   UNL     1      -9.637  12.884  64.125  1.00  0.00     0.000 HD 
BRANCH   4   6
HETATM    6  C   UNL     1      -9.456  11.868  65.928  1.00  0.00    -0.214 C  
BRANCH   6   7
HETATM    7  C   UNL     1     -10.529  11.268  66.855  1.00  0.00    -0.245 C  
HETATM    8  O   UNL     1     -11.829  11.770  66.510  1.00  0.00    -0.550 OA 
HETATM    9  H   UNL     1     -12.491  11.400  67.083  1.00  0.00     0.000 HD 
BRANCH   7  10
HETATM   10  C   UNL     1     -10.535   9.737  66.766  1.00  0.00    -0.189 C  
BRANCH  10  11
HETATM   11  O   UNL     1      -9.291   9.220  67.277  1.00  0.00    -0.128 OA 
BRANCH  11  12
HETATM   12  C   UNL     1      -9.279   8.959  68.624  1.00  0.00    -0.137 A  
HETATM   13  C   UNL     1      -8.259   9.512  69.426  1.00  0.00    -0.126 A  
HETATM   14  C   UNL     1     -10.219   8.099  69.211  1.00  0.00    -0.216 A  
HETATM   15  C   UNL     1      -8.249   9.240  70.805  1.00  0.00    -0.210 A  
HETATM   16  C   UNL     1     -10.183   7.824  70.577  1.00  0.00    -0.201 A  
HETATM   17  C   UNL     1      -9.202   8.398  71.376  1.00  0.00    -0.242 A  
BRANCH  13  18
HETATM   18  C   UNL     1      -7.199  10.407  68.858  1.00  0.00    -0.082 C  
HETATM   19  O   UNL     1      -6.268   9.934  68.211  1.00  0.00    -0.050 OA 
BRANCH  18  20
HETATM   20  C   UNL     1      -7.333  11.915  69.023  1.00  0.00    -0.038 C  
BRANCH  20  21
HETATM   21  C   UNL     1      -6.380  12.685  68.114  1.00  0.00    -0.080 C  
BRANCH  21  22
HETATM   22  C   UNL     1      -6.332  14.158  68.444  1.00  0.00    -0.101 A  
HETATM   23  C   UNL     1      -7.209  15.057  67.819  1.00  0.00    -0.186 A  
HETATM   24  C   UNL     1      -7.180  16.415  68.142  1.00  0.00    -0.148 A  
HETATM   25  C   UNL     1      -6.273  16.889  69.087  1.00  0.00    -0.196 A  
HETATM   26  C   UNL     1      -5.388  16.005  69.704  1.00  0.00    -0.118 A  
HETATM   27  C   UNL     1      -5.414  14.647  69.382  1.00  0.00    -0.090 A  
ENDBRANCH  21  22
ENDBRANCH  20  21
ENDBRANCH  18  20
ENDBRANCH  13  18
ENDBRANCH  11  12
ENDBRANCH  10  11
ENDBRANCH   7  10
ENDBRANCH   6   7
ENDBRANCH   4   6
ENDBRANCH   3   4
ENDBRANCH   2   3
TORSDOF 11
ENDMDL
MODEL      340
REMARK 921   NORMALIZED FREE ENERGY PREDICTED BY IDOCK:   -3.26 KCAL/MOL
REMARK 922        TOTAL FREE ENERGY PREDICTED BY IDOCK:   -6.37 KCAL/MOL
REMARK 923 INTER-LIGAND FREE ENERGY PREDICTED BY IDOCK:   -5.80 KCAL/MOL
REMARK 924 INTRA-LIGAND FREE ENERGY PREDICTED BY IDOCK:   -0.58 KCAL/MOL
REMARK 927      BINDING AFFINITY PREDICTED BY RF-SCORE:    0.00 PKD
ROOT
HETATM    1  C   UNL     1     -12.682  11.886  63.548  1.00  0.00    -0.530 C  
HETATM    2  C   UNL     1     -11.296  12.430  63.241  1.00  0.00    -0.399 C  
ENDROOT
BRANCH   2   3
HETATM    3  C   UNL     1     -10.722  13.190  64.436  1.00  0.00    -0.407 C  
BRANCH   3   4
HETATM    4  N   UNL     1     -11.799  13.530  65.365  1.00  0.00    -0.341 NA 
HETATM    5  H   UNL     1     -11.816  12.907  66.173  1.00  0.00     0.000 HD 
BRANCH   4   6
HETATM    6  C   UNL     1     -11.701  14.941  65.762  1.00  0.00    -0.179 C  
BRANCH   6   7
HETATM    7  C   UNL     1     -10.688  15.694  64.881  1.00  0.00    -0.382 C  
HETATM    8  O   UNL     1     -11.346  16.722  64.125  1.00  0.00    -1.425 OA 
HETATM    9  H   UNL     1     -10.721  17.186  63.581  1.00  0.00     0.000 HD 
BRANCH   7  10
HETATM   10  C   UNL     1      -9.580  16.322  65.734  1.00  0.00    -0.231 C  
BRANCH  10  11
HETATM   11  O   UNL     1      -9.111  15.359  66.699  1.00  0.00    -0.236 OA 
BRANCH  11  12
HETATM   12  C   UNL     1      -8.045  15.768  67.459  1.00  0.00    -0.159 A  
HETATM   13  C   UNL     1      -7.125  14.810  67.932  1.00  0.00    -0.171 A  
HETATM   14  C   UNL     1      -7.886  17.110  67.834  1.00  0.00    -0.196 A  
HETATM   15  C   UNL     1      -6.035  15.232  68.712  1.00  0.00    -0.088 A  
HETATM   16  C   UNL     1      -6.810  17.511  68.625  1.00  0.00    -0.227 A  
HETATM   17  C   UNL     1      -5.882  16.574  69.060  1.00  0.00    -0.145 A  
BRANCH  13  18
HETATM   18  C   UNL     1      -7.256  13.352  67.604  1.00  0.00    -0.161 C  
HETATM   19  O   UNL     1      -8.146  12.963  66.851  1.00  0.00    -0.097 OA 
BRANCH  18  20
HETATM   20  C   UNL     1      -6.225  12.373  68.149  1.00  0.00    -0.065 C  
BRANCH  20  21
HETATM   21  C   UNL     1      -5.326  11.808  67.053  1.00  0.00    -0.122 C  
BRANCH  21  22
HETATM   22  C   UNL     1      -5.437  10.306  66.934  1.00  0.00    -0.042 A  
HETATM   23  C   UNL     1      -5.360   9.493  68.074  1.00  0.00    -0.040 A  
HETATM   24  C   UNL     1      -5.487   8.107  67.964  1.00  0.00    -0.034 A  
HETATM   25  C   UNL     1      -5.685   7.520  66.717  1.00  0.00    -0.028 A  
HETATM   26  C   UNL     1      -5.749   8.318  65.576  1.00  0.00    -0.044 A  
HETATM   27  C   UNL     1      -5.621   9.705  65.682  1.00  0.00    -0.049 A  
ENDBRANCH  21  22
ENDBRANCH  20  21
ENDBRANCH  18  20
ENDBRANCH  13  18
ENDBRANCH  11  12
ENDBRANCH  10  11
ENDBRANCH   7  10
ENDBRANCH   6   7
ENDBRANCH   4   6
ENDBRANCH   3   4
ENDBRANCH   2   3
TORSDOF 11
ENDMDL
MODEL      341
REMARK 921   NORMALIZED FREE ENERGY PREDICTED BY IDOCK:   -3.26 KCAL/MOL
REMARK 922        TOTAL FREE ENERGY PREDICTED BY IDOCK:   -6.37 KCAL/MOL
REMARK 923 INTER-LIGAND FREE ENERGY PREDICTED BY IDOCK:   -5.88 KCAL/MOL
REMARK 924 INTRA-LIGAND FREE ENERGY PREDICTED BY IDOCK:   -0.49 KCAL/MOL
REMARK 927      BINDING AFFINITY PREDICTED BY RF-SCORE:    0.00 PKD
ROOT
HETATM    1  C   UNL     1      -5.315  12.371  70.810  1.00  0.00    -0.163 C  
HETATM    2  C   UNL     1      -5.132  11.478  69.592  1.00  0.00    -0.057 C  
ENDROOT
BRANCH   2   3
HETATM    3  C   UNL     1      -5.754  10.101  69.818  1.00  0.00    -0.043 C  
BRANCH   3   4
HETATM    4  N   UNL     1      -6.972   9.975  69.021  1.00  0.00    -0.054 NA 
HETATM    5  H   UNL     1      -7.660  10.690  69.260  1.00  0.00     0.000 HD 
BRANCH   4   6
HETATM    6  C   UNL     1      -6.646   9.987  67.588  1.00  0.00    -0.067 C  
BRANCH   6   7
HETATM    7  C   UNL     1      -7.743   9.287  66.765  1.00  0.00    -0.094 C  
HETATM    8  O   UNL     1      -8.807   8.842  67.621  1.00  0.00    -0.134 OA 
HETATM    9  H   UNL     1      -9.483   8.410  67.113  1.00  0.00     0.000 HD 
BRANCH   7  10
HETATM   10  C   UNL     1      -8.310  10.228  65.696  1.00  0.00    -0.158 C  
BRANCH  10  11
HETATM   11  O   UNL     1      -9.087  11.263  66.329  1.00  0.00    -0.187 OA 
BRANCH  11  12
HETATM   12  C   UNL     1     -10.052  11.834  65.539  1.00  0.00    -0.249 A  
HETATM   13  C   UNL     1     -10.589  13.087  65.898  1.00  0.00    -0.288 A  
HETATM   14  C   UNL     1     -10.566  11.167  64.417  1.00  0.00    -0.411 A  
HETATM   15  C   UNL     1     -11.579  13.667  65.086  1.00  0.00    -0.333 A  
HETATM   16  C   UNL     1     -11.562  11.748  63.633  1.00  0.00    -0.521 A  
HETATM   17  C   UNL     1     -12.065  12.999  63.963  1.00  0.00    -0.519 A  
BRANCH  13  18
HETATM   18  C   UNL     1     -10.115  13.837  67.107  1.00  0.00    -0.241 C  
HETATM   19  O   UNL     1      -9.483  13.260  67.988  1.00  0.00    -0.206 OA 
BRANCH  18  20
HETATM   20  C   UNL     1     -10.356  15.339  67.191  1.00  0.00    -0.265 C  
BRANCH  20  21
HETATM   21  C   UNL     1      -9.490  16.121  66.208  1.00  0.00    -0.347 C  
BRANCH  21  22
HETATM   22  C   UNL     1      -8.465  16.985  66.902  1.00  0.00    -0.244 A  
HETATM   23  C   UNL     1      -7.146  17.045  66.430  1.00  0.00    -0.285 A  
HETATM   24  C   UNL     1      -6.205  17.863  67.059  1.00  0.00    -0.182 A  
HETATM   25  C   UNL     1      -6.571  18.625  68.166  1.00  0.00    -0.231 A  
HETATM   26  C   UNL     1      -7.876  18.562  68.651  1.00  0.00    -0.338 A  
HETATM   27  C   UNL     1      -8.818  17.743  68.026  1.00  0.00    -0.259 A  
ENDBRANCH  21  22
ENDBRANCH  20  21
ENDBRANCH  18  20
ENDBRANCH  13  18
ENDBRANCH  11  12
ENDBRANCH  10  11
ENDBRANCH   7  10
ENDBRANCH   6   7
ENDBRANCH   4   6
ENDBRANCH   3   4
ENDBRANCH   2   3
TORSDOF 11
ENDMDL
MODEL      342
REMARK 921   NORMALIZED FREE ENERGY PREDICTED BY IDOCK:   -3.25 KCAL/MOL
REMARK 922        TOTAL FREE ENERGY PREDICTED BY IDOCK:   -6.36 KCAL/MOL
REMARK 923 INTER-LIGAND FREE ENERGY PREDICTED BY IDOCK:   -4.46 KCAL/MOL
REMARK 924 INTRA-LIGAND FREE ENERGY PREDICTED BY IDOCK:   -1.90 KCAL/MOL
REMARK 927      BINDING AFFINITY PREDICTED BY RF-SCORE:    0.00 PKD
ROOT
HETATM    1  C   UNL     1      -6.217   8.520  72.931  1.00  0.00    -0.095 C  
HETATM    2  C   UNL     1      -6.621   7.509  71.869  1.00  0.00    -0.042 C  
ENDROOT
BRANCH   2   3
HETATM    3  C   UNL     1      -8.139   7.469  71.693  1.00  0.00    -0.102 C  
BRANCH   3   4
HETATM    4  N   UNL     1      -8.484   7.835  70.321  1.00  0.00    -0.131 NA 
HETATM    5  H   UNL     1      -7.665   8.128  69.787  1.00  0.00     0.000 HD 
BRANCH   4   6
HETATM    6  C   UNL     1      -9.200   6.732  69.665  1.00  0.00    -0.145 C  
BRANCH   6   7
HETATM    7  C   UNL     1     -10.563   7.202  69.125  1.00  0.00    -0.214 C  
HETATM    8  O   UNL     1     -11.190   8.099  70.055  1.00  0.00    -0.401 OA 
HETATM    9  H   UNL     1     -12.032   8.388  69.721  1.00  0.00     0.000 HD 
BRANCH   7  10
HETATM   10  C   UNL     1     -10.403   7.904  67.771  1.00  0.00    -0.226 C  
BRANCH  10  11
HETATM   11  O   UNL     1      -9.495   9.014  67.909  1.00  0.00    -0.140 OA 
BRANCH  11  12
HETATM   12  C   UNL     1      -8.712   9.265  66.811  1.00  0.00    -0.127 A  
HETATM   13  C   UNL     1      -7.601  10.125  66.935  1.00  0.00    -0.100 A  
HETATM   14  C   UNL     1      -9.030   8.739  65.550  1.00  0.00    -0.231 A  
HETATM   15  C   UNL     1      -6.802  10.382  65.808  1.00  0.00    -0.132 A  
HETATM   16  C   UNL     1      -8.238   9.019  64.437  1.00  0.00    -0.165 A  
HETATM   17  C   UNL     1      -7.122   9.835  64.565  1.00  0.00    -0.128 A  
BRANCH  13  18
HETATM   18  C   UNL     1      -7.227  10.755  68.244  1.00  0.00    -0.084 C  
HETATM   19  O   UNL     1      -6.721  10.079  69.137  1.00  0.00    -0.051 OA 
BRANCH  18  20
HETATM   20  C   UNL     1      -7.405  12.257  68.423  1.00  0.00    -0.109 C  
BRANCH  20  21
HETATM   21  C   UNL     1      -8.569  12.804  67.603  1.00  0.00    -0.181 C  
BRANCH  21  22
HETATM   22  C   UNL     1      -9.788  13.086  68.449  1.00  0.00    -0.203 A  
HETATM   23  C   UNL     1     -10.748  12.088  68.671  1.00  0.00    -0.266 A  
HETATM   24  C   UNL     1     -11.863  12.343  69.473  1.00  0.00    -0.368 A  
HETATM   25  C   UNL     1     -12.032  13.597  70.055  1.00  0.00    -0.413 A  
HETATM   26  C   UNL     1     -11.091  14.599  69.829  1.00  0.00    -0.268 A  
HETATM   27  C   UNL     1      -9.976  14.348  69.027  1.00  0.00    -0.135 A  
ENDBRANCH  21  22
ENDBRANCH  20  21
ENDBRANCH  18  20
ENDBRANCH  13  18
ENDBRANCH  11  12
ENDBRANCH  10  11
ENDBRANCH   7  10
ENDBRANCH   6   7
ENDBRANCH   4   6
ENDBRANCH   3   4
ENDBRANCH   2   3
TORSDOF 11
ENDMDL
MODEL      343
REMARK 921   NORMALIZED FREE ENERGY PREDICTED BY IDOCK:   -3.22 KCAL/MOL
REMARK 922        TOTAL FREE ENERGY PREDICTED BY IDOCK:   -6.31 KCAL/MOL
REMARK 923 INTER-LIGAND FREE ENERGY PREDICTED BY IDOCK:   -5.22 KCAL/MOL
REMARK 924 INTRA-LIGAND FREE ENERGY PREDICTED BY IDOCK:   -1.09 KCAL/MOL
REMARK 927      BINDING AFFINITY PREDICTED BY RF-SCORE:    0.00 PKD
ROOT
HETATM    1  C   UNL     1      -9.418  13.413  66.256  1.00  0.00    -0.196 C  
HETATM    2  C   UNL     1     -10.810  12.898  65.925  1.00  0.00    -0.294 C  
ENDROOT
BRANCH   2   3
HETATM    3  C   UNL     1     -11.741  13.006  67.133  1.00  0.00    -0.382 C  
BRANCH   3   4
HETATM    4  N   UNL     1     -12.093  11.667  67.602  1.00  0.00    -0.573 NA 
HETATM    5  H   UNL     1     -11.549  10.943  67.133  1.00  0.00     0.000 HD 
BRANCH   4   6
HETATM    6  C   UNL     1     -11.963  11.590  69.064  1.00  0.00    -0.311 C  
BRANCH   6   7
HETATM    7  C   UNL     1     -11.170  10.339  69.483  1.00  0.00    -0.261 C  
HETATM    8  O   UNL     1      -9.760  10.562  69.327  1.00  0.00    -0.214 OA 
HETATM    9  H   UNL     1      -9.271   9.790  69.586  1.00  0.00     0.000 HD 
BRANCH   7  10
HETATM   10  C   UNL     1     -11.467   9.965  70.939  1.00  0.00    -0.376 C  
BRANCH  10  11
HETATM   11  O   UNL     1     -10.280   9.422  71.549  1.00  0.00    -0.308 OA 
BRANCH  11  12
HETATM   12  C   UNL     1     -10.310   8.071  71.781  1.00  0.00    -0.217 A  
HETATM   13  C   UNL     1      -9.113   7.329  71.704  1.00  0.00    -0.143 A  
HETATM   14  C   UNL     1     -11.516   7.397  72.025  1.00  0.00    -0.310 A  
HETATM   15  C   UNL     1      -9.148   5.944  71.940  1.00  0.00    -0.142 A  
HETATM   16  C   UNL     1     -11.536   6.019  72.239  1.00  0.00    -0.359 A  
HETATM   17  C   UNL     1     -10.354   5.293  72.201  1.00  0.00    -0.268 A  
BRANCH  13  18
HETATM   18  C   UNL     1      -7.794   7.977  71.406  1.00  0.00    -0.094 C  
HETATM   19  O   UNL     1      -7.315   8.798  72.186  1.00  0.00    -0.280 OA 
BRANCH  18  20
HETATM   20  C   UNL     1      -7.017   7.547  70.168  1.00  0.00    -0.059 C  
BRANCH  20  21
HETATM   21  C   UNL     1      -7.194   8.519  69.006  1.00  0.00    -0.073 C  
BRANCH  21  22
HETATM   22  C   UNL     1      -6.864   7.890  67.673  1.00  0.00    -0.070 A  
HETATM   23  C   UNL     1      -5.811   8.388  66.891  1.00  0.00    -0.049 A  
HETATM   24  C   UNL     1      -5.492   7.790  65.670  1.00  0.00    -0.029 A  
HETATM   25  C   UNL     1      -6.224   6.695  65.217  1.00  0.00    -0.038 A  
HETATM   26  C   UNL     1      -7.280   6.201  65.980  1.00  0.00    -0.075 A  
HETATM   27  C   UNL     1      -7.602   6.798  67.201  1.00  0.00    -0.099 A  
ENDBRANCH  21  22
ENDBRANCH  20  21
ENDBRANCH  18  20
ENDBRANCH  13  18
ENDBRANCH  11  12
ENDBRANCH  10  11
ENDBRANCH   7  10
ENDBRANCH   6   7
ENDBRANCH   4   6
ENDBRANCH   3   4
ENDBRANCH   2   3
TORSDOF 11
ENDMDL
MODEL      344
REMARK 921   NORMALIZED FREE ENERGY PREDICTED BY IDOCK:   -3.19 KCAL/MOL
REMARK 922        TOTAL FREE ENERGY PREDICTED BY IDOCK:   -6.26 KCAL/MOL
REMARK 923 INTER-LIGAND FREE ENERGY PREDICTED BY IDOCK:   -4.45 KCAL/MOL
REMARK 924 INTRA-LIGAND FREE ENERGY PREDICTED BY IDOCK:   -1.81 KCAL/MOL
REMARK 927      BINDING AFFINITY PREDICTED BY RF-SCORE:    0.00 PKD
ROOT
HETATM    1  C   UNL     1      -6.168   8.972  73.522  1.00  0.00     0.078 C  
HETATM    2  C   UNL     1      -6.680   7.719  72.829  1.00  0.00    -0.072 C  
ENDROOT
BRANCH   2   3
HETATM    3  C   UNL     1      -8.142   7.451  73.181  1.00  0.00    -0.109 C  
BRANCH   3   4
HETATM    4  N   UNL     1      -8.888   7.121  71.968  1.00  0.00    -0.126 NA 
HETATM    5  H   UNL     1      -8.373   7.374  71.124  1.00  0.00     0.000 HD 
BRANCH   4   6
HETATM    6  C   UNL     1      -9.267   5.702  71.974  1.00  0.00    -0.144 C  
BRANCH   6   7
HETATM    7  C   UNL     1     -10.630   5.490  71.292  1.00  0.00    -0.236 C  
HETATM    8  O   UNL     1     -11.609   6.390  71.834  1.00  0.00    -0.289 OA 
HETATM    9  H   UNL     1     -12.450   6.259  71.413  1.00  0.00     0.000 HD 
BRANCH   7  10
HETATM   10  C   UNL     1     -10.524   5.709  69.778  1.00  0.00    -0.306 C  
BRANCH  10  11
HETATM   11  O   UNL     1     -10.006   7.028  69.517  1.00  0.00    -0.159 OA 
BRANCH  11  12
HETATM   12  C   UNL     1      -9.420   7.191  68.288  1.00  0.00    -0.133 A  
HETATM   13  C   UNL     1      -8.719   8.382  68.008  1.00  0.00    -0.139 A  
HETATM   14  C   UNL     1      -9.560   6.228  67.277  1.00  0.00    -0.138 A  
HETATM   15  C   UNL     1      -8.121   8.546  66.746  1.00  0.00    -0.098 A  
HETATM   16  C   UNL     1      -8.978   6.415  66.024  1.00  0.00    -0.143 A  
HETATM   17  C   UNL     1      -8.254   7.570  65.759  1.00  0.00    -0.137 A  
BRANCH  13  18
HETATM   18  C   UNL     1      -8.565   9.471  69.027  1.00  0.00    -0.133 C  
HETATM   19  O   UNL     1      -7.764   9.349  69.951  1.00  0.00    -0.085 OA 
BRANCH  18  20
HETATM   20  C   UNL     1      -9.353  10.764  68.857  1.00  0.00    -0.183 C  
BRANCH  20  21
HETATM   21  C   UNL     1     -10.831  10.510  68.583  1.00  0.00    -0.276 C  
BRANCH  21  22
HETATM   22  C   UNL     1     -11.700  10.804  69.784  1.00  0.00    -0.399 A  
HETATM   23  C   UNL     1     -12.398  12.016  69.879  1.00  0.00    -0.143 A  
HETATM   24  C   UNL     1     -13.219  12.276  70.978  1.00  0.00     0.156 A  
HETATM   25  C   UNL     1     -13.346  11.331  71.993  1.00  0.00    -0.386 A  
HETATM   26  C   UNL     1     -12.646  10.129  71.915  1.00  0.00    -0.437 A  
HETATM   27  C   UNL     1     -11.822   9.867  70.817  1.00  0.00    -0.415 A  
ENDBRANCH  21  22
ENDBRANCH  20  21
ENDBRANCH  18  20
ENDBRANCH  13  18
ENDBRANCH  11  12
ENDBRANCH  10  11
ENDBRANCH   7  10
ENDBRANCH   6   7
ENDBRANCH   4   6
ENDBRANCH   3   4
ENDBRANCH   2   3
TORSDOF 11
ENDMDL
MODEL      345
REMARK 921   NORMALIZED FREE ENERGY PREDICTED BY IDOCK:   -3.19 KCAL/MOL
REMARK 922        TOTAL FREE ENERGY PREDICTED BY IDOCK:   -6.26 KCAL/MOL
REMARK 923 INTER-LIGAND FREE ENERGY PREDICTED BY IDOCK:   -5.65 KCAL/MOL
REMARK 924 INTRA-LIGAND FREE ENERGY PREDICTED BY IDOCK:   -0.60 KCAL/MOL
REMARK 927      BINDING AFFINITY PREDICTED BY RF-SCORE:    0.00 PKD
ROOT
HETATM    1  C   UNL     1     -12.578  10.715  71.732  1.00  0.00    -0.411 C  
HETATM    2  C   UNL     1     -12.025  10.231  70.400  1.00  0.00    -0.391 C  
ENDROOT
BRANCH   2   3
HETATM    3  C   UNL     1     -12.803  10.829  69.228  1.00  0.00     0.854 C  
BRANCH   3   4
HETATM    4  N   UNL     1     -11.880  11.511  68.323  1.00  0.00    -0.542 NA 
HETATM    5  H   UNL     1     -12.364  12.165  67.707  1.00  0.00     0.000 HD 
BRANCH   4   6
HETATM    6  C   UNL     1     -10.810  12.167  69.087  1.00  0.00    -0.115 C  
BRANCH   6   7
HETATM    7  C   UNL     1     -10.812  13.688  68.847  1.00  0.00    -0.235 C  
HETATM    8  O   UNL     1     -10.346  14.382  70.014  1.00  0.00    -0.394 OA 
HETATM    9  H   UNL     1     -10.348  15.320  69.866  1.00  0.00     0.000 HD 
BRANCH   7  10
HETATM   10  C   UNL     1      -9.928  14.055  67.650  1.00  0.00    -0.237 C  
BRANCH  10  11
HETATM   11  O   UNL     1      -9.738  12.894  66.818  1.00  0.00    -0.232 OA 
BRANCH  11  12
HETATM   12  C   UNL     1     -10.500  12.864  65.677  1.00  0.00    -0.277 A  
HETATM   13  C   UNL     1     -10.403  11.758  64.809  1.00  0.00    -0.333 A  
HETATM   14  C   UNL     1     -11.325  13.942  65.320  1.00  0.00    -0.316 A  
HETATM   15  C   UNL     1     -11.183  11.732  63.640  1.00  0.00    -0.519 A  
HETATM   16  C   UNL     1     -12.079  13.909  64.148  1.00  0.00    -0.464 A  
HETATM   17  C   UNL     1     -12.013  12.804  63.310  1.00  0.00    -0.522 A  
BRANCH  13  18
HETATM   18  C   UNL     1      -9.510  10.590  65.107  1.00  0.00    -0.233 C  
HETATM   19  O   UNL     1      -8.884  10.040  64.205  1.00  0.00    -0.183 OA 
BRANCH  18  20
HETATM   20  C   UNL     1      -9.327  10.146  66.553  1.00  0.00    -0.200 C  
BRANCH  20  21
HETATM   21  C   UNL     1      -9.566   8.651  66.735  1.00  0.00    -0.269 C  
BRANCH  21  22
HETATM   22  C   UNL     1      -8.680   8.050  67.800  1.00  0.00    -0.127 A  
HETATM   23  C   UNL     1      -8.791   8.462  69.136  1.00  0.00    -0.142 A  
HETATM   24  C   UNL     1      -7.988   7.888  70.124  1.00  0.00    -0.107 A  
HETATM   25  C   UNL     1      -7.062   6.903  69.786  1.00  0.00    -0.068 A  
HETATM   26  C   UNL     1      -6.934   6.497  68.459  1.00  0.00    -0.080 A  
HETATM   27  C   UNL     1      -7.736   7.070  67.469  1.00  0.00    -0.111 A  
ENDBRANCH  21  22
ENDBRANCH  20  21
ENDBRANCH  18  20
ENDBRANCH  13  18
ENDBRANCH  11  12
ENDBRANCH  10  11
ENDBRANCH   7  10
ENDBRANCH   6   7
ENDBRANCH   4   6
ENDBRANCH   3   4
ENDBRANCH   2   3
TORSDOF 11
ENDMDL
MODEL      346
REMARK 921   NORMALIZED FREE ENERGY PREDICTED BY IDOCK:   -3.17 KCAL/MOL
REMARK 922        TOTAL FREE ENERGY PREDICTED BY IDOCK:   -6.22 KCAL/MOL
REMARK 923 INTER-LIGAND FREE ENERGY PREDICTED BY IDOCK:   -5.18 KCAL/MOL
REMARK 924 INTRA-LIGAND FREE ENERGY PREDICTED BY IDOCK:   -1.04 KCAL/MOL
REMARK 927      BINDING AFFINITY PREDICTED BY RF-SCORE:    0.00 PKD
ROOT
HETATM    1  C   UNL     1      -8.085   3.962  69.493  1.00  0.00    -0.062 C  
HETATM    2  C   UNL     1      -8.361   4.317  70.946  1.00  0.00    -0.091 C  
ENDROOT
BRANCH   2   3
HETATM    3  C   UNL     1      -9.660   3.677  71.434  1.00  0.00    -0.167 C  
BRANCH   3   4
HETATM    4  N   UNL     1     -10.581   4.718  71.885  1.00  0.00    -0.134 NA 
HETATM    5  H   UNL     1     -11.268   4.358  72.548  1.00  0.00     0.000 HD 
BRANCH   4   6
HETATM    6  C   UNL     1      -9.832   5.856  72.435  1.00  0.00    -0.163 C  
BRANCH   6   7
HETATM    7  C   UNL     1     -10.781   6.880  73.085  1.00  0.00    -0.308 C  
HETATM    8  O   UNL     1     -10.511   6.995  74.491  1.00  0.00    -0.485 OA 
HETATM    9  H   UNL     1     -11.097   7.626  74.891  1.00  0.00     0.000 HD 
BRANCH   7  10
HETATM   10  C   UNL     1     -10.636   8.256  72.426  1.00  0.00    -0.337 C  
BRANCH  10  11
HETATM   11  O   UNL     1     -11.307   8.252  71.150  1.00  0.00    -0.252 OA 
BRANCH  11  12
HETATM   12  C   UNL     1     -11.300   9.452  70.485  1.00  0.00    -0.274 A  
HETATM   13  C   UNL     1     -10.566   9.574  69.287  1.00  0.00    -0.236 A  
HETATM   14  C   UNL     1     -11.951  10.580  71.004  1.00  0.00    -0.466 A  
HETATM   15  C   UNL     1     -10.560  10.805  68.609  1.00  0.00    -0.226 A  
HETATM   16  C   UNL     1     -11.920  11.800  70.329  1.00  0.00    -0.429 A  
HETATM   17  C   UNL     1     -11.229  11.912  69.130  1.00  0.00    -0.314 A  
BRANCH  13  18
HETATM   18  C   UNL     1      -9.812   8.421  68.695  1.00  0.00    -0.170 C  
HETATM   19  O   UNL     1      -8.977   7.816  69.364  1.00  0.00    -0.142 OA 
BRANCH  18  20
HETATM   20  C   UNL     1     -10.153   7.955  67.285  1.00  0.00    -0.307 C  
BRANCH  20  21
HETATM   21  C   UNL     1      -9.254   8.592  66.231  1.00  0.00    -0.262 C  
BRANCH  21  22
HETATM   22  C   UNL     1      -7.892   7.942  66.166  1.00  0.00    -0.094 A  
HETATM   23  C   UNL     1      -7.718   6.609  66.568  1.00  0.00    -0.102 A  
HETATM   24  C   UNL     1      -6.464   6.002  66.485  1.00  0.00    -0.046 A  
HETATM   25  C   UNL     1      -5.371   6.720  66.004  1.00  0.00    -0.022 A  
HETATM   26  C   UNL     1      -5.531   8.048  65.614  1.00  0.00    -0.029 A  
HETATM   27  C   UNL     1      -6.784   8.659  65.698  1.00  0.00    -0.064 A  
ENDBRANCH  21  22
ENDBRANCH  20  21
ENDBRANCH  18  20
ENDBRANCH  13  18
ENDBRANCH  11  12
ENDBRANCH  10  11
ENDBRANCH   7  10
ENDBRANCH   6   7
ENDBRANCH   4   6
ENDBRANCH   3   4
ENDBRANCH   2   3
TORSDOF 11
ENDMDL
MODEL      347
REMARK 921   NORMALIZED FREE ENERGY PREDICTED BY IDOCK:   -3.13 KCAL/MOL
REMARK 922        TOTAL FREE ENERGY PREDICTED BY IDOCK:   -6.16 KCAL/MOL
REMARK 923 INTER-LIGAND FREE ENERGY PREDICTED BY IDOCK:   -5.12 KCAL/MOL
REMARK 924 INTRA-LIGAND FREE ENERGY PREDICTED BY IDOCK:   -1.05 KCAL/MOL
REMARK 927      BINDING AFFINITY PREDICTED BY RF-SCORE:    0.00 PKD
ROOT
HETATM    1  C   UNL     1      -9.382  13.421  66.227  1.00  0.00    -0.137 C  
HETATM    2  C   UNL     1     -10.840  13.030  66.044  1.00  0.00    -0.290 C  
ENDROOT
BRANCH   2   3
HETATM    3  C   UNL     1     -11.598  13.088  67.370  1.00  0.00    -0.356 C  
BRANCH   3   4
HETATM    4  N   UNL     1     -12.067  11.750  67.726  1.00  0.00    -0.560 NA 
HETATM    5  H   UNL     1     -11.804  11.055  67.027  1.00  0.00     0.000 HD 
BRANCH   4   6
HETATM    6  C   UNL     1     -11.589  11.384  69.067  1.00  0.00    -0.317 C  
BRANCH   6   7
HETATM    7  C   UNL     1     -11.018   9.955  69.080  1.00  0.00    -0.190 C  
HETATM    8  O   UNL     1      -9.723   9.926  68.460  1.00  0.00    -0.149 OA 
HETATM    9  H   UNL     1      -9.370   9.043  68.468  1.00  0.00     0.000 HD 
BRANCH   7  10
HETATM   10  C   UNL     1     -10.907   9.423  70.514  1.00  0.00    -0.277 C  
BRANCH  10  11
HETATM   11  O   UNL     1      -9.782   8.527  70.609  1.00  0.00    -0.166 OA 
BRANCH  11  12
HETATM   12  C   UNL     1     -10.031   7.347  71.262  1.00  0.00    -0.187 A  
HETATM   13  C   UNL     1      -9.465   6.152  70.772  1.00  0.00    -0.184 A  
HETATM   14  C   UNL     1     -10.891   7.291  72.369  1.00  0.00    -0.293 A  
HETATM   15  C   UNL     1      -9.724   4.945  71.443  1.00  0.00    -0.237 A  
HETATM   16  C   UNL     1     -11.153   6.082  73.013  1.00  0.00    -0.271 A  
HETATM   17  C   UNL     1     -10.567   4.910  72.554  1.00  0.00    -0.271 A  
BRANCH  13  18
HETATM   18  C   UNL     1      -8.570   6.132  69.569  1.00  0.00    -0.127 C  
HETATM   19  O   UNL     1      -7.460   6.657  69.612  1.00  0.00    -0.091 OA 
BRANCH  18  20
HETATM   20  C   UNL     1      -9.019   5.383  68.321  1.00  0.00    -0.112 C  
BRANCH  20  21
HETATM   21  C   UNL     1      -9.601   6.315  67.263  1.00  0.00    -0.138 C  
BRANCH  21  22
HETATM   22  C   UNL     1      -8.957   6.125  65.910  1.00  0.00    -0.133 A  
HETATM   23  C   UNL     1      -9.025   4.886  65.256  1.00  0.00    -0.152 A  
HETATM   24  C   UNL     1      -8.451   4.719  63.995  1.00  0.00    -0.132 A  
HETATM   25  C   UNL     1      -7.798   5.784  63.378  1.00  0.00    -0.102 A  
HETATM   26  C   UNL     1      -7.713   7.015  64.025  1.00  0.00    -0.116 A  
HETATM   27  C   UNL     1      -8.286   7.185  65.288  1.00  0.00    -0.128 A  
ENDBRANCH  21  22
ENDBRANCH  20  21
ENDBRANCH  18  20
ENDBRANCH  13  18
ENDBRANCH  11  12
ENDBRANCH  10  11
ENDBRANCH   7  10
ENDBRANCH   6   7
ENDBRANCH   4   6
ENDBRANCH   3   4
ENDBRANCH   2   3
TORSDOF 11
ENDMDL
MODEL      348
REMARK 921   NORMALIZED FREE ENERGY PREDICTED BY IDOCK:   -3.09 KCAL/MOL
REMARK 922        TOTAL FREE ENERGY PREDICTED BY IDOCK:   -6.09 KCAL/MOL
REMARK 923 INTER-LIGAND FREE ENERGY PREDICTED BY IDOCK:   -4.64 KCAL/MOL
REMARK 924 INTRA-LIGAND FREE ENERGY PREDICTED BY IDOCK:   -1.45 KCAL/MOL
REMARK 927      BINDING AFFINITY PREDICTED BY RF-SCORE:    0.00 PKD
ROOT
HETATM    1  C   UNL     1      -6.248  12.620  69.375  1.00  0.00    -0.113 C  
HETATM    2  C   UNL     1      -6.114  11.453  70.341  1.00  0.00    -0.110 C  
ENDROOT
BRANCH   2   3
HETATM    3  C   UNL     1      -5.749  10.165  69.605  1.00  0.00    -0.038 C  
BRANCH   3   4
HETATM    4  N   UNL     1      -6.321   9.018  70.308  1.00  0.00    -0.041 NA 
HETATM    5  H   UNL     1      -6.048   8.133  69.880  1.00  0.00     0.000 HD 
BRANCH   4   6
HETATM    6  C   UNL     1      -5.968   9.068  71.734  1.00  0.00    -0.077 C  
BRANCH   6   7
HETATM    7  C   UNL     1      -6.897   8.165  72.565  1.00  0.00    -0.086 C  
HETATM    8  O   UNL     1      -8.094   8.870  72.927  1.00  0.00    -0.380 OA 
HETATM    9  H   UNL     1      -8.667   8.312  73.440  1.00  0.00     0.000 HD 
BRANCH   7  10
HETATM   10  C   UNL     1      -7.269   6.898  71.786  1.00  0.00    -0.079 C  
BRANCH  10  11
HETATM   11  O   UNL     1      -8.666   6.605  71.982  1.00  0.00    -0.128 OA 
BRANCH  11  12
HETATM   12  C   UNL     1      -8.939   5.333  72.417  1.00  0.00    -0.131 A  
HETATM   13  C   UNL     1      -9.555   4.418  71.539  1.00  0.00    -0.228 A  
HETATM   14  C   UNL     1      -8.681   4.942  73.740  1.00  0.00    -0.105 A  
HETATM   15  C   UNL     1      -9.835   3.117  71.990  1.00  0.00    -0.241 A  
HETATM   16  C   UNL     1      -8.983   3.653  74.177  1.00  0.00    -0.091 A  
HETATM   17  C   UNL     1      -9.555   2.738  73.302  1.00  0.00    -0.134 A  
BRANCH  13  18
HETATM   18  C   UNL     1      -9.896   4.782  70.125  1.00  0.00    -0.238 C  
HETATM   19  O   UNL     1      -9.418   4.147  69.187  1.00  0.00    -0.154 OA 
BRANCH  18  20
HETATM   20  C   UNL     1     -10.905   5.893  69.866  1.00  0.00    -0.439 C  
BRANCH  20  21
HETATM   21  C   UNL     1     -10.892   6.363  68.416  1.00  0.00    -0.383 C  
BRANCH  21  22
HETATM   22  C   UNL     1     -10.394   7.782  68.273  1.00  0.00    -0.239 A  
HETATM   23  C   UNL     1     -10.233   8.357  67.004  1.00  0.00    -0.377 A  
HETATM   24  C   UNL     1      -9.796   9.677  66.875  1.00  0.00    -0.257 A  
HETATM   25  C   UNL     1      -9.510  10.432  68.009  1.00  0.00    -0.152 A  
HETATM   26  C   UNL     1      -9.653   9.865  69.275  1.00  0.00    -0.215 A  
HETATM   27  C   UNL     1     -10.089   8.545  69.407  1.00  0.00    -0.205 A  
ENDBRANCH  21  22
ENDBRANCH  20  21
ENDBRANCH  18  20
ENDBRANCH  13  18
ENDBRANCH  11  12
ENDBRANCH  10  11
ENDBRANCH   7  10
ENDBRANCH   6   7
ENDBRANCH   4   6
ENDBRANCH   3   4
ENDBRANCH   2   3
TORSDOF 11
ENDMDL
MODEL      349
REMARK 921   NORMALIZED FREE ENERGY PREDICTED BY IDOCK:   -3.07 KCAL/MOL
REMARK 922        TOTAL FREE ENERGY PREDICTED BY IDOCK:   -6.06 KCAL/MOL
REMARK 923 INTER-LIGAND FREE ENERGY PREDICTED BY IDOCK:   -5.95 KCAL/MOL
REMARK 924 INTRA-LIGAND FREE ENERGY PREDICTED BY IDOCK:   -0.11 KCAL/MOL
REMARK 927      BINDING AFFINITY PREDICTED BY RF-SCORE:    0.00 PKD
ROOT
HETATM    1  C   UNL     1     -12.171  16.517  72.625  1.00  0.00    -0.326 C  
HETATM    2  C   UNL     1     -12.664  15.428  73.565  1.00  0.00    -0.689 C  
ENDROOT
BRANCH   2   3
HETATM    3  C   UNL     1     -13.667  14.509  72.869  1.00  0.00    -0.227 C  
BRANCH   3   4
HETATM    4  N   UNL     1     -13.399  14.487  71.433  1.00  0.00    -0.343 NA 
HETATM    5  H   UNL     1     -13.121  15.405  71.083  1.00  0.00     0.000 HD 
BRANCH   4   6
HETATM    6  C   UNL     1     -12.401  13.455  71.117  1.00  0.00    -0.259 C  
BRANCH   6   7
HETATM    7  C   UNL     1     -12.830  12.085  71.671  1.00  0.00    -0.294 C  
HETATM    8  O   UNL     1     -14.204  12.118  72.089  1.00  0.00     0.177 OA 
HETATM    9  H   UNL     1     -14.468  11.272  72.431  1.00  0.00     0.000 HD 
BRANCH   7  10
HETATM   10  C   UNL     1     -12.646  10.986  70.617  1.00  0.00    -0.338 C  
BRANCH  10  11
HETATM   11  O   UNL     1     -11.432  10.259  70.887  1.00  0.00    -0.338 OA 
BRANCH  11  12
HETATM   12  C   UNL     1     -10.770   9.800  69.777  1.00  0.00    -0.256 A  
HETATM   13  C   UNL     1      -9.502   9.200  69.926  1.00  0.00    -0.199 A  
HETATM   14  C   UNL     1     -11.294   9.974  68.488  1.00  0.00    -0.115 A  
HETATM   15  C   UNL     1      -8.826   8.732  68.787  1.00  0.00    -0.134 A  
HETATM   16  C   UNL     1     -10.602   9.522  67.365  1.00  0.00    -0.337 A  
HETATM   17  C   UNL     1      -9.371   8.897  67.513  1.00  0.00    -0.160 A  
BRANCH  13  18
HETATM   18  C   UNL     1      -8.863   9.018  71.271  1.00  0.00    -0.189 C  
HETATM   19  O   UNL     1      -7.773   9.529  71.515  1.00  0.00    -0.266 OA 
BRANCH  18  20
HETATM   20  C   UNL     1      -9.619   8.262  72.356  1.00  0.00    -0.364 C  
BRANCH  20  21
HETATM   21  C   UNL     1      -9.017   6.889  72.633  1.00  0.00    -0.142 C  
BRANCH  21  22
HETATM   22  C   UNL     1      -9.211   5.931  71.482  1.00  0.00    -0.157 A  
HETATM   23  C   UNL     1     -10.365   5.995  70.687  1.00  0.00    -0.280 A  
HETATM   24  C   UNL     1     -10.532   5.125  69.608  1.00  0.00    -0.262 A  
HETATM   25  C   UNL     1      -9.551   4.180  69.315  1.00  0.00    -0.256 A  
HETATM   26  C   UNL     1      -8.406   4.100  70.107  1.00  0.00    -0.083 A  
HETATM   27  C   UNL     1      -8.238   4.968  71.187  1.00  0.00    -0.114 A  
ENDBRANCH  21  22
ENDBRANCH  20  21
ENDBRANCH  18  20
ENDBRANCH  13  18
ENDBRANCH  11  12
ENDBRANCH  10  11
ENDBRANCH   7  10
ENDBRANCH   6   7
ENDBRANCH   4   6
ENDBRANCH   3   4
ENDBRANCH   2   3
TORSDOF 11
ENDMDL
MODEL      350
REMARK 921   NORMALIZED FREE ENERGY PREDICTED BY IDOCK:   -3.07 KCAL/MOL
REMARK 922        TOTAL FREE ENERGY PREDICTED BY IDOCK:   -6.05 KCAL/MOL
REMARK 923 INTER-LIGAND FREE ENERGY PREDICTED BY IDOCK:   -5.69 KCAL/MOL
REMARK 924 INTRA-LIGAND FREE ENERGY PREDICTED BY IDOCK:   -0.36 KCAL/MOL
REMARK 927      BINDING AFFINITY PREDICTED BY RF-SCORE:    0.00 PKD
ROOT
HETATM    1  C   UNL     1     -12.562  10.707  71.815  1.00  0.00    -0.411 C  
HETATM    2  C   UNL     1     -11.878  10.286  70.523  1.00  0.00    -0.419 C  
ENDROOT
BRANCH   2   3
HETATM    3  C   UNL     1     -12.684  10.726  69.302  1.00  0.00     0.586 C  
BRANCH   3   4
HETATM    4  N   UNL     1     -11.825  11.482  68.393  1.00  0.00    -0.515 NA 
HETATM    5  H   UNL     1     -12.366  12.004  67.703  1.00  0.00     0.000 HD 
BRANCH   4   6
HETATM    6  C   UNL     1     -10.921  12.354  69.155  1.00  0.00    -0.152 C  
BRANCH   6   7
HETATM    7  C   UNL     1     -11.236  13.838  68.896  1.00  0.00    -0.272 C  
HETATM    8  O   UNL     1     -10.888  14.634  70.039  1.00  0.00    -0.423 OA 
HETATM    9  H   UNL     1     -11.083  15.550  69.879  1.00  0.00     0.000 HD 
BRANCH   7  10
HETATM   10  C   UNL     1     -10.476  14.353  67.668  1.00  0.00    -0.245 C  
BRANCH  10  11
HETATM   11  O   UNL     1     -10.018  13.236  66.882  1.00  0.00    -0.240 OA 
BRANCH  11  12
HETATM   12  C   UNL     1     -10.698  13.031  65.709  1.00  0.00    -0.274 A  
HETATM   13  C   UNL     1     -10.350  11.937  64.889  1.00  0.00    -0.328 A  
HETATM   14  C   UNL     1     -11.687  13.924  65.271  1.00  0.00    -0.347 A  
HETATM   15  C   UNL     1     -11.048  11.732  63.687  1.00  0.00    -0.518 A  
HETATM   16  C   UNL     1     -12.357  13.717  64.066  1.00  0.00    -0.370 A  
HETATM   17  C   UNL     1     -12.043  12.620  63.276  1.00  0.00    -0.524 A  
BRANCH  13  18
HETATM   18  C   UNL     1      -9.275  10.966  65.275  1.00  0.00    -0.210 C  
HETATM   19  O   UNL     1      -8.575  11.174  66.263  1.00  0.00    -0.173 OA 
BRANCH  18  20
HETATM   20  C   UNL     1      -9.115   9.679  64.476  1.00  0.00    -0.287 C  
BRANCH  20  21
HETATM   21  C   UNL     1      -8.167   9.846  63.292  1.00  0.00    -0.158 C  
BRANCH  21  22
HETATM   22  C   UNL     1      -7.366   8.596  63.014  1.00  0.00    -0.097 A  
HETATM   23  C   UNL     1      -8.010   7.402  62.656  1.00  0.00    -0.126 A  
HETATM   24  C   UNL     1      -7.268   6.253  62.376  1.00  0.00    -0.045 A  
HETATM   25  C   UNL     1      -5.877   6.284  62.454  1.00  0.00    -0.026 A  
HETATM   26  C   UNL     1      -5.229   7.462  62.821  1.00  0.00    -0.034 A  
HETATM   27  C   UNL     1      -5.969   8.612  63.104  1.00  0.00    -0.082 A  
ENDBRANCH  21  22
ENDBRANCH  20  21
ENDBRANCH  18  20
ENDBRANCH  13  18
ENDBRANCH  11  12
ENDBRANCH  10  11
ENDBRANCH   7  10
ENDBRANCH   6   7
ENDBRANCH   4   6
ENDBRANCH   3   4
ENDBRANCH   2   3
TORSDOF 11
ENDMDL
MODEL      351
REMARK 921   NORMALIZED FREE ENERGY PREDICTED BY IDOCK:   -3.05 KCAL/MOL
REMARK 922        TOTAL FREE ENERGY PREDICTED BY IDOCK:   -6.03 KCAL/MOL
REMARK 923 INTER-LIGAND FREE ENERGY PREDICTED BY IDOCK:   -4.57 KCAL/MOL
REMARK 924 INTRA-LIGAND FREE ENERGY PREDICTED BY IDOCK:   -1.46 KCAL/MOL
REMARK 927      BINDING AFFINITY PREDICTED BY RF-SCORE:    0.00 PKD
ROOT
HETATM    1  C   UNL     1      -6.471   4.777  70.144  1.00  0.00    -0.035 C  
HETATM    2  C   UNL     1      -6.788   5.009  71.614  1.00  0.00    -0.048 C  
ENDROOT
BRANCH   2   3
HETATM    3  C   UNL     1      -7.962   4.145  72.069  1.00  0.00    -0.085 C  
BRANCH   3   4
HETATM    4  N   UNL     1      -9.102   4.998  72.400  1.00  0.00    -0.133 NA 
HETATM    5  H   UNL     1      -9.647   4.622  73.177  1.00  0.00     0.000 HD 
BRANCH   4   6
HETATM    6  C   UNL     1      -8.649   6.371  72.663  1.00  0.00    -0.122 C  
BRANCH   6   7
HETATM    7  C   UNL     1      -9.797   7.236  73.215  1.00  0.00    -0.256 C  
HETATM    8  O   UNL     1      -9.494   7.685  74.544  1.00  0.00    -0.343 OA 
HETATM    9  H   UNL     1     -10.203   8.218  74.885  1.00  0.00     0.000 HD 
BRANCH   7  10
HETATM   10  C   UNL     1     -10.050   8.450  72.313  1.00  0.00    -0.312 C  
BRANCH  10  11
HETATM   11  O   UNL     1     -10.918   8.071  71.227  1.00  0.00    -0.230 OA 
BRANCH  11  12
HETATM   12  C   UNL     1     -10.894   8.909  70.142  1.00  0.00    -0.231 A  
HETATM   13  C   UNL     1     -10.591   8.385  68.869  1.00  0.00    -0.162 A  
HETATM   14  C   UNL     1     -11.098  10.290  70.281  1.00  0.00    -0.388 A  
HETATM   15  C   UNL     1     -10.566   9.248  67.760  1.00  0.00    -0.307 A  
HETATM   16  C   UNL     1     -11.050  11.136  69.173  1.00  0.00    -0.306 A  
HETATM   17  C   UNL     1     -10.790  10.616  67.913  1.00  0.00    -0.328 A  
BRANCH  13  18
HETATM   18  C   UNL     1     -10.322   6.925  68.654  1.00  0.00    -0.186 C  
HETATM   19  O   UNL     1      -9.621   6.300  69.446  1.00  0.00    -0.141 OA 
BRANCH  18  20
HETATM   20  C   UNL     1     -10.995   6.209  67.490  1.00  0.00    -0.404 C  
BRANCH  20  21
HETATM   21  C   UNL     1     -10.130   6.206  66.234  1.00  0.00    -0.036 C  
BRANCH  21  22
HETATM   22  C   UNL     1      -8.880   5.374  66.396  1.00  0.00    -0.123 A  
HETATM   23  C   UNL     1      -7.612   5.958  66.255  1.00  0.00    -0.094 A  
HETATM   24  C   UNL     1      -6.457   5.193  66.429  1.00  0.00    -0.044 A  
HETATM   25  C   UNL     1      -6.556   3.839  66.741  1.00  0.00    -0.045 A  
HETATM   26  C   UNL     1      -7.811   3.247  66.870  1.00  0.00    -0.080 A  
HETATM   27  C   UNL     1      -8.968   4.009  66.694  1.00  0.00    -0.134 A  
ENDBRANCH  21  22
ENDBRANCH  20  21
ENDBRANCH  18  20
ENDBRANCH  13  18
ENDBRANCH  11  12
ENDBRANCH  10  11
ENDBRANCH   7  10
ENDBRANCH   6   7
ENDBRANCH   4   6
ENDBRANCH   3   4
ENDBRANCH   2   3
TORSDOF 11
ENDMDL
MODEL      352
REMARK 921   NORMALIZED FREE ENERGY PREDICTED BY IDOCK:   -3.05 KCAL/MOL
REMARK 922        TOTAL FREE ENERGY PREDICTED BY IDOCK:   -6.02 KCAL/MOL
REMARK 923 INTER-LIGAND FREE ENERGY PREDICTED BY IDOCK:   -5.16 KCAL/MOL
REMARK 924 INTRA-LIGAND FREE ENERGY PREDICTED BY IDOCK:   -0.85 KCAL/MOL
REMARK 927      BINDING AFFINITY PREDICTED BY RF-SCORE:    0.00 PKD
ROOT
HETATM    1  C   UNL     1      -6.236  12.478  69.370  1.00  0.00    -0.113 C  
HETATM    2  C   UNL     1      -5.993  11.363  70.375  1.00  0.00    -0.142 C  
ENDROOT
BRANCH   2   3
HETATM    3  C   UNL     1      -5.533  10.082  69.680  1.00  0.00    -0.037 C  
BRANCH   3   4
HETATM    4  N   UNL     1      -6.019   8.919  70.419  1.00  0.00    -0.033 NA 
HETATM    5  H   UNL     1      -5.645   8.047  70.047  1.00  0.00     0.000 HD 
BRANCH   4   6
HETATM    6  C   UNL     1      -5.732   9.072  71.852  1.00  0.00    -0.064 C  
BRANCH   6   7
HETATM    7  C   UNL     1      -6.721   8.256  72.704  1.00  0.00    -0.092 C  
HETATM    8  O   UNL     1      -7.903   9.025  72.976  1.00  0.00    -0.264 OA 
HETATM    9  H   UNL     1      -8.513   8.521  73.502  1.00  0.00     0.000 HD 
BRANCH   7  10
HETATM   10  C   UNL     1      -7.112   6.955  71.994  1.00  0.00    -0.074 C  
BRANCH  10  11
HETATM   11  O   UNL     1      -8.546   6.809  72.013  1.00  0.00    -0.122 OA 
BRANCH  11  12
HETATM   12  C   UNL     1      -9.003   5.624  72.531  1.00  0.00    -0.133 A  
HETATM   13  C   UNL     1      -9.630   4.692  71.678  1.00  0.00    -0.221 A  
HETATM   14  C   UNL     1      -8.922   5.346  73.904  1.00  0.00    -0.120 A  
HETATM   15  C   UNL     1     -10.099   3.480  72.213  1.00  0.00    -0.220 A  
HETATM   16  C   UNL     1      -9.410   4.147  74.422  1.00  0.00    -0.123 A  
HETATM   17  C   UNL     1      -9.994   3.212  73.578  1.00  0.00    -0.172 A  
BRANCH  13  18
HETATM   18  C   UNL     1      -9.787   4.941  70.208  1.00  0.00    -0.236 C  
HETATM   19  O   UNL     1      -9.060   4.369  69.399  1.00  0.00    -0.094 OA 
BRANCH  18  20
HETATM   20  C   UNL     1     -10.911   5.849  69.725  1.00  0.00    -0.452 C  
BRANCH  20  21
HETATM   21  C   UNL     1     -10.811   7.256  70.305  1.00  0.00    -0.264 C  
BRANCH  21  22
HETATM   22  C   UNL     1     -12.057   7.659  71.058  1.00  0.00    -0.282 A  
HETATM   23  C   UNL     1     -12.160   8.935  71.632  1.00  0.00    -0.415 A  
HETATM   24  C   UNL     1     -13.322   9.315  72.307  1.00  0.00    -0.547 A  
HETATM   25  C   UNL     1     -14.387   8.426  72.419  1.00  0.00    -0.379 A  
HETATM   26  C   UNL     1     -14.289   7.151  71.863  1.00  0.00    -0.471 A  
HETATM   27  C   UNL     1     -13.128   6.767  71.189  1.00  0.00    -0.096 A  
ENDBRANCH  21  22
ENDBRANCH  20  21
ENDBRANCH  18  20
ENDBRANCH  13  18
ENDBRANCH  11  12
ENDBRANCH  10  11
ENDBRANCH   7  10
ENDBRANCH   6   7
ENDBRANCH   4   6
ENDBRANCH   3   4
ENDBRANCH   2   3
TORSDOF 11
ENDMDL
MODEL      353
REMARK 921   NORMALIZED FREE ENERGY PREDICTED BY IDOCK:   -3.02 KCAL/MOL
REMARK 922        TOTAL FREE ENERGY PREDICTED BY IDOCK:   -5.98 KCAL/MOL
REMARK 923 INTER-LIGAND FREE ENERGY PREDICTED BY IDOCK:   -5.63 KCAL/MOL
REMARK 924 INTRA-LIGAND FREE ENERGY PREDICTED BY IDOCK:   -0.36 KCAL/MOL
REMARK 927      BINDING AFFINITY PREDICTED BY RF-SCORE:    0.00 PKD
ROOT
HETATM    1  C   UNL     1      -8.320   5.595  72.521  1.00  0.00    -0.114 C  
HETATM    2  C   UNL     1      -8.543   6.414  71.258  1.00  0.00    -0.127 C  
ENDROOT
BRANCH   2   3
HETATM    3  C   UNL     1      -9.666   7.432  71.451  1.00  0.00    -0.167 C  
BRANCH   3   4
HETATM    4  N   UNL     1      -9.165   8.776  71.168  1.00  0.00    -0.214 NA 
HETATM    5  H   UNL     1      -8.537   9.110  71.901  1.00  0.00     0.000 HD 
BRANCH   4   6
HETATM    6  C   UNL     1      -8.530   8.813  69.844  1.00  0.00    -0.131 C  
BRANCH   6   7
HETATM    7  C   UNL     1      -8.195  10.258  69.432  1.00  0.00    -0.165 C  
HETATM    8  O   UNL     1      -6.784  10.405  69.211  1.00  0.00    -0.055 OA 
HETATM    9  H   UNL     1      -6.578  11.297  68.957  1.00  0.00     0.000 HD 
BRANCH   7  10
HETATM   10  C   UNL     1      -8.953  10.654  68.159  1.00  0.00    -0.141 C  
BRANCH  10  11
HETATM   11  O   UNL     1      -8.577  11.989  67.770  1.00  0.00    -0.143 OA 
BRANCH  11  12
HETATM   12  C   UNL     1      -9.624  12.842  67.529  1.00  0.00    -0.200 A  
HETATM   13  C   UNL     1      -9.539  14.182  67.960  1.00  0.00    -0.218 A  
HETATM   14  C   UNL     1     -10.807  12.395  66.922  1.00  0.00    -0.286 A  
HETATM   15  C   UNL     1     -10.614  15.052  67.713  1.00  0.00    -0.264 A  
HETATM   16  C   UNL     1     -11.873  13.266  66.701  1.00  0.00    -0.447 A  
HETATM   17  C   UNL     1     -11.776  14.595  67.091  1.00  0.00    -0.392 A  
BRANCH  13  18
HETATM   18  C   UNL     1      -8.321  14.718  68.652  1.00  0.00    -0.165 C  
HETATM   19  O   UNL     1      -7.341  13.998  68.832  1.00  0.00    -0.121 OA 
BRANCH  18  20
HETATM   20  C   UNL     1      -8.281  16.186  69.056  1.00  0.00    -0.244 C  
BRANCH  20  21
HETATM   21  C   UNL     1      -6.866  16.756  69.034  1.00  0.00    -0.218 C  
BRANCH  21  22
HETATM   22  C   UNL     1      -6.839  18.217  68.654  1.00  0.00    -0.261 A  
HETATM   23  C   UNL     1      -6.074  19.132  69.393  1.00  0.00    -0.291 A  
HETATM   24  C   UNL     1      -6.030  20.478  69.027  1.00  0.00    -0.383 A  
HETATM   25  C   UNL     1      -6.752  20.925  67.923  1.00  0.00    -0.337 A  
HETATM   26  C   UNL     1      -7.526  20.027  67.190  1.00  0.00    -0.306 A  
HETATM   27  C   UNL     1      -7.573  18.680  67.555  1.00  0.00    -0.239 A  
ENDBRANCH  21  22
ENDBRANCH  20  21
ENDBRANCH  18  20
ENDBRANCH  13  18
ENDBRANCH  11  12
ENDBRANCH  10  11
ENDBRANCH   7  10
ENDBRANCH   6   7
ENDBRANCH   4   6
ENDBRANCH   3   4
ENDBRANCH   2   3
TORSDOF 11
ENDMDL
MODEL      354
REMARK 921   NORMALIZED FREE ENERGY PREDICTED BY IDOCK:   -3.01 KCAL/MOL
REMARK 922        TOTAL FREE ENERGY PREDICTED BY IDOCK:   -5.97 KCAL/MOL
REMARK 923 INTER-LIGAND FREE ENERGY PREDICTED BY IDOCK:   -6.89 KCAL/MOL
REMARK 924 INTRA-LIGAND FREE ENERGY PREDICTED BY IDOCK:    0.93 KCAL/MOL
REMARK 927      BINDING AFFINITY PREDICTED BY RF-SCORE:    0.00 PKD
ROOT
HETATM    1  C   UNL     1     -12.658  15.203  73.856  1.00  0.00    -0.690 C  
HETATM    2  C   UNL     1     -12.051  16.326  73.029  1.00  0.00    -0.629 C  
ENDROOT
BRANCH   2   3
HETATM    3  C   UNL     1     -11.795  15.877  71.591  1.00  0.00    -0.490 C  
BRANCH   3   4
HETATM    4  N   UNL     1     -12.893  15.024  71.139  1.00  0.00    -0.342 NA 
HETATM    5  H   UNL     1     -13.396  15.435  70.353  1.00  0.00     0.000 HD 
BRANCH   4   6
HETATM    6  C   UNL     1     -12.395  13.677  70.827  1.00  0.00    -0.371 C  
BRANCH   6   7
HETATM    7  C   UNL     1     -12.188  13.501  69.312  1.00  0.00    -0.211 C  
HETATM    8  O   UNL     1     -12.419  14.741  68.626  1.00  0.00    -0.583 OA 
HETATM    9  H   UNL     1     -12.292  14.632  67.690  1.00  0.00     0.000 HD 
BRANCH   7  10
HETATM   10  C   UNL     1     -10.769  13.008  69.007  1.00  0.00    -0.100 C  
BRANCH  10  11
HETATM   11  O   UNL     1     -10.808  12.079  67.906  1.00  0.00    -0.200 OA 
BRANCH  11  12
HETATM   12  C   UNL     1     -11.041  12.640  66.677  1.00  0.00    -0.274 A  
HETATM   13  C   UNL     1     -10.051  13.455  66.089  1.00  0.00    -0.304 A  
HETATM   14  C   UNL     1     -12.270  12.479  66.020  1.00  0.00    -0.263 A  
HETATM   15  C   UNL     1     -10.295  14.030  64.830  1.00  0.00    -0.434 A  
HETATM   16  C   UNL     1     -12.503  13.072  64.780  1.00  0.00    -0.485 A  
HETATM   17  C   UNL     1     -11.515  13.843  64.182  1.00  0.00    -0.270 A  
BRANCH  13  18
HETATM   18  C   UNL     1      -8.730  13.704  66.754  1.00  0.00    -0.082 C  
HETATM   19  O   UNL     1      -8.190  14.805  66.670  1.00  0.00    -0.104 OA 
BRANCH  18  20
HETATM   20  C   UNL     1      -8.107  12.603  67.603  1.00  0.00    -0.173 C  
BRANCH  20  21
HETATM   21  C   UNL     1      -7.695  11.393  66.771  1.00  0.00    -0.150 C  
BRANCH  21  22
HETATM   22  C   UNL     1      -8.111  10.088  67.407  1.00  0.00    -0.114 A  
HETATM   23  C   UNL     1      -7.921   8.873  66.730  1.00  0.00    -0.107 A  
HETATM   24  C   UNL     1      -8.284   7.665  67.329  1.00  0.00    -0.119 A  
HETATM   25  C   UNL     1      -8.843   7.658  68.605  1.00  0.00    -0.127 A  
HETATM   26  C   UNL     1      -9.048   8.861  69.279  1.00  0.00    -0.145 A  
HETATM   27  C   UNL     1      -8.688  10.070  68.682  1.00  0.00    -0.127 A  
ENDBRANCH  21  22
ENDBRANCH  20  21
ENDBRANCH  18  20
ENDBRANCH  13  18
ENDBRANCH  11  12
ENDBRANCH  10  11
ENDBRANCH   7  10
ENDBRANCH   6   7
ENDBRANCH   4   6
ENDBRANCH   3   4
ENDBRANCH   2   3
TORSDOF 11
ENDMDL
MODEL      355
REMARK 921   NORMALIZED FREE ENERGY PREDICTED BY IDOCK:   -3.01 KCAL/MOL
REMARK 922        TOTAL FREE ENERGY PREDICTED BY IDOCK:   -5.95 KCAL/MOL
REMARK 923 INTER-LIGAND FREE ENERGY PREDICTED BY IDOCK:   -4.48 KCAL/MOL
REMARK 924 INTRA-LIGAND FREE ENERGY PREDICTED BY IDOCK:   -1.47 KCAL/MOL
REMARK 927      BINDING AFFINITY PREDICTED BY RF-SCORE:    0.00 PKD
ROOT
HETATM    1  C   UNL     1      -5.727   8.892  72.857  1.00  0.00    -0.074 C  
HETATM    2  C   UNL     1      -6.437   7.795  72.078  1.00  0.00    -0.044 C  
ENDROOT
BRANCH   2   3
HETATM    3  C   UNL     1      -6.190   6.423  72.704  1.00  0.00    -0.054 C  
BRANCH   3   4
HETATM    4  N   UNL     1      -7.027   5.424  72.044  1.00  0.00    -0.076 NA 
HETATM    5  H   UNL     1      -7.022   4.533  72.542  1.00  0.00     0.000 HD 
BRANCH   4   6
HETATM    6  C   UNL     1      -8.390   5.942  71.862  1.00  0.00    -0.119 C  
BRANCH   6   7
HETATM    7  C   UNL     1      -9.425   4.804  71.909  1.00  0.00    -0.143 C  
HETATM    8  O   UNL     1     -10.753   5.336  72.037  1.00  0.00    -0.222 OA 
HETATM    9  H   UNL     1     -11.391   4.633  72.066  1.00  0.00     0.000 HD 
BRANCH   7  10
HETATM   10  C   UNL     1      -9.344   3.938  70.646  1.00  0.00    -0.154 C  
BRANCH  10  11
HETATM   11  O   UNL     1      -8.491   4.578  69.678  1.00  0.00    -0.069 OA 
BRANCH  11  12
HETATM   12  C   UNL     1      -8.958   4.562  68.388  1.00  0.00    -0.113 A  
HETATM   13  C   UNL     1      -9.403   5.762  67.798  1.00  0.00    -0.105 A  
HETATM   14  C   UNL     1      -9.067   3.364  67.665  1.00  0.00    -0.204 A  
HETATM   15  C   UNL     1      -9.883   5.741  66.477  1.00  0.00    -0.193 A  
HETATM   16  C   UNL     1      -9.564   3.357  66.362  1.00  0.00    -0.072 A  
HETATM   17  C   UNL     1      -9.967   4.544  65.766  1.00  0.00    -0.253 A  
BRANCH  13  18
HETATM   18  C   UNL     1      -9.353   7.072  68.527  1.00  0.00    -0.135 C  
HETATM   19  O   UNL     1      -8.274   7.609  68.768  1.00  0.00    -0.125 OA 
BRANCH  18  20
HETATM   20  C   UNL     1     -10.658   7.768  68.893  1.00  0.00    -0.168 C  
BRANCH  20  21
HETATM   21  C   UNL     1     -10.428   9.055  69.680  1.00  0.00    -0.227 C  
BRANCH  21  22
HETATM   22  C   UNL     1     -11.607   9.417  70.551  1.00  0.00    -0.291 A  
HETATM   23  C   UNL     1     -12.523   8.435  70.956  1.00  0.00    -0.101 A  
HETATM   24  C   UNL     1     -13.599   8.767  71.781  1.00  0.00    -0.453 A  
HETATM   25  C   UNL     1     -13.774  10.082  72.205  1.00  0.00    -0.244 A  
HETATM   26  C   UNL     1     -12.877  11.068  71.797  1.00  0.00    -0.496 A  
HETATM   27  C   UNL     1     -11.801  10.739  70.971  1.00  0.00    -0.349 A  
ENDBRANCH  21  22
ENDBRANCH  20  21
ENDBRANCH  18  20
ENDBRANCH  13  18
ENDBRANCH  11  12
ENDBRANCH  10  11
ENDBRANCH   7  10
ENDBRANCH   6   7
ENDBRANCH   4   6
ENDBRANCH   3   4
ENDBRANCH   2   3
TORSDOF 11
ENDMDL
MODEL      356
REMARK 921   NORMALIZED FREE ENERGY PREDICTED BY IDOCK:   -2.95 KCAL/MOL
REMARK 922        TOTAL FREE ENERGY PREDICTED BY IDOCK:   -5.87 KCAL/MOL
REMARK 923 INTER-LIGAND FREE ENERGY PREDICTED BY IDOCK:   -5.26 KCAL/MOL
REMARK 924 INTRA-LIGAND FREE ENERGY PREDICTED BY IDOCK:   -0.61 KCAL/MOL
REMARK 927      BINDING AFFINITY PREDICTED BY RF-SCORE:    0.00 PKD
ROOT
HETATM    1  C   UNL     1      -5.481  11.066  65.876  1.00  0.00    -0.140 C  
HETATM    2  C   UNL     1      -6.603  10.132  66.300  1.00  0.00    -0.094 C  
ENDROOT
BRANCH   2   3
HETATM    3  C   UNL     1      -7.297   9.515  65.086  1.00  0.00    -0.109 C  
BRANCH   3   4
HETATM    4  N   UNL     1      -8.671   9.157  65.435  1.00  0.00    -0.175 NA 
HETATM    5  H   UNL     1      -8.721   8.654  66.321  1.00  0.00     0.000 HD 
BRANCH   4   6
HETATM    6  C   UNL     1      -9.523  10.355  65.435  1.00  0.00    -0.232 C  
BRANCH   6   7
HETATM    7  C   UNL     1     -10.204  10.548  66.802  1.00  0.00    -0.234 C  
HETATM    8  O   UNL     1     -10.219   9.313  67.536  1.00  0.00    -0.209 OA 
HETATM    9  H   UNL     1     -10.640   9.432  68.379  1.00  0.00     0.000 HD 
BRANCH   7  10
HETATM   10  C   UNL     1      -9.482  11.620  67.627  1.00  0.00    -0.177 C  
BRANCH  10  11
HETATM   11  O   UNL     1     -10.398  12.688  67.935  1.00  0.00    -0.208 OA 
BRANCH  11  12
HETATM   12  C   UNL     1     -10.917  13.343  66.847  1.00  0.00    -0.284 A  
HETATM   13  C   UNL     1     -10.180  14.386  66.250  1.00  0.00    -0.307 A  
HETATM   14  C   UNL     1     -12.196  13.043  66.355  1.00  0.00    -0.350 A  
HETATM   15  C   UNL     1     -10.716  15.056  65.137  1.00  0.00    -0.434 A  
HETATM   16  C   UNL     1     -12.722  13.730  65.261  1.00  0.00    -0.481 A  
HETATM   17  C   UNL     1     -11.981  14.732  64.649  1.00  0.00    -0.448 A  
BRANCH  13  18
HETATM   18  C   UNL     1      -8.824  14.787  66.750  1.00  0.00    -0.252 C  
HETATM   19  O   UNL     1      -7.950  13.940  66.924  1.00  0.00    -0.025 OA 
BRANCH  18  20
HETATM   20  C   UNL     1      -8.517  16.264  66.962  1.00  0.00    -0.232 C  
BRANCH  20  21
HETATM   21  C   UNL     1      -8.702  16.692  68.414  1.00  0.00    -0.225 C  
BRANCH  21  22
HETATM   22  C   UNL     1      -9.998  16.188  69.003  1.00  0.00    -0.242 A  
HETATM   23  C   UNL     1     -11.229  16.556  68.439  1.00  0.00    -0.280 A  
HETATM   24  C   UNL     1     -12.425  16.069  68.970  1.00  0.00     0.558 A  
HETATM   25  C   UNL     1     -12.404  15.217  70.072  1.00  0.00    -0.366 A  
HETATM   26  C   UNL     1     -11.187  14.857  70.648  1.00  0.00    -0.229 A  
HETATM   27  C   UNL     1      -9.990  15.343  70.120  1.00  0.00    -0.082 A  
ENDBRANCH  21  22
ENDBRANCH  20  21
ENDBRANCH  18  20
ENDBRANCH  13  18
ENDBRANCH  11  12
ENDBRANCH  10  11
ENDBRANCH   7  10
ENDBRANCH   6   7
ENDBRANCH   4   6
ENDBRANCH   3   4
ENDBRANCH   2   3
TORSDOF 11
ENDMDL
MODEL      357
REMARK 921   NORMALIZED FREE ENERGY PREDICTED BY IDOCK:   -2.91 KCAL/MOL
REMARK 922        TOTAL FREE ENERGY PREDICTED BY IDOCK:   -5.80 KCAL/MOL
REMARK 923 INTER-LIGAND FREE ENERGY PREDICTED BY IDOCK:   -4.53 KCAL/MOL
REMARK 924 INTRA-LIGAND FREE ENERGY PREDICTED BY IDOCK:   -1.27 KCAL/MOL
REMARK 927      BINDING AFFINITY PREDICTED BY RF-SCORE:    0.00 PKD
ROOT
HETATM    1  C   UNL     1      -5.406  10.928  65.719  1.00  0.00    -0.141 C  
HETATM    2  C   UNL     1      -6.650  10.255  66.277  1.00  0.00    -0.100 C  
ENDROOT
BRANCH   2   3
HETATM    3  C   UNL     1      -7.654   9.941  65.169  1.00  0.00    -0.132 C  
BRANCH   3   4
HETATM    4  N   UNL     1      -8.998  10.320  65.601  1.00  0.00    -0.164 NA 
HETATM    5  H   UNL     1      -9.221   9.946  66.523  1.00  0.00     0.000 HD 
BRANCH   4   6
HETATM    6  C   UNL     1      -9.155  11.780  65.549  1.00  0.00     0.019 C  
BRANCH   6   7
HETATM    7  C   UNL     1      -9.637  12.333  66.903  1.00  0.00    -0.213 C  
HETATM    8  O   UNL     1     -10.231  11.288  67.690  1.00  0.00    -0.176 OA 
HETATM    9  H   UNL     1     -10.528  11.630  68.525  1.00  0.00     0.000 HD 
BRANCH   7  10
HETATM   10  C   UNL     1      -8.475  12.959  67.683  1.00  0.00    -0.183 C  
BRANCH  10  11
HETATM   11  O   UNL     1      -8.997  13.795  68.734  1.00  0.00    -0.096 OA 
BRANCH  11  12
HETATM   12  C   UNL     1      -9.445  15.026  68.331  1.00  0.00    -0.201 A  
HETATM   13  C   UNL     1      -8.563  16.126  68.355  1.00  0.00    -0.189 A  
HETATM   14  C   UNL     1     -10.782  15.232  67.960  1.00  0.00    -0.268 A  
HETATM   15  C   UNL     1      -9.027  17.387  67.943  1.00  0.00    -0.251 A  
HETATM   16  C   UNL     1     -11.232  16.494  67.572  1.00  0.00     0.021 A  
HETATM   17  C   UNL     1     -10.355  17.570  67.559  1.00  0.00    -0.356 A  
BRANCH  13  18
HETATM   18  C   UNL     1      -7.131  15.987  68.781  1.00  0.00    -0.146 C  
HETATM   19  O   UNL     1      -6.853  15.711  69.945  1.00  0.00    -0.163 OA 
BRANCH  18  20
HETATM   20  C   UNL     1      -6.031  16.110  67.735  1.00  0.00    -0.160 C  
BRANCH  20  21
HETATM   21  C   UNL     1      -5.141  17.327  67.970  1.00  0.00    -0.121 C  
BRANCH  21  22
HETATM   22  C   UNL     1      -5.606  18.539  67.198  1.00  0.00    -0.142 A  
HETATM   23  C   UNL     1      -5.891  18.446  65.828  1.00  0.00    -0.241 A  
HETATM   24  C   UNL     1      -6.344  19.562  65.122  1.00  0.00    -0.308 A  
HETATM   25  C   UNL     1      -6.512  20.781  65.774  1.00  0.00    -0.242 A  
HETATM   26  C   UNL     1      -6.219  20.887  67.133  1.00  0.00    -0.355 A  
HETATM   27  C   UNL     1      -5.764  19.773  67.842  1.00  0.00    -0.218 A  
ENDBRANCH  21  22
ENDBRANCH  20  21
ENDBRANCH  18  20
ENDBRANCH  13  18
ENDBRANCH  11  12
ENDBRANCH  10  11
ENDBRANCH   7  10
ENDBRANCH   6   7
ENDBRANCH   4   6
ENDBRANCH   3   4
ENDBRANCH   2   3
TORSDOF 11
ENDMDL
MODEL      358
REMARK 921   NORMALIZED FREE ENERGY PREDICTED BY IDOCK:   -2.87 KCAL/MOL
REMARK 922        TOTAL FREE ENERGY PREDICTED BY IDOCK:   -5.73 KCAL/MOL
REMARK 923 INTER-LIGAND FREE ENERGY PREDICTED BY IDOCK:   -4.12 KCAL/MOL
REMARK 924 INTRA-LIGAND FREE ENERGY PREDICTED BY IDOCK:   -1.61 KCAL/MOL
REMARK 927      BINDING AFFINITY PREDICTED BY RF-SCORE:    0.00 PKD
ROOT
HETATM    1  C   UNL     1      -5.588   9.699  70.681  1.00  0.00    -0.053 C  
HETATM    2  C   UNL     1      -6.167   8.799  69.600  1.00  0.00    -0.036 C  
ENDROOT
BRANCH   2   3
HETATM    3  C   UNL     1      -5.229   7.633  69.291  1.00  0.00    -0.015 C  
BRANCH   3   4
HETATM    4  N   UNL     1      -5.961   6.589  68.578  1.00  0.00    -0.020 NA 
HETATM    5  H   UNL     1      -5.334   5.897  68.166  1.00  0.00     0.000 HD 
BRANCH   4   6
HETATM    6  C   UNL     1      -6.955   5.968  69.465  1.00  0.00    -0.067 C  
BRANCH   6   7
HETATM    7  C   UNL     1      -6.893   4.433  69.375  1.00  0.00    -0.046 C  
HETATM    8  O   UNL     1      -7.793   3.837  70.322  1.00  0.00    -0.047 OA 
HETATM    9  H   UNL     1      -7.754   2.889  70.267  1.00  0.00     0.000 HD 
BRANCH   7  10
HETATM   10  C   UNL     1      -7.250   3.952  67.964  1.00  0.00    -0.059 C  
BRANCH  10  11
HETATM   11  O   UNL     1      -7.893   5.020  67.240  1.00  0.00    -0.094 OA 
BRANCH  11  12
HETATM   12  C   UNL     1      -8.806   4.618  66.299  1.00  0.00    -0.113 A  
HETATM   13  C   UNL     1     -10.148   5.037  66.412  1.00  0.00    -0.278 A  
HETATM   14  C   UNL     1      -8.450   3.744  65.261  1.00  0.00    -0.105 A  
HETATM   15  C   UNL     1     -11.080   4.622  65.447  1.00  0.00     0.117 A  
HETATM   16  C   UNL     1      -9.392   3.326  64.322  1.00  0.00    -0.136 A  
HETATM   17  C   UNL     1     -10.705   3.767  64.410  1.00  0.00    -0.180 A  
BRANCH  13  18
HETATM   18  C   UNL     1     -10.607   5.939  67.519  1.00  0.00    -0.273 C  
HETATM   19  O   UNL     1     -11.023   7.068  67.269  1.00  0.00    -0.325 OA 
BRANCH  18  20
HETATM   20  C   UNL     1     -10.629   5.409  68.948  1.00  0.00    -0.197 C  
BRANCH  20  21
HETATM   21  C   UNL     1     -11.534   6.233  69.858  1.00  0.00    -0.459 C  
BRANCH  21  22
HETATM   22  C   UNL     1     -10.769   6.916  70.967  1.00  0.00    -0.258 A  
HETATM   23  C   UNL     1     -11.079   6.658  72.310  1.00  0.00    -0.292 A  
HETATM   24  C   UNL     1     -10.356   7.271  73.335  1.00  0.00    -0.410 A  
HETATM   25  C   UNL     1      -9.321   8.151  73.028  1.00  0.00    -0.335 A  
HETATM   26  C   UNL     1      -9.013   8.424  71.697  1.00  0.00    -0.261 A  
HETATM   27  C   UNL     1      -9.736   7.814  70.670  1.00  0.00    -0.177 A  
ENDBRANCH  21  22
ENDBRANCH  20  21
ENDBRANCH  18  20
ENDBRANCH  13  18
ENDBRANCH  11  12
ENDBRANCH  10  11
ENDBRANCH   7  10
ENDBRANCH   6   7
ENDBRANCH   4   6
ENDBRANCH   3   4
ENDBRANCH   2   3
TORSDOF 11
ENDMDL
MODEL      359
REMARK 921   NORMALIZED FREE ENERGY PREDICTED BY IDOCK:   -2.87 KCAL/MOL
REMARK 922        TOTAL FREE ENERGY PREDICTED BY IDOCK:   -5.72 KCAL/MOL
REMARK 923 INTER-LIGAND FREE ENERGY PREDICTED BY IDOCK:   -4.29 KCAL/MOL
REMARK 924 INTRA-LIGAND FREE ENERGY PREDICTED BY IDOCK:   -1.44 KCAL/MOL
REMARK 927      BINDING AFFINITY PREDICTED BY RF-SCORE:    0.00 PKD
ROOT
HETATM    1  C   UNL     1      -5.763   8.952  72.788  1.00  0.00    -0.077 C  
HETATM    2  C   UNL     1      -6.522   8.130  71.759  1.00  0.00    -0.052 C  
ENDROOT
BRANCH   2   3
HETATM    3  C   UNL     1      -6.363   6.633  72.021  1.00  0.00    -0.049 C  
BRANCH   3   4
HETATM    4  N   UNL     1      -7.199   5.879  71.089  1.00  0.00    -0.073 NA 
HETATM    5  H   UNL     1      -7.573   5.030  71.513  1.00  0.00     0.000 HD 
BRANCH   4   6
HETATM    6  C   UNL     1      -8.264   6.738  70.552  1.00  0.00    -0.117 C  
BRANCH   6   7
HETATM    7  C   UNL     1      -9.603   5.983  70.486  1.00  0.00    -0.169 C  
HETATM    8  O   UNL     1     -10.667   6.875  70.121  1.00  0.00    -0.218 OA 
HETATM    9  H   UNL     1     -11.494   6.408  70.080  1.00  0.00     0.000 HD 
BRANCH   7  10
HETATM   10  C   UNL     1      -9.534   4.833  69.473  1.00  0.00    -0.157 C  
BRANCH  10  11
HETATM   11  O   UNL     1      -8.369   4.995  68.641  1.00  0.00    -0.088 OA 
BRANCH  11  12
HETATM   12  C   UNL     1      -8.560   4.716  67.312  1.00  0.00    -0.104 A  
HETATM   13  C   UNL     1      -8.614   5.775  66.382  1.00  0.00    -0.125 A  
HETATM   14  C   UNL     1      -8.770   3.403  66.863  1.00  0.00    -0.130 A  
HETATM   15  C   UNL     1      -8.812   5.485  65.021  1.00  0.00    -0.052 A  
HETATM   16  C   UNL     1      -8.984   3.133  65.512  1.00  0.00    -0.144 A  
HETATM   17  C   UNL     1      -9.000   4.172  64.590  1.00  0.00    -0.141 A  
BRANCH  13  18
HETATM   18  C   UNL     1      -8.438   7.205  66.798  1.00  0.00    -0.121 C  
HETATM   19  O   UNL     1      -7.343   7.612  67.178  1.00  0.00    -0.087 OA 
BRANCH  18  20
HETATM   20  C   UNL     1      -9.612   8.167  66.664  1.00  0.00    -0.295 C  
BRANCH  20  21
HETATM   21  C   UNL     1      -9.161   9.614  66.501  1.00  0.00    -0.185 C  
BRANCH  21  22
HETATM   22  C   UNL     1     -10.133  10.595  67.114  1.00  0.00    -0.248 A  
HETATM   23  C   UNL     1     -10.860  10.253  68.264  1.00  0.00    -0.300 A  
HETATM   24  C   UNL     1     -11.740  11.169  68.843  1.00  0.00    -0.406 A  
HETATM   25  C   UNL     1     -11.906  12.431  68.278  1.00  0.00    -0.364 A  
HETATM   26  C   UNL     1     -11.198  12.775  67.129  1.00  0.00    -0.336 A  
HETATM   27  C   UNL     1     -10.318  11.861  66.546  1.00  0.00    -0.249 A  
ENDBRANCH  21  22
ENDBRANCH  20  21
ENDBRANCH  18  20
ENDBRANCH  13  18
ENDBRANCH  11  12
ENDBRANCH  10  11
ENDBRANCH   7  10
ENDBRANCH   6   7
ENDBRANCH   4   6
ENDBRANCH   3   4
ENDBRANCH   2   3
TORSDOF 11
ENDMDL
MODEL      360
REMARK 921   NORMALIZED FREE ENERGY PREDICTED BY IDOCK:   -2.84 KCAL/MOL
REMARK 922        TOTAL FREE ENERGY PREDICTED BY IDOCK:   -5.68 KCAL/MOL
REMARK 923 INTER-LIGAND FREE ENERGY PREDICTED BY IDOCK:   -4.10 KCAL/MOL
REMARK 924 INTRA-LIGAND FREE ENERGY PREDICTED BY IDOCK:   -1.58 KCAL/MOL
REMARK 927      BINDING AFFINITY PREDICTED BY RF-SCORE:    0.00 PKD
ROOT
HETATM    1  C   UNL     1     -12.989  11.500  71.649  1.00  0.00    -0.499 C  
HETATM    2  C   UNL     1     -12.339  10.199  71.201  1.00  0.00    -0.488 C  
ENDROOT
BRANCH   2   3
HETATM    3  C   UNL     1     -11.242  10.457  70.169  1.00  0.00    -0.321 C  
BRANCH   3   4
HETATM    4  N   UNL     1     -11.520   9.691  68.956  1.00  0.00    -0.453 NA 
HETATM    5  H   UNL     1     -12.478   9.342  68.936  1.00  0.00     0.000 HD 
BRANCH   4   6
HETATM    6  C   UNL     1     -11.203  10.492  67.765  1.00  0.00    -0.273 C  
BRANCH   6   7
HETATM    7  C   UNL     1     -10.233   9.740  66.835  1.00  0.00    -0.245 C  
HETATM    8  O   UNL     1      -8.881   9.881  67.298  1.00  0.00    -0.131 OA 
HETATM    9  H   UNL     1      -8.283   9.418  66.724  1.00  0.00     0.000 HD 
BRANCH   7  10
HETATM   10  C   UNL     1     -10.591   8.251  66.760  1.00  0.00    -0.156 C  
BRANCH  10  11
HETATM   11  O   UNL     1      -9.472   7.463  67.212  1.00  0.00    -0.137 OA 
BRANCH  11  12
HETATM   12  C   UNL     1      -9.212   6.341  66.469  1.00  0.00    -0.154 A  
HETATM   13  C   UNL     1      -7.921   6.148  65.935  1.00  0.00    -0.112 A  
HETATM   14  C   UNL     1     -10.219   5.411  66.170  1.00  0.00    -0.181 A  
HETATM   15  C   UNL     1      -7.658   4.997  65.172  1.00  0.00    -0.081 A  
HETATM   16  C   UNL     1      -9.948   4.284  65.395  1.00  0.00    -0.233 A  
HETATM   17  C   UNL     1      -8.668   4.074  64.900  1.00  0.00    -0.118 A  
BRANCH  13  18
HETATM   18  C   UNL     1      -6.807   7.122  66.180  1.00  0.00    -0.057 C  
HETATM   19  O   UNL     1      -6.819   8.227  65.644  1.00  0.00    -0.064 OA 
BRANCH  18  20
HETATM   20  C   UNL     1      -5.703   6.755  67.164  1.00  0.00    -0.014 C  
BRANCH  20  21
HETATM   21  C   UNL     1      -6.065   5.543  68.016  1.00  0.00    -0.022 C  
BRANCH  21  22
HETATM   22  C   UNL     1      -6.483   5.926  69.416  1.00  0.00    -0.042 A  
HETATM   23  C   UNL     1      -7.513   5.231  70.067  1.00  0.00    -0.064 A  
HETATM   24  C   UNL     1      -7.883   5.570  71.370  1.00  0.00    -0.110 A  
HETATM   25  C   UNL     1      -7.232   6.608  72.032  1.00  0.00    -0.081 A  
HETATM   26  C   UNL     1      -6.216   7.314  71.389  1.00  0.00    -0.036 A  
HETATM   27  C   UNL     1      -5.846   6.977  70.085  1.00  0.00    -0.024 A  
ENDBRANCH  21  22
ENDBRANCH  20  21
ENDBRANCH  18  20
ENDBRANCH  13  18
ENDBRANCH  11  12
ENDBRANCH  10  11
ENDBRANCH   7  10
ENDBRANCH   6   7
ENDBRANCH   4   6
ENDBRANCH   3   4
ENDBRANCH   2   3
TORSDOF 11
ENDMDL
MODEL      361
REMARK 921   NORMALIZED FREE ENERGY PREDICTED BY IDOCK:   -2.69 KCAL/MOL
REMARK 922        TOTAL FREE ENERGY PREDICTED BY IDOCK:   -5.44 KCAL/MOL
REMARK 923 INTER-LIGAND FREE ENERGY PREDICTED BY IDOCK:   -4.54 KCAL/MOL
REMARK 924 INTRA-LIGAND FREE ENERGY PREDICTED BY IDOCK:   -0.90 KCAL/MOL
REMARK 927      BINDING AFFINITY PREDICTED BY RF-SCORE:    0.00 PKD
ROOT
HETATM    1  C   UNL     1      -8.972   1.784  74.396  1.00  0.00    -0.068 C  
HETATM    2  C   UNL     1      -9.968   2.165  73.311  1.00  0.00    -0.165 C  
ENDROOT
BRANCH   2   3
HETATM    3  C   UNL     1      -9.572   1.566  71.962  1.00  0.00    -0.103 C  
BRANCH   3   4
HETATM    4  N   UNL     1      -8.131   1.711  71.764  1.00  0.00    -0.041 NA 
HETATM    5  H   UNL     1      -7.662   0.807  71.703  1.00  0.00     0.000 HD 
BRANCH   4   6
HETATM    6  C   UNL     1      -7.861   2.549  70.588  1.00  0.00    -0.042 C  
BRANCH   6   7
HETATM    7  C   UNL     1      -6.915   3.711  70.942  1.00  0.00    -0.033 C  
HETATM    8  O   UNL     1      -5.914   3.872  69.925  1.00  0.00    -0.017 OA 
HETATM    9  H   UNL     1      -5.330   4.589  70.144  1.00  0.00     0.000 HD 
BRANCH   7  10
HETATM   10  C   UNL     1      -7.694   5.022  71.101  1.00  0.00    -0.091 C  
BRANCH  10  11
HETATM   11  O   UNL     1      -9.106   4.760  70.987  1.00  0.00    -0.125 OA 
BRANCH  11  12
HETATM   12  C   UNL     1      -9.686   5.186  69.820  1.00  0.00    -0.193 A  
HETATM   13  C   UNL     1     -10.876   5.940  69.872  1.00  0.00    -0.439 A  
HETATM   14  C   UNL     1      -9.158   4.831  68.569  1.00  0.00    -0.150 A  
HETATM   15  C   UNL     1     -11.468   6.373  68.674  1.00  0.00    -0.034 A  
HETATM   16  C   UNL     1      -9.768   5.252  67.388  1.00  0.00    -0.162 A  
HETATM   17  C   UNL     1     -10.919   6.027  67.439  1.00  0.00    -0.344 A  
BRANCH  13  18
HETATM   18  C   UNL     1     -11.518   6.321  71.174  1.00  0.00    -0.299 C  
HETATM   19  O   UNL     1     -11.481   5.553  72.132  1.00  0.00    -0.213 OA 
BRANCH  18  20
HETATM   20  C   UNL     1     -12.143   7.703  71.317  1.00  0.00    -0.337 C  
BRANCH  20  21
HETATM   21  C   UNL     1     -11.221   8.685  72.031  1.00  0.00    -0.434 C  
BRANCH  21  22
HETATM   22  C   UNL     1     -10.322   9.432  71.075  1.00  0.00    -0.382 A  
HETATM   23  C   UNL     1     -10.856  10.378  70.187  1.00  0.00    -0.333 A  
HETATM   24  C   UNL     1     -10.021  11.086  69.320  1.00  0.00    -0.088 A  
HETATM   25  C   UNL     1      -8.648  10.852  69.328  1.00  0.00     0.005 A  
HETATM   26  C   UNL     1      -8.109   9.905  70.197  1.00  0.00    -0.169 A  
HETATM   27  C   UNL     1      -8.942   9.195  71.064  1.00  0.00    -0.281 A  
ENDBRANCH  21  22
ENDBRANCH  20  21
ENDBRANCH  18  20
ENDBRANCH  13  18
ENDBRANCH  11  12
ENDBRANCH  10  11
ENDBRANCH   7  10
ENDBRANCH   6   7
ENDBRANCH   4   6
ENDBRANCH   3   4
ENDBRANCH   2   3
TORSDOF 11
ENDMDL
MODEL      362
REMARK 921   NORMALIZED FREE ENERGY PREDICTED BY IDOCK:   -2.68 KCAL/MOL
REMARK 922        TOTAL FREE ENERGY PREDICTED BY IDOCK:   -5.42 KCAL/MOL
REMARK 923 INTER-LIGAND FREE ENERGY PREDICTED BY IDOCK:   -4.24 KCAL/MOL
REMARK 924 INTRA-LIGAND FREE ENERGY PREDICTED BY IDOCK:   -1.18 KCAL/MOL
REMARK 927      BINDING AFFINITY PREDICTED BY RF-SCORE:    0.00 PKD
ROOT
HETATM    1  C   UNL     1      -5.594  12.170  69.978  1.00  0.00    -0.124 C  
HETATM    2  C   UNL     1      -5.510  11.526  68.603  1.00  0.00    -0.042 C  
ENDROOT
BRANCH   2   3
HETATM    3  C   UNL     1      -5.975  10.071  68.644  1.00  0.00    -0.041 C  
BRANCH   3   4
HETATM    4  N   UNL     1      -7.312   9.966  68.063  1.00  0.00    -0.083 NA 
HETATM    5  H   UNL     1      -8.030  10.330  68.690  1.00  0.00     0.000 HD 
BRANCH   4   6
HETATM    6  C   UNL     1      -7.348  10.622  66.749  1.00  0.00    -0.120 C  
BRANCH   6   7
HETATM    7  C   UNL     1      -8.159   9.791  65.738  1.00  0.00    -0.119 C  
HETATM    8  O   UNL     1      -8.489   8.508  66.292  1.00  0.00    -0.114 OA 
HETATM    9  H   UNL     1      -8.989   7.995  65.667  1.00  0.00     0.000 HD 
BRANCH   7  10
HETATM   10  C   UNL     1      -9.448  10.519  65.339  1.00  0.00    -0.223 C  
BRANCH  10  11
HETATM   11  O   UNL     1     -10.522  10.106  66.207  1.00  0.00    -0.201 OA 
BRANCH  11  12
HETATM   12  C   UNL     1     -10.847  10.999  67.196  1.00  0.00    -0.282 A  
HETATM   13  C   UNL     1     -11.114  10.524  68.496  1.00  0.00    -0.329 A  
HETATM   14  C   UNL     1     -10.986  12.369  66.928  1.00  0.00    -0.307 A  
HETATM   15  C   UNL     1     -11.449  11.441  69.507  1.00  0.00    -0.381 A  
HETATM   16  C   UNL     1     -11.338  13.264  67.938  1.00  0.00    -0.317 A  
HETATM   17  C   UNL     1     -11.565  12.803  69.227  1.00  0.00    -0.372 A  
BRANCH  13  18
HETATM   18  C   UNL     1     -11.024   9.068  68.844  1.00  0.00     0.054 C  
HETATM   19  O   UNL     1     -11.010   8.217  67.957  1.00  0.00    -0.005 OA 
BRANCH  18  20
HETATM   20  C   UNL     1     -10.868   8.661  70.304  1.00  0.00    -0.250 C  
BRANCH  20  21
HETATM   21  C   UNL     1      -9.408   8.622  70.742  1.00  0.00    -0.231 C  
BRANCH  21  22
HETATM   22  C   UNL     1      -8.965   7.237  71.151  1.00  0.00    -0.147 A  
HETATM   23  C   UNL     1      -7.712   6.744  70.759  1.00  0.00    -0.093 A  
HETATM   24  C   UNL     1      -7.294   5.474  71.159  1.00  0.00    -0.084 A  
HETATM   25  C   UNL     1      -8.124   4.682  71.949  1.00  0.00    -0.101 A  
HETATM   26  C   UNL     1      -9.376   5.157  72.333  1.00  0.00    -0.155 A  
HETATM   27  C   UNL     1      -9.798   6.427  71.933  1.00  0.00    -0.172 A  
ENDBRANCH  21  22
ENDBRANCH  20  21
ENDBRANCH  18  20
ENDBRANCH  13  18
ENDBRANCH  11  12
ENDBRANCH  10  11
ENDBRANCH   7  10
ENDBRANCH   6   7
ENDBRANCH   4   6
ENDBRANCH   3   4
ENDBRANCH   2   3
TORSDOF 11
ENDMDL
MODEL      363
REMARK 921   NORMALIZED FREE ENERGY PREDICTED BY IDOCK:   -2.68 KCAL/MOL
REMARK 922        TOTAL FREE ENERGY PREDICTED BY IDOCK:   -5.41 KCAL/MOL
REMARK 923 INTER-LIGAND FREE ENERGY PREDICTED BY IDOCK:   -5.04 KCAL/MOL
REMARK 924 INTRA-LIGAND FREE ENERGY PREDICTED BY IDOCK:   -0.37 KCAL/MOL
REMARK 927      BINDING AFFINITY PREDICTED BY RF-SCORE:    0.00 PKD
ROOT
HETATM    1  C   UNL     1      -8.005   4.773  73.024  1.00  0.00    -0.100 C  
HETATM    2  C   UNL     1      -7.843   5.346  71.624  1.00  0.00    -0.111 C  
ENDROOT
BRANCH   2   3
HETATM    3  C   UNL     1      -8.855   4.735  70.656  1.00  0.00    -0.112 C  
BRANCH   3   4
HETATM    4  N   UNL     1     -10.049   5.577  70.597  1.00  0.00    -0.208 NA 
HETATM    5  H   UNL     1     -10.741   5.305  71.296  1.00  0.00     0.000 HD 
BRANCH   4   6
HETATM    6  C   UNL     1      -9.677   6.994  70.715  1.00  0.00    -0.168 C  
BRANCH   6   7
HETATM    7  C   UNL     1     -10.738   7.899  70.063  1.00  0.00    -0.244 C  
HETATM    8  O   UNL     1     -10.576   9.258  70.497  1.00  0.00    -0.215 OA 
HETATM    9  H   UNL     1     -11.231   9.816  70.095  1.00  0.00     0.000 HD 
BRANCH   7  10
HETATM   10  C   UNL     1     -10.643   7.839  68.534  1.00  0.00    -0.114 C  
BRANCH  10  11
HETATM   11  O   UNL     1     -10.334   9.149  68.019  1.00  0.00    -0.201 OA 
BRANCH  11  12
HETATM   12  C   UNL     1      -9.653   9.162  66.829  1.00  0.00    -0.195 A  
HETATM   13  C   UNL     1      -9.559  10.365  66.098  1.00  0.00    -0.245 A  
HETATM   14  C   UNL     1      -9.106   7.990  66.287  1.00  0.00    -0.232 A  
HETATM   15  C   UNL     1      -8.862  10.374  64.878  1.00  0.00    -0.209 A  
HETATM   16  C   UNL     1      -8.434   8.011  65.065  1.00  0.00    -0.089 A  
HETATM   17  C   UNL     1      -8.308   9.202  64.362  1.00  0.00    -0.180 A  
BRANCH  13  18
HETATM   18  C   UNL     1     -10.156  11.647  66.598  1.00  0.00    -0.208 C  
HETATM   19  O   UNL     1     -11.064  11.628  67.425  1.00  0.00    -0.246 OA 
BRANCH  18  20
HETATM   20  C   UNL     1      -9.568  12.972  66.131  1.00  0.00    -0.209 C  
BRANCH  20  21
HETATM   21  C   UNL     1      -9.767  14.087  67.152  1.00  0.00    -0.242 C  
BRANCH  21  22
HETATM   22  C   UNL     1      -8.679  15.133  67.084  1.00  0.00    -0.238 A  
HETATM   23  C   UNL     1      -8.867  16.310  66.344  1.00  0.00    -0.346 A  
HETATM   24  C   UNL     1      -7.871  17.286  66.302  1.00  0.00    -0.344 A  
HETATM   25  C   UNL     1      -6.676  17.095  66.993  1.00  0.00    -0.227 A  
HETATM   26  C   UNL     1      -6.474  15.924  67.720  1.00  0.00    -0.177 A  
HETATM   27  C   UNL     1      -7.469  14.944  67.763  1.00  0.00    -0.179 A  
ENDBRANCH  21  22
ENDBRANCH  20  21
ENDBRANCH  18  20
ENDBRANCH  13  18
ENDBRANCH  11  12
ENDBRANCH  10  11
ENDBRANCH   7  10
ENDBRANCH   6   7
ENDBRANCH   4   6
ENDBRANCH   3   4
ENDBRANCH   2   3
TORSDOF 11
ENDMDL
MODEL      364
REMARK 921   NORMALIZED FREE ENERGY PREDICTED BY IDOCK:   -2.64 KCAL/MOL
REMARK 922        TOTAL FREE ENERGY PREDICTED BY IDOCK:   -5.36 KCAL/MOL
REMARK 923 INTER-LIGAND FREE ENERGY PREDICTED BY IDOCK:   -3.65 KCAL/MOL
REMARK 924 INTRA-LIGAND FREE ENERGY PREDICTED BY IDOCK:   -1.71 KCAL/MOL
REMARK 927      BINDING AFFINITY PREDICTED BY RF-SCORE:    0.00 PKD
ROOT
HETATM    1  C   UNL     1      -6.763  12.222  67.870  1.00  0.00    -0.093 C  
HETATM    2  C   UNL     1      -6.373  11.082  68.798  1.00  0.00    -0.049 C  
ENDROOT
BRANCH   2   3
HETATM    3  C   UNL     1      -5.984   9.834  68.007  1.00  0.00    -0.043 C  
BRANCH   3   4
HETATM    4  N   UNL     1      -6.083   8.656  68.867  1.00  0.00    -0.043 NA 
HETATM    5  H   UNL     1      -5.798   7.805  68.382  1.00  0.00     0.000 HD 
BRANCH   4   6
HETATM    6  C   UNL     1      -5.319   8.864  70.104  1.00  0.00    -0.028 C  
BRANCH   6   7
HETATM    7  C   UNL     1      -6.068   8.290  71.320  1.00  0.00    -0.036 C  
HETATM    8  O   UNL     1      -7.089   9.200  71.758  1.00  0.00    -0.303 OA 
HETATM    9  H   UNL     1      -7.551   8.845  72.508  1.00  0.00     0.000 HD 
BRANCH   7  10
HETATM   10  C   UNL     1      -6.705   6.937  70.982  1.00  0.00    -0.054 C  
BRANCH  10  11
HETATM   11  O   UNL     1      -8.100   7.125  70.674  1.00  0.00    -0.110 OA 
BRANCH  11  12
HETATM   12  C   UNL     1      -8.970   6.398  71.445  1.00  0.00    -0.138 A  
HETATM   13  C   UNL     1      -9.408   5.136  70.993  1.00  0.00    -0.198 A  
HETATM   14  C   UNL     1      -9.488   6.910  72.644  1.00  0.00    -0.159 A  
HETATM   15  C   UNL     1     -10.301   4.395  71.785  1.00  0.00    -0.141 A  
HETATM   16  C   UNL     1     -10.389   6.170  73.410  1.00  0.00    -0.253 A  
HETATM   17  C   UNL     1     -10.792   4.912  72.984  1.00  0.00    -0.331 A  
BRANCH  13  18
HETATM   18  C   UNL     1      -8.927   4.545  69.701  1.00  0.00    -0.096 C  
HETATM   19  O   UNL     1      -8.047   3.687  69.700  1.00  0.00    -0.053 OA 
BRANCH  18  20
HETATM   20  C   UNL     1      -9.599   4.959  68.399  1.00  0.00    -0.201 C  
BRANCH  20  21
HETATM   21  C   UNL     1      -8.589   5.293  67.306  1.00  0.00    -0.105 C  
BRANCH  21  22
HETATM   22  C   UNL     1      -8.772   6.689  66.759  1.00  0.00    -0.121 A  
HETATM   23  C   UNL     1      -7.805   7.256  65.916  1.00  0.00    -0.106 A  
HETATM   24  C   UNL     1      -7.986   8.538  65.391  1.00  0.00    -0.113 A  
HETATM   25  C   UNL     1      -9.130   9.266  65.708  1.00  0.00    -0.260 A  
HETATM   26  C   UNL     1     -10.090   8.717  66.555  1.00  0.00    -0.339 A  
HETATM   27  C   UNL     1      -9.911   7.436  67.082  1.00  0.00    -0.281 A  
ENDBRANCH  21  22
ENDBRANCH  20  21
ENDBRANCH  18  20
ENDBRANCH  13  18
ENDBRANCH  11  12
ENDBRANCH  10  11
ENDBRANCH   7  10
ENDBRANCH   6   7
ENDBRANCH   4   6
ENDBRANCH   3   4
ENDBRANCH   2   3
TORSDOF 11
ENDMDL
MODEL      365
REMARK 921   NORMALIZED FREE ENERGY PREDICTED BY IDOCK:   -2.59 KCAL/MOL
REMARK 922        TOTAL FREE ENERGY PREDICTED BY IDOCK:   -5.26 KCAL/MOL
REMARK 923 INTER-LIGAND FREE ENERGY PREDICTED BY IDOCK:   -3.97 KCAL/MOL
REMARK 924 INTRA-LIGAND FREE ENERGY PREDICTED BY IDOCK:   -1.30 KCAL/MOL
REMARK 927      BINDING AFFINITY PREDICTED BY RF-SCORE:    0.00 PKD
ROOT
HETATM    1  C   UNL     1     -10.943   8.116  69.805  1.00  0.00    -0.133 C  
HETATM    2  C   UNL     1     -10.091   9.339  69.504  1.00  0.00    -0.205 C  
ENDROOT
BRANCH   2   3
HETATM    3  C   UNL     1     -10.898  10.408  68.769  1.00  0.00    -0.232 C  
BRANCH   3   4
HETATM    4  N   UNL     1     -10.230  11.702  68.894  1.00  0.00    -0.361 NA 
HETATM    5  H   UNL     1      -9.312  11.616  69.331  1.00  0.00     0.000 HD 
BRANCH   4   6
HETATM    6  C   UNL     1     -10.154  12.363  67.584  1.00  0.00    -0.198 C  
BRANCH   6   7
HETATM    7  C   UNL     1     -11.125  11.716  66.580  1.00  0.00    -0.307 C  
HETATM    8  O   UNL     1     -11.853  12.724  65.862  1.00  0.00    -0.393 OA 
HETATM    9  H   UNL     1     -12.452  12.323  65.243  1.00  0.00     0.000 HD 
BRANCH   7  10
HETATM   10  C   UNL     1     -10.370  10.827  65.584  1.00  0.00    -0.230 C  
BRANCH  10  11
HETATM   11  O   UNL     1      -8.962  11.128  65.641  1.00  0.00    -0.200 OA 
BRANCH  11  12
HETATM   12  C   UNL     1      -8.193  10.496  64.698  1.00  0.00    -0.088 A  
HETATM   13  C   UNL     1      -7.169   9.620  65.114  1.00  0.00    -0.115 A  
HETATM   14  C   UNL     1      -8.357  10.752  63.329  1.00  0.00    -0.026 A  
HETATM   15  C   UNL     1      -6.381   8.976  64.145  1.00  0.00    -0.079 A  
HETATM   16  C   UNL     1      -7.554  10.120  62.380  1.00  0.00    -0.145 A  
HETATM   17  C   UNL     1      -6.570   9.228  62.786  1.00  0.00    -0.093 A  
BRANCH  13  18
HETATM   18  C   UNL     1      -6.911   9.332  66.563  1.00  0.00    -0.080 C  
HETATM   19  O   UNL     1      -5.887   9.740  67.105  1.00  0.00    -0.050 OA 
BRANCH  18  20
HETATM   20  C   UNL     1      -7.971   8.597  67.374  1.00  0.00    -0.102 C  
BRANCH  20  21
HETATM   21  C   UNL     1      -8.584   7.431  66.606  1.00  0.00    -0.128 C  
BRANCH  21  22
HETATM   22  C   UNL     1      -8.690   6.179  67.444  1.00  0.00    -0.104 A  
HETATM   23  C   UNL     1      -7.961   6.056  68.636  1.00  0.00    -0.104 A  
HETATM   24  C   UNL     1      -8.078   4.908  69.422  1.00  0.00    -0.078 A  
HETATM   25  C   UNL     1      -8.919   3.872  69.024  1.00  0.00    -0.175 A  
HETATM   26  C   UNL     1      -9.637   3.979  67.835  1.00  0.00    -0.199 A  
HETATM   27  C   UNL     1      -9.521   5.125  67.045  1.00  0.00    -0.143 A  
ENDBRANCH  21  22
ENDBRANCH  20  21
ENDBRANCH  18  20
ENDBRANCH  13  18
ENDBRANCH  11  12
ENDBRANCH  10  11
ENDBRANCH   7  10
ENDBRANCH   6   7
ENDBRANCH   4   6
ENDBRANCH   3   4
ENDBRANCH   2   3
TORSDOF 11
ENDMDL
MODEL      366
REMARK 921   NORMALIZED FREE ENERGY PREDICTED BY IDOCK:   -2.57 KCAL/MOL
REMARK 922        TOTAL FREE ENERGY PREDICTED BY IDOCK:   -5.24 KCAL/MOL
REMARK 923 INTER-LIGAND FREE ENERGY PREDICTED BY IDOCK:   -4.17 KCAL/MOL
REMARK 924 INTRA-LIGAND FREE ENERGY PREDICTED BY IDOCK:   -1.06 KCAL/MOL
REMARK 927      BINDING AFFINITY PREDICTED BY RF-SCORE:    0.00 PKD
ROOT
HETATM    1  C   UNL     1      -8.527  12.814  66.927  1.00  0.00    -0.106 C  
HETATM    2  C   UNL     1      -9.787  12.601  66.103  1.00  0.00    -0.265 C  
ENDROOT
BRANCH   2   3
HETATM    3  C   UNL     1     -11.022  12.497  66.997  1.00  0.00    -0.267 C  
BRANCH   3   4
HETATM    4  N   UNL     1     -11.276  11.095  67.323  1.00  0.00    -0.373 NA 
HETATM    5  H   UNL     1     -11.153  10.487  66.513  1.00  0.00     0.000 HD 
BRANCH   4   6
HETATM    6  C   UNL     1     -10.437  10.676  68.455  1.00  0.00    -0.191 C  
BRANCH   6   7
HETATM    7  C   UNL     1     -10.754   9.229  68.871  1.00  0.00    -0.156 C  
HETATM    8  O   UNL     1      -9.890   8.308  68.187  1.00  0.00    -0.161 OA 
HETATM    9  H   UNL     1     -10.086   7.415  68.444  1.00  0.00     0.000 HD 
BRANCH   7  10
HETATM   10  C   UNL     1     -10.592   9.047  70.385  1.00  0.00    -0.218 C  
BRANCH  10  11
HETATM   11  O   UNL     1      -9.523   8.117  70.647  1.00  0.00    -0.160 OA 
BRANCH  11  12
HETATM   12  C   UNL     1      -9.548   7.534  71.888  1.00  0.00    -0.148 A  
HETATM   13  C   UNL     1     -10.235   6.316  72.068  1.00  0.00    -0.214 A  
HETATM   14  C   UNL     1      -8.963   8.158  73.001  1.00  0.00    -0.335 A  
HETATM   15  C   UNL     1     -10.260   5.723  73.342  1.00  0.00    -0.224 A  
HETATM   16  C   UNL     1      -9.013   7.566  74.262  1.00  0.00    -0.221 A  
HETATM   17  C   UNL     1      -9.656   6.348  74.433  1.00  0.00    -0.279 A  
BRANCH  13  18
HETATM   18  C   UNL     1     -10.918   5.615  70.932  1.00  0.00    -0.187 C  
HETATM   19  O   UNL     1     -12.011   6.004  70.529  1.00  0.00     0.008 OA 
BRANCH  18  20
HETATM   20  C   UNL     1     -10.203   4.467  70.230  1.00  0.00    -0.137 C  
BRANCH  20  21
HETATM   21  C   UNL     1      -9.674   4.867  68.856  1.00  0.00    -0.242 C  
BRANCH  21  22
HETATM   22  C   UNL     1      -8.203   5.208  68.881  1.00  0.00    -0.088 A  
HETATM   23  C   UNL     1      -7.631   5.969  67.850  1.00  0.00    -0.097 A  
HETATM   24  C   UNL     1      -6.276   6.304  67.887  1.00  0.00    -0.028 A  
HETATM   25  C   UNL     1      -5.480   5.880  68.948  1.00  0.00    -0.007 A  
HETATM   26  C   UNL     1      -6.036   5.113  69.970  1.00  0.00    -0.021 A  
HETATM   27  C   UNL     1      -7.391   4.774  69.935  1.00  0.00    -0.055 A  
ENDBRANCH  21  22
ENDBRANCH  20  21
ENDBRANCH  18  20
ENDBRANCH  13  18
ENDBRANCH  11  12
ENDBRANCH  10  11
ENDBRANCH   7  10
ENDBRANCH   6   7
ENDBRANCH   4   6
ENDBRANCH   3   4
ENDBRANCH   2   3
TORSDOF 11
ENDMDL
MODEL      367
REMARK 921   NORMALIZED FREE ENERGY PREDICTED BY IDOCK:   -2.50 KCAL/MOL
REMARK 922        TOTAL FREE ENERGY PREDICTED BY IDOCK:   -5.12 KCAL/MOL
REMARK 923 INTER-LIGAND FREE ENERGY PREDICTED BY IDOCK:   -3.74 KCAL/MOL
REMARK 924 INTRA-LIGAND FREE ENERGY PREDICTED BY IDOCK:   -1.38 KCAL/MOL
REMARK 927      BINDING AFFINITY PREDICTED BY RF-SCORE:    0.00 PKD
ROOT
HETATM    1  C   UNL     1      -5.779  10.239  66.141  1.00  0.00    -0.071 C  
HETATM    2  C   UNL     1      -6.851   9.440  66.866  1.00  0.00    -0.080 C  
ENDROOT
BRANCH   2   3
HETATM    3  C   UNL     1      -7.560   8.477  65.915  1.00  0.00    -0.085 C  
BRANCH   3   4
HETATM    4  N   UNL     1      -8.907   8.200  66.410  1.00  0.00    -0.146 NA 
HETATM    5  H   UNL     1      -8.914   8.019  67.414  1.00  0.00     0.000 HD 
BRANCH   4   6
HETATM    6  C   UNL     1      -9.819   9.292  66.043  1.00  0.00    -0.293 C  
BRANCH   6   7
HETATM    7  C   UNL     1     -10.128  10.186  67.258  1.00  0.00    -0.206 C  
HETATM    8  O   UNL     1     -11.062  11.216  66.901  1.00  0.00    -0.289 OA 
HETATM    9  H   UNL     1     -11.252  11.767  67.651  1.00  0.00     0.000 HD 
BRANCH   7  10
HETATM   10  C   UNL     1     -10.702   9.358  68.414  1.00  0.00    -0.168 C  
BRANCH  10  11
HETATM   11  O   UNL     1     -10.351   9.975  69.668  1.00  0.00    -0.215 OA 
BRANCH  11  12
HETATM   12  C   UNL     1      -9.148   9.580  70.196  1.00  0.00    -0.240 A  
HETATM   13  C   UNL     1      -9.091   8.424  71.001  1.00  0.00    -0.201 A  
HETATM   14  C   UNL     1      -7.983  10.339  70.008  1.00  0.00    -0.021 A  
HETATM   15  C   UNL     1      -7.857   8.025  71.542  1.00  0.00    -0.109 A  
HETATM   16  C   UNL     1      -6.770   9.939  70.566  1.00  0.00    -0.124 A  
HETATM   17  C   UNL     1      -6.704   8.781  71.329  1.00  0.00    -0.078 A  
BRANCH  13  18
HETATM   18  C   UNL     1     -10.305   7.589  71.278  1.00  0.00    -0.192 C  
HETATM   19  O   UNL     1     -11.190   8.005  72.022  1.00  0.00    -0.261 OA 
BRANCH  18  20
HETATM   20  C   UNL     1     -10.467   6.254  70.562  1.00  0.00    -0.274 C  
BRANCH  20  21
HETATM   21  C   UNL     1     -10.405   5.070  71.521  1.00  0.00    -0.252 C  
BRANCH  21  22
HETATM   22  C   UNL     1      -9.030   4.448  71.582  1.00  0.00    -0.160 A  
HETATM   23  C   UNL     1      -8.360   4.083  70.405  1.00  0.00    -0.081 A  
HETATM   24  C   UNL     1      -7.079   3.531  70.461  1.00  0.00    -0.034 A  
HETATM   25  C   UNL     1      -6.457   3.332  71.692  1.00  0.00    -0.015 A  
HETATM   26  C   UNL     1      -7.120   3.679  72.868  1.00  0.00    -0.045 A  
HETATM   27  C   UNL     1      -8.402   4.231  72.815  1.00  0.00    -0.101 A  
ENDBRANCH  21  22
ENDBRANCH  20  21
ENDBRANCH  18  20
ENDBRANCH  13  18
ENDBRANCH  11  12
ENDBRANCH  10  11
ENDBRANCH   7  10
ENDBRANCH   6   7
ENDBRANCH   4   6
ENDBRANCH   3   4
ENDBRANCH   2   3
TORSDOF 11
ENDMDL
MODEL      368
REMARK 921   NORMALIZED FREE ENERGY PREDICTED BY IDOCK:   -2.39 KCAL/MOL
REMARK 922        TOTAL FREE ENERGY PREDICTED BY IDOCK:   -4.95 KCAL/MOL
REMARK 923 INTER-LIGAND FREE ENERGY PREDICTED BY IDOCK:   -3.59 KCAL/MOL
REMARK 924 INTRA-LIGAND FREE ENERGY PREDICTED BY IDOCK:   -1.36 KCAL/MOL
REMARK 927      BINDING AFFINITY PREDICTED BY RF-SCORE:    0.00 PKD
ROOT
HETATM    1  C   UNL     1     -10.940   8.107  69.779  1.00  0.00    -0.133 C  
HETATM    2  C   UNL     1     -10.107   9.331  69.429  1.00  0.00    -0.200 C  
ENDROOT
BRANCH   2   3
HETATM    3  C   UNL     1     -10.912  10.327  68.596  1.00  0.00    -0.244 C  
BRANCH   3   4
HETATM    4  N   UNL     1     -10.304  11.653  68.694  1.00  0.00    -0.215 NA 
HETATM    5  H   UNL     1      -9.442  11.638  69.239  1.00  0.00     0.000 HD 
BRANCH   4   6
HETATM    6  C   UNL     1     -10.095  12.217  67.353  1.00  0.00    -0.200 C  
BRANCH   6   7
HETATM    7  C   UNL     1     -10.918  11.455  66.299  1.00  0.00    -0.247 C  
HETATM    8  O   UNL     1     -11.477  12.367  65.341  1.00  0.00    -0.331 OA 
HETATM    9  H   UNL     1     -11.985  11.896  64.691  1.00  0.00     0.000 HD 
BRANCH   7  10
HETATM   10  C   UNL     1     -10.050  10.422  65.570  1.00  0.00    -0.283 C  
BRANCH  10  11
HETATM   11  O   UNL     1      -8.878  11.068  65.036  1.00  0.00    -0.173 OA 
BRANCH  11  12
HETATM   12  C   UNL     1      -8.049  10.258  64.303  1.00  0.00    -0.143 A  
HETATM   13  C   UNL     1      -6.725  10.047  64.738  1.00  0.00    -0.127 A  
HETATM   14  C   UNL     1      -8.469   9.688  63.091  1.00  0.00    -0.189 A  
HETATM   15  C   UNL     1      -5.878   9.218  63.982  1.00  0.00    -0.075 A  
HETATM   16  C   UNL     1      -7.610   8.884  62.343  1.00  0.00    -0.105 A  
HETATM   17  C   UNL     1      -6.317   8.644  62.789  1.00  0.00    -0.091 A  
BRANCH  13  18
HETATM   18  C   UNL     1      -6.197  10.658  66.002  1.00  0.00    -0.134 C  
HETATM   19  O   UNL     1      -5.341  11.538  65.956  1.00  0.00    -0.288 OA 
BRANCH  18  20
HETATM   20  C   UNL     1      -6.795  10.234  67.337  1.00  0.00    -0.077 C  
BRANCH  20  21
HETATM   21  C   UNL     1      -7.018   8.728  67.420  1.00  0.00    -0.075 C  
BRANCH  21  22
HETATM   22  C   UNL     1      -6.508   8.139  68.714  1.00  0.00    -0.053 A  
HETATM   23  C   UNL     1      -5.622   8.862  69.526  1.00  0.00    -0.034 A  
HETATM   24  C   UNL     1      -5.170   8.327  70.733  1.00  0.00    -0.025 A  
HETATM   25  C   UNL     1      -5.593   7.063  71.138  1.00  0.00    -0.028 A  
HETATM   26  C   UNL     1      -6.462   6.331  70.332  1.00  0.00    -0.040 A  
HETATM   27  C   UNL     1      -6.915   6.863  69.124  1.00  0.00    -0.078 A  
ENDBRANCH  21  22
ENDBRANCH  20  21
ENDBRANCH  18  20
ENDBRANCH  13  18
ENDBRANCH  11  12
ENDBRANCH  10  11
ENDBRANCH   7  10
ENDBRANCH   6   7
ENDBRANCH   4   6
ENDBRANCH   3   4
ENDBRANCH   2   3
TORSDOF 11
ENDMDL
MODEL      369
REMARK 921   NORMALIZED FREE ENERGY PREDICTED BY IDOCK:   -2.22 KCAL/MOL
REMARK 922        TOTAL FREE ENERGY PREDICTED BY IDOCK:   -4.66 KCAL/MOL
REMARK 923 INTER-LIGAND FREE ENERGY PREDICTED BY IDOCK:   -3.60 KCAL/MOL
REMARK 924 INTRA-LIGAND FREE ENERGY PREDICTED BY IDOCK:   -1.05 KCAL/MOL
REMARK 927      BINDING AFFINITY PREDICTED BY RF-SCORE:    0.00 PKD
ROOT
HETATM    1  C   UNL     1     -12.736  10.996  71.566  1.00  0.00    -0.521 C  
HETATM    2  C   UNL     1     -12.373   9.615  71.042  1.00  0.00    -0.396 C  
ENDROOT
BRANCH   2   3
HETATM    3  C   UNL     1     -11.012   9.627  70.348  1.00  0.00    -0.299 C  
BRANCH   3   4
HETATM    4  N   UNL     1     -11.192   9.437  68.910  1.00  0.00    -0.451 NA 
HETATM    5  H   UNL     1     -12.136   9.126  68.682  1.00  0.00     0.000 HD 
BRANCH   4   6
HETATM    6  C   UNL     1     -10.829  10.664  68.186  1.00  0.00    -0.245 C  
BRANCH   6   7
HETATM    7  C   UNL     1      -9.445  10.527  67.527  1.00  0.00    -0.149 C  
HETATM    8  O   UNL     1      -8.418  11.013  68.406  1.00  0.00    -0.130 OA 
HETATM    9  H   UNL     1      -7.564  10.928  67.998  1.00  0.00     0.000 HD 
BRANCH   7  10
HETATM   10  C   UNL     1      -9.153   9.066  67.164  1.00  0.00    -0.137 C  
BRANCH  10  11
HETATM   11  O   UNL     1      -8.590   8.390  68.304  1.00  0.00    -0.137 OA 
BRANCH  11  12
HETATM   12  C   UNL     1      -8.647   7.020  68.256  1.00  0.00    -0.129 A  
HETATM   13  C   UNL     1      -7.451   6.275  68.300  1.00  0.00    -0.090 A  
HETATM   14  C   UNL     1      -9.866   6.344  68.097  1.00  0.00    -0.127 A  
HETATM   15  C   UNL     1      -7.513   4.872  68.248  1.00  0.00    -0.074 A  
HETATM   16  C   UNL     1      -9.910   4.952  68.028  1.00  0.00    -0.197 A  
HETATM   17  C   UNL     1      -8.736   4.215  68.108  1.00  0.00    -0.117 A  
BRANCH  13  18
HETATM   18  C   UNL     1      -6.109   6.934  68.428  1.00  0.00    -0.029 C  
HETATM   19  O   UNL     1      -5.709   7.703  67.558  1.00  0.00    -0.033 OA 
BRANCH  18  20
HETATM   20  C   UNL     1      -5.286   6.702  69.689  1.00  0.00    -0.014 C  
BRANCH  20  21
HETATM   21  C   UNL     1      -5.425   5.279  70.218  1.00  0.00    -0.004 C  
BRANCH  21  22
HETATM   22  C   UNL     1      -6.001   5.236  71.614  1.00  0.00    -0.025 A  
HETATM   23  C   UNL     1      -6.988   4.298  71.949  1.00  0.00    -0.046 A  
HETATM   24  C   UNL     1      -7.503   4.243  73.245  1.00  0.00    -0.077 A  
HETATM   25  C   UNL     1      -7.041   5.127  74.218  1.00  0.00    -0.078 A  
HETATM   26  C   UNL     1      -6.069   6.072  73.891  1.00  0.00    -0.064 A  
HETATM   27  C   UNL     1      -5.554   6.130  72.595  1.00  0.00    -0.036 A  
ENDBRANCH  21  22
ENDBRANCH  20  21
ENDBRANCH  18  20
ENDBRANCH  13  18
ENDBRANCH  11  12
ENDBRANCH  10  11
ENDBRANCH   7  10
ENDBRANCH   6   7
ENDBRANCH   4   6
ENDBRANCH   3   4
ENDBRANCH   2   3
TORSDOF 11
ENDMDL
MODEL      370
REMARK 921   NORMALIZED FREE ENERGY PREDICTED BY IDOCK:   -1.98 KCAL/MOL
REMARK 922        TOTAL FREE ENERGY PREDICTED BY IDOCK:   -4.26 KCAL/MOL
REMARK 923 INTER-LIGAND FREE ENERGY PREDICTED BY IDOCK:   -4.94 KCAL/MOL
REMARK 924 INTRA-LIGAND FREE ENERGY PREDICTED BY IDOCK:    0.68 KCAL/MOL
REMARK 927      BINDING AFFINITY PREDICTED BY RF-SCORE:    0.00 PKD
ROOT
HETATM    1  C   UNL     1     -10.328   8.600  72.024  1.00  0.00    -0.416 C  
HETATM    2  C   UNL     1      -9.051   7.933  71.539  1.00  0.00    -0.169 C  
ENDROOT
BRANCH   2   3
HETATM    3  C   UNL     1      -9.074   7.731  70.024  1.00  0.00    -0.150 C  
BRANCH   3   4
HETATM    4  N   UNL     1      -8.669   6.363  69.705  1.00  0.00    -0.137 NA 
HETATM    5  H   UNL     1      -7.943   6.023  70.336  1.00  0.00     0.000 HD 
BRANCH   4   6
HETATM    6  C   UNL     1      -9.841   5.477  69.690  1.00  0.00    -0.193 C  
BRANCH   6   7
HETATM    7  C   UNL     1     -10.919   6.001  68.723  1.00  0.00    -0.312 C  
HETATM    8  O   UNL     1     -11.979   6.639  69.451  1.00  0.00    -0.611 OA 
HETATM    9  H   UNL     1     -12.644   6.963  68.854  1.00  0.00     0.000 HD 
BRANCH   7  10
HETATM   10  C   UNL     1     -10.319   6.996  67.723  1.00  0.00    -0.202 C  
BRANCH  10  11
HETATM   11  O   UNL     1      -9.693   6.275  66.643  1.00  0.00    -0.154 OA 
BRANCH  11  12
HETATM   12  C   UNL     1      -8.339   6.461  66.526  1.00  0.00    -0.115 A  
HETATM   13  C   UNL     1      -7.852   7.645  65.934  1.00  0.00    -0.103 A  
HETATM   14  C   UNL     1      -7.428   5.470  66.920  1.00  0.00    -0.088 A  
HETATM   15  C   UNL     1      -6.464   7.831  65.814  1.00  0.00    -0.042 A  
HETATM   16  C   UNL     1      -6.054   5.662  66.776  1.00  0.00    -0.029 A  
HETATM   17  C   UNL     1      -5.571   6.843  66.228  1.00  0.00    -0.022 A  
BRANCH  13  18
HETATM   18  C   UNL     1      -8.771   8.729  65.453  1.00  0.00    -0.183 C  
HETATM   19  O   UNL     1      -9.051   8.822  64.261  1.00  0.00     0.093 OA 
BRANCH  18  20
HETATM   20  C   UNL     1      -9.416   9.661  66.471  1.00  0.00    -0.233 C  
BRANCH  20  21
HETATM   21  C   UNL     1      -8.642  10.964  66.636  1.00  0.00    -0.148 C  
BRANCH  21  22
HETATM   22  C   UNL     1      -9.467  12.175  66.270  1.00  0.00    -0.238 A  
HETATM   23  C   UNL     1     -10.545  12.061  65.379  1.00  0.00    -0.319 A  
HETATM   24  C   UNL     1     -11.322  13.177  65.061  1.00  0.00    -0.325 A  
HETATM   25  C   UNL     1     -11.027  14.416  65.623  1.00  0.00    -0.314 A  
HETATM   26  C   UNL     1      -9.950  14.543  66.499  1.00  0.00    -0.290 A  
HETATM   27  C   UNL     1      -9.170  13.429  66.818  1.00  0.00    -0.242 A  
ENDBRANCH  21  22
ENDBRANCH  20  21
ENDBRANCH  18  20
ENDBRANCH  13  18
ENDBRANCH  11  12
ENDBRANCH  10  11
ENDBRANCH   7  10
ENDBRANCH   6   7
ENDBRANCH   4   6
ENDBRANCH   3   4
ENDBRANCH   2   3
TORSDOF 11
ENDMDL
MODEL      371
REMARK 921   NORMALIZED FREE ENERGY PREDICTED BY IDOCK:   -1.76 KCAL/MOL
REMARK 922        TOTAL FREE ENERGY PREDICTED BY IDOCK:   -3.90 KCAL/MOL
REMARK 923 INTER-LIGAND FREE ENERGY PREDICTED BY IDOCK:   -3.74 KCAL/MOL
REMARK 924 INTRA-LIGAND FREE ENERGY PREDICTED BY IDOCK:   -0.16 KCAL/MOL
REMARK 927      BINDING AFFINITY PREDICTED BY RF-SCORE:    0.00 PKD
ROOT
HETATM    1  C   UNL     1     -13.322  11.132  71.748  1.00  0.00    -0.378 C  
HETATM    2  C   UNL     1     -13.080   9.645  71.544  1.00  0.00    -0.488 C  
ENDROOT
BRANCH   2   3
HETATM    3  C   UNL     1     -11.594   9.305  71.662  1.00  0.00    -0.393 C  
BRANCH   3   4
HETATM    4  N   UNL     1     -11.162   8.574  70.473  1.00  0.00    -0.272 NA 
HETATM    5  H   UNL     1     -11.947   8.331  69.868  1.00  0.00     0.000 HD 
BRANCH   4   6
HETATM    6  C   UNL     1     -10.131   9.336  69.754  1.00  0.00    -0.204 C  
BRANCH   6   7
HETATM    7  C   UNL     1      -8.755   9.171  70.423  1.00  0.00    -0.215 C  
HETATM    8  O   UNL     1      -8.811   9.582  71.797  1.00  0.00    -0.155 OA 
HETATM    9  H   UNL     1      -7.961   9.480  72.209  1.00  0.00     0.000 HD 
BRANCH   7  10
HETATM   10  C   UNL     1      -8.281   7.714  70.347  1.00  0.00    -0.122 C  
BRANCH  10  11
HETATM   11  O   UNL     1      -9.199   6.871  71.069  1.00  0.00    -0.155 OA 
BRANCH  11  12
HETATM   12  C   UNL     1      -8.685   5.669  71.483  1.00  0.00    -0.132 A  
HETATM   13  C   UNL     1      -8.536   4.621  70.552  1.00  0.00    -0.104 A  
HETATM   14  C   UNL     1      -8.365   5.436  72.830  1.00  0.00    -0.113 A  
HETATM   15  C   UNL     1      -8.010   3.391  70.981  1.00  0.00    -0.058 A  
HETATM   16  C   UNL     1      -7.862   4.203  73.243  1.00  0.00    -0.085 A  
HETATM   17  C   UNL     1      -7.679   3.182  72.320  1.00  0.00    -0.058 A  
BRANCH  13  18
HETATM   18  C   UNL     1      -8.896   4.788  69.105  1.00  0.00    -0.092 C  
HETATM   19  O   UNL     1      -9.997   5.230  68.786  1.00  0.00    -0.153 OA 
BRANCH  18  20
HETATM   20  C   UNL     1      -7.852   4.480  68.040  1.00  0.00    -0.081 C  
BRANCH  20  21
HETATM   21  C   UNL     1      -6.997   5.696  67.697  1.00  0.00    -0.066 C  
BRANCH  21  22
HETATM   22  C   UNL     1      -7.189   6.152  66.270  1.00  0.00    -0.072 A  
HETATM   23  C   UNL     1      -8.127   5.520  65.440  1.00  0.00    -0.123 A  
HETATM   24  C   UNL     1      -8.320   5.958  64.128  1.00  0.00    -0.017 A  
HETATM   25  C   UNL     1      -7.576   7.026  63.632  1.00  0.00    -0.105 A  
HETATM   26  C   UNL     1      -6.632   7.652  64.445  1.00  0.00    -0.048 A  
HETATM   27  C   UNL     1      -6.436   7.215  65.756  1.00  0.00    -0.047 A  
ENDBRANCH  21  22
ENDBRANCH  20  21
ENDBRANCH  18  20
ENDBRANCH  13  18
ENDBRANCH  11  12
ENDBRANCH  10  11
ENDBRANCH   7  10
ENDBRANCH   6   7
ENDBRANCH   4   6
ENDBRANCH   3   4
ENDBRANCH   2   3
TORSDOF 11
ENDMDL
MODEL      372
REMARK 921   NORMALIZED FREE ENERGY PREDICTED BY IDOCK:   -1.48 KCAL/MOL
REMARK 922        TOTAL FREE ENERGY PREDICTED BY IDOCK:   -3.44 KCAL/MOL
REMARK 923 INTER-LIGAND FREE ENERGY PREDICTED BY IDOCK:   -2.44 KCAL/MOL
REMARK 924 INTRA-LIGAND FREE ENERGY PREDICTED BY IDOCK:   -1.00 KCAL/MOL
REMARK 927      BINDING AFFINITY PREDICTED BY RF-SCORE:    0.00 PKD
ROOT
HETATM    1  C   UNL     1      -5.668   9.609  70.536  1.00  0.00    -0.052 C  
HETATM    2  C   UNL     1      -6.035   8.729  69.351  1.00  0.00    -0.037 C  
ENDROOT
BRANCH   2   3
HETATM    3  C   UNL     1      -5.152   7.483  69.293  1.00  0.00    -0.015 C  
BRANCH   3   4
HETATM    4  N   UNL     1      -5.916   6.365  68.744  1.00  0.00    -0.020 NA 
HETATM    5  H   UNL     1      -5.313   5.672  68.300  1.00  0.00     0.000 HD 
BRANCH   4   6
HETATM    6  C   UNL     1      -6.762   5.767  69.787  1.00  0.00    -0.052 C  
BRANCH   6   7
HETATM    7  C   UNL     1      -6.450   4.269  69.959  1.00  0.00    -0.032 C  
HETATM    8  O   UNL     1      -7.652   3.533  70.234  1.00  0.00    -0.044 OA 
HETATM    9  H   UNL     1      -7.459   2.609  70.340  1.00  0.00     0.000 HD 
BRANCH   7  10
HETATM   10  C   UNL     1      -5.782   3.700  68.702  1.00  0.00    -0.022 C  
BRANCH  10  11
HETATM   11  O   UNL     1      -6.394   4.275  67.530  1.00  0.00    -0.035 OA 
BRANCH  11  12
HETATM   12  C   UNL     1      -6.540   3.418  66.470  1.00  0.00    -0.041 A  
HETATM   13  C   UNL     1      -7.706   3.486  65.680  1.00  0.00    -0.082 A  
HETATM   14  C   UNL     1      -5.585   2.427  66.193  1.00  0.00    -0.017 A  
HETATM   15  C   UNL     1      -7.853   2.604  64.595  1.00  0.00    -0.077 A  
HETATM   16  C   UNL     1      -5.755   1.548  65.124  1.00  0.00    -0.009 A  
HETATM   17  C   UNL     1      -6.884   1.638  64.322  1.00  0.00    -0.031 A  
BRANCH  13  18
HETATM   18  C   UNL     1      -8.786   4.492  65.944  1.00  0.00    -0.121 C  
HETATM   19  O   UNL     1      -9.135   5.275  65.063  1.00  0.00    -0.126 OA 
BRANCH  18  20
HETATM   20  C   UNL     1      -9.503   4.477  67.288  1.00  0.00    -0.184 C  
BRANCH  20  21
HETATM   21  C   UNL     1     -10.727   5.387  67.303  1.00  0.00    -0.180 C  
BRANCH  21  22
HETATM   22  C   UNL     1     -10.644   6.448  68.374  1.00  0.00    -0.311 A  
HETATM   23  C   UNL     1      -9.585   7.367  68.387  1.00  0.00    -0.149 A  
HETATM   24  C   UNL     1      -9.522   8.362  69.364  1.00  0.00    -0.158 A  
HETATM   25  C   UNL     1     -10.513   8.447  70.340  1.00  0.00    -0.228 A  
HETATM   26  C   UNL     1     -11.563   7.530  70.343  1.00  0.00    -0.172 A  
HETATM   27  C   UNL     1     -11.627   6.532  69.368  1.00  0.00    -0.249 A  
ENDBRANCH  21  22
ENDBRANCH  20  21
ENDBRANCH  18  20
ENDBRANCH  13  18
ENDBRANCH  11  12
ENDBRANCH  10  11
ENDBRANCH   7  10
ENDBRANCH   6   7
ENDBRANCH   4   6
ENDBRANCH   3   4
ENDBRANCH   2   3
TORSDOF 11
ENDMDL
MODEL      373
REMARK 921   NORMALIZED FREE ENERGY PREDICTED BY IDOCK:   -1.38 KCAL/MOL
REMARK 922        TOTAL FREE ENERGY PREDICTED BY IDOCK:   -3.29 KCAL/MOL
REMARK 923 INTER-LIGAND FREE ENERGY PREDICTED BY IDOCK:   -3.77 KCAL/MOL
REMARK 924 INTRA-LIGAND FREE ENERGY PREDICTED BY IDOCK:    0.48 KCAL/MOL
REMARK 927      BINDING AFFINITY PREDICTED BY RF-SCORE:    0.00 PKD
ROOT
HETATM    1  C   UNL     1      -8.755  17.010  66.955  1.00  0.00    -0.240 C  
HETATM    2  C   UNL     1      -9.946  16.616  67.816  1.00  0.00    -0.262 C  
ENDROOT
BRANCH   2   3
HETATM    3  C   UNL     1     -10.159  15.103  67.807  1.00  0.00    -0.230 C  
BRANCH   3   4
HETATM    4  N   UNL     1     -11.498  14.799  67.304  1.00  0.00    -0.361 NA 
HETATM    5  H   UNL     1     -11.467  14.217  66.467  1.00  0.00     0.000 HD 
BRANCH   4   6
HETATM    6  C   UNL     1     -12.312  14.191  68.365  1.00  0.00     0.017 C  
BRANCH   6   7
HETATM    7  C   UNL     1     -11.520  13.108  69.119  1.00  0.00    -0.305 C  
HETATM    8  O   UNL     1     -12.409  12.254  69.855  1.00  0.00    -0.176 OA 
HETATM    9  H   UNL     1     -11.919  11.585  70.320  1.00  0.00     0.000 HD 
BRANCH   7  10
HETATM   10  C   UNL     1     -10.691  12.260  68.146  1.00  0.00    -0.216 C  
BRANCH  10  11
HETATM   11  O   UNL     1      -9.867  11.341  68.890  1.00  0.00    -0.198 OA 
BRANCH  11  12
HETATM   12  C   UNL     1      -8.600  11.163  68.395  1.00  0.00    -0.152 A  
HETATM   13  C   UNL     1      -8.010   9.884  68.450  1.00  0.00    -0.096 A  
HETATM   14  C   UNL     1      -7.851  12.240  67.898  1.00  0.00    -0.146 A  
HETATM   15  C   UNL     1      -6.711   9.705  67.944  1.00  0.00    -0.066 A  
HETATM   16  C   UNL     1      -6.556  12.050  67.417  1.00  0.00    -0.134 A  
HETATM   17  C   UNL     1      -5.987  10.783  67.435  1.00  0.00    -0.049 A  
BRANCH  13  18
HETATM   18  C   UNL     1      -8.737   8.696  69.006  1.00  0.00    -0.134 C  
HETATM   19  O   UNL     1      -8.908   8.584  70.218  1.00  0.00    -0.138 OA 
BRANCH  18  20
HETATM   20  C   UNL     1      -9.333   7.673  68.047  1.00  0.00    -0.144 C  
BRANCH  20  21
HETATM   21  C   UNL     1      -8.612   6.330  68.111  1.00  0.00    -0.116 C  
BRANCH  21  22
HETATM   22  C   UNL     1      -8.184   5.972  69.514  1.00  0.00    -0.115 A  
HETATM   23  C   UNL     1      -9.073   5.328  70.388  1.00  0.00    -0.173 A  
HETATM   24  C   UNL     1      -8.668   4.976  71.677  1.00  0.00    -0.141 A  
HETATM   25  C   UNL     1      -7.375   5.266  72.107  1.00  0.00    -0.092 A  
HETATM   26  C   UNL     1      -6.489   5.917  71.251  1.00  0.00    -0.045 A  
HETATM   27  C   UNL     1      -6.892   6.272  69.962  1.00  0.00    -0.058 A  
ENDBRANCH  21  22
ENDBRANCH  20  21
ENDBRANCH  18  20
ENDBRANCH  13  18
ENDBRANCH  11  12
ENDBRANCH  10  11
ENDBRANCH   7  10
ENDBRANCH   6   7
ENDBRANCH   4   6
ENDBRANCH   3   4
ENDBRANCH   2   3
TORSDOF 11
ENDMDL
MODEL      374
REMARK 921   NORMALIZED FREE ENERGY PREDICTED BY IDOCK:   -0.21 KCAL/MOL
REMARK 922        TOTAL FREE ENERGY PREDICTED BY IDOCK:   -1.36 KCAL/MOL
REMARK 923 INTER-LIGAND FREE ENERGY PREDICTED BY IDOCK:   -3.93 KCAL/MOL
REMARK 924 INTRA-LIGAND FREE ENERGY PREDICTED BY IDOCK:    2.57 KCAL/MOL
REMARK 927      BINDING AFFINITY PREDICTED BY RF-SCORE:    0.00 PKD
ROOT
HETATM    1  C   UNL     1     -12.968  12.558  71.765  1.00  0.00    -0.419 C  
HETATM    2  C   UNL     1     -12.039  11.889  70.764  1.00  0.00    -0.325 C  
ENDROOT
BRANCH   2   3
HETATM    3  C   UNL     1     -12.830  11.175  69.668  1.00  0.00     0.340 C  
BRANCH   3   4
HETATM    4  N   UNL     1     -12.481   9.756  69.655  1.00  0.00    -0.020 NA 
HETATM    5  H   UNL     1     -11.585   9.588  69.198  1.00  0.00     0.000 HD 
BRANCH   4   6
HETATM    6  C   UNL     1     -12.510   9.213  71.021  1.00  0.00    -0.181 C  
BRANCH   6   7
HETATM    7  C   UNL     1     -11.404   8.161  71.220  1.00  0.00    -0.265 C  
HETATM    8  O   UNL     1     -11.892   7.061  72.005  1.00  0.00    -0.282 OA 
HETATM    9  H   UNL     1     -11.209   6.412  72.128  1.00  0.00     0.000 HD 
BRANCH   7  10
HETATM   10  C   UNL     1     -10.897   7.637  69.871  1.00  0.00    -0.235 C  
BRANCH  10  11
HETATM   11  O   UNL     1     -10.716   6.209  69.946  1.00  0.00    -0.239 OA 
BRANCH  11  12
HETATM   12  C   UNL     1      -9.794   5.787  70.869  1.00  0.00    -0.179 A  
HETATM   13  C   UNL     1      -8.420   5.966  70.608  1.00  0.00    -0.129 A  
HETATM   14  C   UNL     1     -10.184   5.118  72.040  1.00  0.00    -0.260 A  
HETATM   15  C   UNL     1      -7.478   5.530  71.555  1.00  0.00    -0.095 A  
HETATM   16  C   UNL     1      -9.236   4.675  72.961  1.00  0.00    -0.131 A  
HETATM   17  C   UNL     1      -7.884   4.884  72.722  1.00  0.00    -0.094 A  
BRANCH  13  18
HETATM   18  C   UNL     1      -7.930   6.636  69.358  1.00  0.00    -0.115 C  
HETATM   19  O   UNL     1      -6.733   6.867  69.205  1.00  0.00    -0.046 OA 
BRANCH  18  20
HETATM   20  C   UNL     1      -8.923   6.950  68.246  1.00  0.00    -0.124 C  
BRANCH  20  21
HETATM   21  C   UNL     1      -8.329   7.863  67.179  1.00  0.00    -0.117 C  
BRANCH  21  22
HETATM   22  C   UNL     1      -8.657   9.318  67.415  1.00  0.00    -0.122 A  
HETATM   23  C   UNL     1      -7.701  10.184  67.965  1.00  0.00    -0.089 A  
HETATM   24  C   UNL     1      -7.998  11.534  68.161  1.00  0.00    -0.136 A  
HETATM   25  C   UNL     1      -9.252  12.030  67.815  1.00  0.00    -0.190 A  
HETATM   26  C   UNL     1     -10.214  11.175  67.281  1.00  0.00    -0.227 A  
HETATM   27  C   UNL     1      -9.920   9.824  67.085  1.00  0.00    -0.252 A  
ENDBRANCH  21  22
ENDBRANCH  20  21
ENDBRANCH  18  20
ENDBRANCH  13  18
ENDBRANCH  11  12
ENDBRANCH  10  11
ENDBRANCH   7  10
ENDBRANCH   6   7
ENDBRANCH   4   6
ENDBRANCH   3   4
ENDBRANCH   2   3
TORSDOF 11
ENDMDL
MODEL      375
REMARK 921   NORMALIZED FREE ENERGY PREDICTED BY IDOCK:    1.94 KCAL/MOL
REMARK 922        TOTAL FREE ENERGY PREDICTED BY IDOCK:    2.17 KCAL/MOL
REMARK 923 INTER-LIGAND FREE ENERGY PREDICTED BY IDOCK:   -1.70 KCAL/MOL
REMARK 924 INTRA-LIGAND FREE ENERGY PREDICTED BY IDOCK:    3.88 KCAL/MOL
REMARK 927      BINDING AFFINITY PREDICTED BY RF-SCORE:    0.00 PKD
ROOT
HETATM    1  C   UNL     1     -12.098  11.524  64.890  1.00  0.00     0.373 C  
HETATM    2  C   UNL     1     -11.192  11.312  63.686  1.00  0.00    -0.221 C  
ENDROOT
BRANCH   2   3
HETATM    3  C   UNL     1      -9.772  10.949  64.120  1.00  0.00    -0.296 C  
BRANCH   3   4
HETATM    4  N   UNL     1      -9.375   9.688  63.498  1.00  0.00    -0.452 NA 
HETATM    5  H   UNL     1     -10.036   9.393  62.779  1.00  0.00     0.000 HD 
BRANCH   4   6
HETATM    6  C   UNL     1      -8.005   9.787  62.977  1.00  0.00    -0.138 C  
BRANCH   6   7
HETATM    7  C   UNL     1      -6.971   9.566  64.095  1.00  0.00    -0.109 C  
HETATM    8  O   UNL     1      -7.428  10.146  65.326  1.00  0.00    -0.136 OA 
HETATM    9  H   UNL     1      -6.789  10.009  66.016  1.00  0.00     0.000 HD 
BRANCH   7  10
HETATM   10  C   UNL     1      -6.705   8.070  64.306  1.00  0.00    -0.065 C  
BRANCH  10  11
HETATM   11  O   UNL     1      -7.157   7.333  63.153  1.00  0.00    -0.056 OA 
BRANCH  11  12
HETATM   12  C   UNL     1      -8.038   6.317  63.420  1.00  0.00    -0.048 A  
HETATM   13  C   UNL     1      -7.965   5.644  64.657  1.00  0.00    -0.120 A  
HETATM   14  C   UNL     1      -8.968   5.885  62.462  1.00  0.00     0.327 A  
HETATM   15  C   UNL     1      -8.869   4.602  64.926  1.00  0.00    -0.151 A  
HETATM   16  C   UNL     1      -9.845   4.836  62.737  1.00  0.00     0.234 A  
HETATM   17  C   UNL     1      -9.799   4.198  63.969  1.00  0.00    -0.119 A  
BRANCH  13  18
HETATM   18  C   UNL     1      -6.969   6.026  65.711  1.00  0.00    -0.061 C  
HETATM   19  O   UNL     1      -7.049   7.114  66.277  1.00  0.00    -0.070 OA 
BRANCH  18  20
HETATM   20  C   UNL     1      -5.907   5.017  66.130  1.00  0.00    -0.022 C  
BRANCH  20  21
HETATM   21  C   UNL     1      -6.011   4.646  67.606  1.00  0.00    -0.023 C  
BRANCH  21  22
HETATM   22  C   UNL     1      -6.952   5.552  68.364  1.00  0.00    -0.064 A  
HETATM   23  C   UNL     1      -6.465   6.680  69.040  1.00  0.00    -0.040 A  
HETATM   24  C   UNL     1      -7.339   7.530  69.721  1.00  0.00    -0.082 A  
HETATM   25  C   UNL     1      -8.705   7.259  69.737  1.00  0.00    -0.142 A  
HETATM   26  C   UNL     1      -9.197   6.133  69.080  1.00  0.00    -0.129 A  
HETATM   27  C   UNL     1      -8.325   5.280  68.400  1.00  0.00    -0.093 A  
ENDBRANCH  21  22
ENDBRANCH  20  21
ENDBRANCH  18  20
ENDBRANCH  13  18
ENDBRANCH  11  12
ENDBRANCH  10  11
ENDBRANCH   7  10
ENDBRANCH   6   7
ENDBRANCH   4   6
ENDBRANCH   3   4
ENDBRANCH   2   3
TORSDOF 11
ENDMDL
MODEL      376
REMARK 921   NORMALIZED FREE ENERGY PREDICTED BY IDOCK:    1.98 KCAL/MOL
REMARK 922        TOTAL FREE ENERGY PREDICTED BY IDOCK:    2.24 KCAL/MOL
REMARK 923 INTER-LIGAND FREE ENERGY PREDICTED BY IDOCK:   -3.25 KCAL/MOL
REMARK 924 INTRA-LIGAND FREE ENERGY PREDICTED BY IDOCK:    5.49 KCAL/MOL
REMARK 927      BINDING AFFINITY PREDICTED BY RF-SCORE:    0.00 PKD
ROOT
HETATM    1  C   UNL     1      -6.491  19.407  66.668  1.00  0.00    -0.191 C  
HETATM    2  C   UNL     1      -7.829  18.707  66.482  1.00  0.00    -0.287 C  
ENDROOT
BRANCH   2   3
HETATM    3  C   UNL     1      -8.626  18.683  67.785  1.00  0.00    -0.275 C  
BRANCH   3   4
HETATM    4  N   UNL     1      -8.775  17.303  68.244  1.00  0.00    -0.243 NA 
HETATM    5  H   UNL     1      -8.496  16.631  67.529  1.00  0.00     0.000 HD 
BRANCH   4   6
HETATM    6  C   UNL     1      -8.039  17.103  69.500  1.00  0.00     0.520 C  
BRANCH   6   7
HETATM    7  C   UNL     1      -7.494  15.667  69.599  1.00  0.00    -0.134 C  
HETATM    8  O   UNL     1      -8.548  14.713  69.396  1.00  0.00    -0.381 OA 
HETATM    9  H   UNL     1      -8.211  13.827  69.456  1.00  0.00     0.000 HD 
BRANCH   7  10
HETATM   10  C   UNL     1      -6.388  15.429  68.564  1.00  0.00    -0.097 C  
BRANCH  10  11
HETATM   11  O   UNL     1      -6.930  14.717  67.435  1.00  0.00    -0.186 OA 
BRANCH  11  12
HETATM   12  C   UNL     1      -7.996  13.902  67.717  1.00  0.00    -0.172 A  
HETATM   13  C   UNL     1      -7.763  12.571  68.120  1.00  0.00    -0.141 A  
HETATM   14  C   UNL     1      -9.318  14.343  67.549  1.00  0.00    -0.198 A  
HETATM   15  C   UNL     1      -8.858  11.738  68.406  1.00  0.00    -0.161 A  
HETATM   16  C   UNL     1     -10.394  13.498  67.820  1.00  0.00    -0.241 A  
HETATM   17  C   UNL     1     -10.166  12.199  68.252  1.00  0.00    -0.209 A  
BRANCH  13  18
HETATM   18  C   UNL     1      -6.377  12.021  68.280  1.00  0.00    -0.052 C  
HETATM   19  O   UNL     1      -5.922  11.798  69.399  1.00  0.00    -0.065 OA 
BRANCH  18  20
HETATM   20  C   UNL     1      -5.570  11.666  67.037  1.00  0.00    -0.124 C  
BRANCH  20  21
HETATM   21  C   UNL     1      -5.729  10.202  66.641  1.00  0.00    -0.051 C  
BRANCH  21  22
HETATM   22  C   UNL     1      -6.508  10.031  65.359  1.00  0.00    -0.106 A  
HETATM   23  C   UNL     1      -7.711   9.310  65.346  1.00  0.00    -0.099 A  
HETATM   24  C   UNL     1      -8.443   9.174  64.164  1.00  0.00    -0.198 A  
HETATM   25  C   UNL     1      -7.978   9.752  62.985  1.00  0.00    -0.138 A  
HETATM   26  C   UNL     1      -6.777  10.459  62.985  1.00  0.00    -0.091 A  
HETATM   27  C   UNL     1      -6.042  10.595  64.164  1.00  0.00     0.070 A  
ENDBRANCH  21  22
ENDBRANCH  20  21
ENDBRANCH  18  20
ENDBRANCH  13  18
ENDBRANCH  11  12
ENDBRANCH  10  11
ENDBRANCH   7  10
ENDBRANCH   6   7
ENDBRANCH   4   6
ENDBRANCH   3   4
ENDBRANCH   2   3
TORSDOF 11
ENDMDL
MODEL      377
REMARK 921   NORMALIZED FREE ENERGY PREDICTED BY IDOCK:    2.27 KCAL/MOL
REMARK 922        TOTAL FREE ENERGY PREDICTED BY IDOCK:    2.72 KCAL/MOL
REMARK 923 INTER-LIGAND FREE ENERGY PREDICTED BY IDOCK:   -3.28 KCAL/MOL
REMARK 924 INTRA-LIGAND FREE ENERGY PREDICTED BY IDOCK:    6.00 KCAL/MOL
REMARK 927      BINDING AFFINITY PREDICTED BY RF-SCORE:    0.00 PKD
ROOT
HETATM    1  C   UNL     1     -12.833  12.575  71.736  1.00  0.00    -0.347 C  
HETATM    2  C   UNL     1     -11.862  12.319  70.594  1.00  0.00    -0.044 C  
ENDROOT
BRANCH   2   3
HETATM    3  C   UNL     1     -12.587  11.776  69.363  1.00  0.00     0.360 C  
BRANCH   3   4
HETATM    4  N   UNL     1     -11.875  10.608  68.848  1.00  0.00    -0.603 NA 
HETATM    5  H   UNL     1     -11.077  10.873  68.271  1.00  0.00     0.000 HD 
BRANCH   4   6
HETATM    6  C   UNL     1     -11.482   9.724  69.954  1.00  0.00    -0.140 C  
BRANCH   6   7
HETATM    7  C   UNL     1     -10.094   9.109  69.704  1.00  0.00    -0.198 C  
HETATM    8  O   UNL     1      -9.423   9.798  68.638  1.00  0.00    -0.146 OA 
HETATM    9  H   UNL     1      -8.566   9.418  68.483  1.00  0.00     0.000 HD 
BRANCH   7  10
HETATM   10  C   UNL     1      -9.231   9.170  70.970  1.00  0.00    -0.252 C  
BRANCH  10  11
HETATM   11  O   UNL     1      -8.019   9.896  70.692  1.00  0.00    -0.257 OA 
BRANCH  11  12
HETATM   12  C   UNL     1      -7.499   9.705  69.437  1.00  0.00    -0.093 A  
HETATM   13  C   UNL     1      -6.722   8.558  69.177  1.00  0.00    -0.047 A  
HETATM   14  C   UNL     1      -7.667  10.660  68.423  1.00  0.00    -0.106 A  
HETATM   15  C   UNL     1      -6.190   8.367  67.891  1.00  0.00    -0.052 A  
HETATM   16  C   UNL     1      -7.117  10.465  67.157  1.00  0.00    -0.090 A  
HETATM   17  C   UNL     1      -6.383   9.317  66.888  1.00  0.00    -0.066 A  
BRANCH  13  18
HETATM   18  C   UNL     1      -6.467   7.517  70.226  1.00  0.00    -0.038 C  
HETATM   19  O   UNL     1      -5.828   6.503  69.953  1.00  0.00    -0.017 OA 
BRANCH  18  20
HETATM   20  C   UNL     1      -6.938   7.769  71.653  1.00  0.00    -0.063 C  
BRANCH  20  21
HETATM   21  C   UNL     1      -6.745   6.551  72.551  1.00  0.00    -0.064 C  
BRANCH  21  22
HETATM   22  C   UNL     1      -8.026   5.780  72.760  1.00  0.00    -0.101 A  
HETATM   23  C   UNL     1      -8.321   4.659  71.970  1.00  0.00    -0.117 A  
HETATM   24  C   UNL     1      -9.494   3.932  72.181  1.00  0.00    -0.191 A  
HETATM   25  C   UNL     1     -10.386   4.320  73.178  1.00  0.00    -0.237 A  
HETATM   26  C   UNL     1     -10.109   5.440  73.959  1.00  0.00    -0.241 A  
HETATM   27  C   UNL     1      -8.937   6.170  73.750  1.00  0.00    -0.129 A  
ENDBRANCH  21  22
ENDBRANCH  20  21
ENDBRANCH  18  20
ENDBRANCH  13  18
ENDBRANCH  11  12
ENDBRANCH  10  11
ENDBRANCH   7  10
ENDBRANCH   6   7
ENDBRANCH   4   6
ENDBRANCH   3   4
ENDBRANCH   2   3
TORSDOF 11
ENDMDL
MODEL      378
REMARK 921   NORMALIZED FREE ENERGY PREDICTED BY IDOCK:    4.85 KCAL/MOL
REMARK 922        TOTAL FREE ENERGY PREDICTED BY IDOCK:    6.96 KCAL/MOL
REMARK 923 INTER-LIGAND FREE ENERGY PREDICTED BY IDOCK:   -2.17 KCAL/MOL
REMARK 924 INTRA-LIGAND FREE ENERGY PREDICTED BY IDOCK:    9.13 KCAL/MOL
REMARK 927      BINDING AFFINITY PREDICTED BY RF-SCORE:    0.00 PKD
ROOT
HETATM    1  C   UNL     1     -12.583  12.552  71.871  1.00  0.00    -0.037 C  
HETATM    2  C   UNL     1     -11.662  12.372  70.675  1.00  0.00     0.188 C  
ENDROOT
BRANCH   2   3
HETATM    3  C   UNL     1     -12.459  12.108  69.398  1.00  0.00     0.255 C  
BRANCH   3   4
HETATM    4  N   UNL     1     -11.897  10.955  68.698  1.00  0.00    -0.629 NA 
HETATM    5  H   UNL     1     -11.026  11.186  68.219  1.00  0.00     0.000 HD 
BRANCH   4   6
HETATM    6  C   UNL     1     -11.729   9.828  69.627  1.00  0.00     0.104 C  
BRANCH   6   7
HETATM    7  C   UNL     1     -10.484   8.998  69.269  1.00  0.00    -0.228 C  
HETATM    8  O   UNL     1      -9.668   9.698  68.317  1.00  0.00    -0.143 OA 
HETATM    9  H   UNL     1      -8.899   9.185  68.097  1.00  0.00     0.000 HD 
BRANCH   7  10
HETATM   10  C   UNL     1      -9.653   8.690  70.521  1.00  0.00    -0.181 C  
BRANCH  10  11
HETATM   11  O   UNL     1      -8.366   9.328  70.414  1.00  0.00    -0.161 OA 
BRANCH  11  12
HETATM   12  C   UNL     1      -8.050   9.796  69.164  1.00  0.00    -0.107 A  
HETATM   13  C   UNL     1      -7.241   9.012  68.315  1.00  0.00    -0.078 A  
HETATM   14  C   UNL     1      -8.457  11.068  68.735  1.00  0.00    -0.144 A  
HETATM   15  C   UNL     1      -6.917   9.496  67.036  1.00  0.00    -0.085 A  
HETATM   16  C   UNL     1      -8.111  11.542  67.469  1.00  0.00    -0.137 A  
HETATM   17  C   UNL     1      -7.346  10.756  66.618  1.00  0.00    -0.134 A  
BRANCH  13  18
HETATM   18  C   UNL     1      -6.736   7.661  68.725  1.00  0.00    -0.054 C  
HETATM   19  O   UNL     1      -5.955   7.044  68.004  1.00  0.00    -0.026 OA 
BRANCH  18  20
HETATM   20  C   UNL     1      -7.139   7.098  70.082  1.00  0.00    -0.066 C  
BRANCH  20  21
HETATM   21  C   UNL     1      -6.477   5.755  70.372  1.00  0.00    -0.036 C  
BRANCH  21  22
HETATM   22  C   UNL     1      -7.243   4.594  69.783  1.00  0.00    -0.054 A  
HETATM   23  C   UNL     1      -7.456   3.427  70.531  1.00  0.00    -0.040 A  
HETATM   24  C   UNL     1      -8.185   2.365  69.993  1.00  0.00    -0.064 A  
HETATM   25  C   UNL     1      -8.703   2.455  68.703  1.00  0.00    -0.129 A  
HETATM   26  C   UNL     1      -8.485   3.605  67.947  1.00  0.00    -0.107 A  
HETATM   27  C   UNL     1      -7.755   4.669  68.481  1.00  0.00    -0.076 A  
ENDBRANCH  21  22
ENDBRANCH  20  21
ENDBRANCH  18  20
ENDBRANCH  13  18
ENDBRANCH  11  12
ENDBRANCH  10  11
ENDBRANCH   7  10
ENDBRANCH   6   7
ENDBRANCH   4   6
ENDBRANCH   3   4
ENDBRANCH   2   3
TORSDOF 11
ENDMDL
