MODEL        1
REMARK 921   NORMALIZED FREE ENERGY PREDICTED BY IDOCK:   -4.32 KCAL/MOL
REMARK 922        TOTAL FREE ENERGY PREDICTED BY IDOCK:   -5.14 KCAL/MOL
REMARK 923 INTER-LIGAND FREE ENERGY PREDICTED BY IDOCK:   -5.08 KCAL/MOL
REMARK 924 INTRA-LIGAND FREE ENERGY PREDICTED BY IDOCK:   -0.06 KCAL/MOL
REMARK 927      BINDING AFFINITY PREDICTED BY RF-SCORE:    0.00 PKD
ROOT
HETATM    1  C   UNL     1     -11.312  10.368  69.489  1.00  0.00    -0.265 C  
HETATM    2  N   UNL     1     -11.538  11.475  70.409  1.00  0.00    -0.503 NA 
HETATM    3  H   UNL     1     -11.343  12.367  69.956  1.00  0.00     0.000 HD 
ENDROOT
BRANCH   2   4
HETATM    4  C   UNL     1     -12.883  11.478  71.005  1.00  0.00    -0.263 C  
HETATM    5  C   UNL     1     -13.159  10.197  71.803  1.00  0.00    -0.568 C  
BRANCH   4   6
HETATM    6  C   UNL     1     -13.038  12.699  71.947  1.00  0.00    -0.470 C  
BRANCH   6   7
HETATM    7  C   UNL     1     -13.523  14.014  71.282  1.00  0.00    -0.308 C  
HETATM    8  C   UNL     1     -14.223  14.972  72.259  1.00  0.00    -0.594 C  
HETATM    9  C   UNL     1     -13.260  15.588  73.271  1.00  0.00    -0.635 C  
HETATM   10  C   UNL     1     -12.100  16.297  72.578  1.00  0.00    -0.615 C  
HETATM   11  C   UNL     1     -11.384  15.395  71.577  1.00  0.00    -0.461 C  
HETATM   12  C   UNL     1     -12.356  14.748  70.593  1.00  0.00    -0.401 C  
ENDBRANCH   6   7
ENDBRANCH   4   6
ENDBRANCH   2   4
TORSDOF 3
ENDMDL
MODEL        2
REMARK 921   NORMALIZED FREE ENERGY PREDICTED BY IDOCK:   -4.29 KCAL/MOL
REMARK 922        TOTAL FREE ENERGY PREDICTED BY IDOCK:   -5.11 KCAL/MOL
REMARK 923 INTER-LIGAND FREE ENERGY PREDICTED BY IDOCK:   -4.93 KCAL/MOL
REMARK 924 INTRA-LIGAND FREE ENERGY PREDICTED BY IDOCK:   -0.17 KCAL/MOL
REMARK 927      BINDING AFFINITY PREDICTED BY RF-SCORE:    0.00 PKD
ROOT
HETATM    1  C   UNL     1     -14.256  15.153  72.125  1.00  0.00    -0.559 C  
HETATM    2  N   UNL     1     -13.942  15.461  70.736  1.00  0.00    -0.859 NA 
HETATM    3  H   UNL     1     -14.323  16.369  70.473  1.00  0.00     0.000 HD 
ENDROOT
BRANCH   2   4
HETATM    4  C   UNL     1     -12.505  15.390  70.428  1.00  0.00    -0.404 C  
HETATM    5  C   UNL     1     -11.642  15.528  71.689  1.00  0.00    -0.502 C  
BRANCH   4   6
HETATM    6  C   UNL     1     -12.182  14.038  69.742  1.00  0.00    -0.396 C  
BRANCH   6   7
HETATM    7  C   UNL     1     -10.958  14.035  68.788  1.00  0.00    -0.282 C  
HETATM    8  C   UNL     1     -10.453  12.625  68.444  1.00  0.00    -0.248 C  
HETATM    9  C   UNL     1     -11.423  11.854  67.551  1.00  0.00    -0.396 C  
HETATM   10  C   UNL     1     -11.738  12.627  66.273  1.00  0.00    -0.460 C  
HETATM   11  C   UNL     1     -12.221  14.046  66.558  1.00  0.00    -0.485 C  
HETATM   12  C   UNL     1     -11.270  14.798  67.487  1.00  0.00    -0.339 C  
ENDBRANCH   6   7
ENDBRANCH   4   6
ENDBRANCH   2   4
TORSDOF 3
ENDMDL
MODEL        3
REMARK 921   NORMALIZED FREE ENERGY PREDICTED BY IDOCK:   -4.26 KCAL/MOL
REMARK 922        TOTAL FREE ENERGY PREDICTED BY IDOCK:   -5.07 KCAL/MOL
REMARK 923 INTER-LIGAND FREE ENERGY PREDICTED BY IDOCK:   -4.87 KCAL/MOL
REMARK 924 INTRA-LIGAND FREE ENERGY PREDICTED BY IDOCK:   -0.20 KCAL/MOL
REMARK 927      BINDING AFFINITY PREDICTED BY RF-SCORE:    0.00 PKD
ROOT
HETATM    1  C   UNL     1     -12.226  14.927  64.223  1.00  0.00    -0.344 C  
HETATM    2  N   UNL     1     -12.226  13.848  63.243  1.00  0.00    -1.111 NA 
HETATM    3  H   UNL     1     -11.592  14.059  62.473  1.00  0.00     0.000 HD 
ENDROOT
BRANCH   2   4
HETATM    4  C   UNL     1     -11.922  12.529  63.821  1.00  0.00    -0.517 C  
HETATM    5  C   UNL     1     -10.505  12.062  63.468  1.00  0.00    -0.505 C  
BRANCH   4   6
HETATM    6  C   UNL     1     -12.063  12.588  65.364  1.00  0.00    -0.494 C  
BRANCH   6   7
HETATM    7  C   UNL     1     -10.756  12.378  66.174  1.00  0.00    -0.292 C  
HETATM    8  C   UNL     1     -10.381  13.581  67.053  1.00  0.00    -0.252 C  
HETATM    9  C   UNL     1     -11.335  13.771  68.230  1.00  0.00    -0.317 C  
HETATM   10  C   UNL     1     -11.429  12.508  69.081  1.00  0.00    -0.361 C  
HETATM   11  C   UNL     1     -11.777  11.275  68.251  1.00  0.00    -0.344 C  
HETATM   12  C   UNL     1     -10.847  11.113  67.050  1.00  0.00    -0.338 C  
ENDBRANCH   6   7
ENDBRANCH   4   6
ENDBRANCH   2   4
TORSDOF 3
ENDMDL
MODEL        4
REMARK 921   NORMALIZED FREE ENERGY PREDICTED BY IDOCK:   -4.18 KCAL/MOL
REMARK 922        TOTAL FREE ENERGY PREDICTED BY IDOCK:   -4.98 KCAL/MOL
REMARK 923 INTER-LIGAND FREE ENERGY PREDICTED BY IDOCK:   -4.76 KCAL/MOL
REMARK 924 INTRA-LIGAND FREE ENERGY PREDICTED BY IDOCK:   -0.22 KCAL/MOL
REMARK 927      BINDING AFFINITY PREDICTED BY RF-SCORE:    0.00 PKD
ROOT
HETATM    1  C   UNL     1     -11.221  10.966  67.564  1.00  0.00    -0.293 C  
HETATM    2  N   UNL     1     -12.094  11.711  68.462  1.00  0.00    -0.499 NA 
HETATM    3  H   UNL     1     -12.283  11.175  69.309  1.00  0.00     0.000 HD 
ENDROOT
BRANCH   2   4
HETATM    4  C   UNL     1     -11.586  13.051  68.798  1.00  0.00    -0.309 C  
HETATM    5  C   UNL     1     -11.969  14.091  67.738  1.00  0.00    -0.392 C  
BRANCH   4   6
HETATM    6  C   UNL     1     -12.152  13.498  70.169  1.00  0.00    -0.425 C  
BRANCH   6   7
HETATM    7  C   UNL     1     -12.434  15.016  70.327  1.00  0.00    -0.385 C  
HETATM    8  C   UNL     1     -13.848  15.326  70.844  1.00  0.00    -0.311 C  
HETATM    9  C   UNL     1     -14.043  14.920  72.303  1.00  0.00    -0.600 C  
HETATM   10  C   UNL     1     -12.998  15.568  73.206  1.00  0.00    -0.654 C  
HETATM   11  C   UNL     1     -11.574  15.310  72.723  1.00  0.00    -0.439 C  
HETATM   12  C   UNL     1     -11.394  15.678  71.251  1.00  0.00    -0.451 C  
ENDBRANCH   6   7
ENDBRANCH   4   6
ENDBRANCH   2   4
TORSDOF 3
ENDMDL
MODEL        5
REMARK 921   NORMALIZED FREE ENERGY PREDICTED BY IDOCK:   -4.15 KCAL/MOL
REMARK 922        TOTAL FREE ENERGY PREDICTED BY IDOCK:   -4.94 KCAL/MOL
REMARK 923 INTER-LIGAND FREE ENERGY PREDICTED BY IDOCK:   -4.66 KCAL/MOL
REMARK 924 INTRA-LIGAND FREE ENERGY PREDICTED BY IDOCK:   -0.28 KCAL/MOL
REMARK 927      BINDING AFFINITY PREDICTED BY RF-SCORE:    0.00 PKD
ROOT
HETATM    1  C   UNL     1      -9.083  11.066  62.442  1.00  0.00    -0.281 C  
HETATM    2  N   UNL     1     -10.505  10.902  62.719  1.00  0.00    -0.781 NA 
HETATM    3  H   UNL     1     -10.795   9.938  62.557  1.00  0.00     0.000 HD 
ENDROOT
BRANCH   2   4
HETATM    4  C   UNL     1     -10.895  11.343  64.067  1.00  0.00    -0.383 C  
HETATM    5  C   UNL     1     -10.241  10.489  65.161  1.00  0.00    -0.358 C  
BRANCH   4   6
HETATM    6  C   UNL     1     -10.487  12.823  64.274  1.00  0.00    -0.423 C  
BRANCH   6   7
HETATM    7  C   UNL     1     -11.653  13.833  64.446  1.00  0.00    -0.418 C  
HETATM    8  C   UNL     1     -12.652  13.433  65.542  1.00  0.00    -0.520 C  
HETATM    9  C   UNL     1     -12.062  13.547  66.946  1.00  0.00    -0.417 C  
HETATM   10  C   UNL     1     -11.522  14.949  67.212  1.00  0.00    -0.350 C  
HETATM   11  C   UNL     1     -10.541  15.406  66.136  1.00  0.00    -0.321 C  
HETATM   12  C   UNL     1     -11.119  15.250  64.731  1.00  0.00    -0.407 C  
ENDBRANCH   6   7
ENDBRANCH   4   6
ENDBRANCH   2   4
TORSDOF 3
ENDMDL
MODEL        6
REMARK 921   NORMALIZED FREE ENERGY PREDICTED BY IDOCK:   -4.10 KCAL/MOL
REMARK 922        TOTAL FREE ENERGY PREDICTED BY IDOCK:   -4.88 KCAL/MOL
REMARK 923 INTER-LIGAND FREE ENERGY PREDICTED BY IDOCK:   -4.66 KCAL/MOL
REMARK 924 INTRA-LIGAND FREE ENERGY PREDICTED BY IDOCK:   -0.22 KCAL/MOL
REMARK 927      BINDING AFFINITY PREDICTED BY RF-SCORE:    0.00 PKD
ROOT
HETATM    1  C   UNL     1     -11.913  14.144  67.052  1.00  0.00    -0.439 C  
HETATM    2  N   UNL     1     -11.197  15.396  67.262  1.00  0.00    -0.308 NA 
HETATM    3  H   UNL     1     -11.737  16.185  66.905  1.00  0.00     0.000 HD 
ENDROOT
BRANCH   2   4
HETATM    4  C   UNL     1     -10.809  15.624  68.663  1.00  0.00    -0.273 C  
HETATM    5  C   UNL     1     -10.084  16.962  68.846  1.00  0.00    -0.297 C  
BRANCH   4   6
HETATM    6  C   UNL     1     -12.069  15.607  69.566  1.00  0.00    -0.307 C  
BRANCH   6   7
HETATM    7  C   UNL     1     -12.057  14.582  70.731  1.00  0.00    -0.398 C  
HETATM    8  C   UNL     1     -11.358  15.103  71.997  1.00  0.00    -0.358 C  
HETATM    9  C   UNL     1     -12.150  16.209  72.693  1.00  0.00    -0.652 C  
HETATM   10  C   UNL     1     -13.569  15.755  73.023  1.00  0.00    -0.638 C  
HETATM   11  C   UNL     1     -14.300  15.205  71.802  1.00  0.00    -0.696 C  
HETATM   12  C   UNL     1     -13.487  14.130  71.084  1.00  0.00    -0.293 C  
ENDBRANCH   6   7
ENDBRANCH   4   6
ENDBRANCH   2   4
TORSDOF 3
ENDMDL
MODEL        7
REMARK 921   NORMALIZED FREE ENERGY PREDICTED BY IDOCK:   -4.10 KCAL/MOL
REMARK 922        TOTAL FREE ENERGY PREDICTED BY IDOCK:   -4.88 KCAL/MOL
REMARK 923 INTER-LIGAND FREE ENERGY PREDICTED BY IDOCK:   -4.61 KCAL/MOL
REMARK 924 INTRA-LIGAND FREE ENERGY PREDICTED BY IDOCK:   -0.27 KCAL/MOL
REMARK 927      BINDING AFFINITY PREDICTED BY RF-SCORE:    0.00 PKD
ROOT
HETATM    1  C   UNL     1      -8.915  15.804  69.147  1.00  0.00    -0.256 C  
HETATM    2  N   UNL     1      -9.651  14.546  69.173  1.00  0.00    -0.392 NA 
HETATM    3  H   UNL     1      -9.630  14.135  70.106  1.00  0.00     0.000 HD 
ENDROOT
BRANCH   2   4
HETATM    4  C   UNL     1     -11.035  14.665  68.687  1.00  0.00    -0.256 C  
HETATM    5  C   UNL     1     -11.599  13.314  68.231  1.00  0.00    -0.369 C  
BRANCH   4   6
HETATM    6  C   UNL     1     -11.938  15.233  69.811  1.00  0.00    -0.374 C  
BRANCH   6   7
HETATM    7  C   UNL     1     -11.943  14.442  71.146  1.00  0.00    -0.383 C  
HETATM    8  C   UNL     1     -11.348  15.227  72.326  1.00  0.00    -0.393 C  
HETATM    9  C   UNL     1     -12.234  16.391  72.764  1.00  0.00    -0.516 C  
HETATM   10  C   UNL     1     -13.646  15.921  73.103  1.00  0.00    -0.580 C  
HETATM   11  C   UNL     1     -14.275  15.114  71.971  1.00  0.00    -0.673 C  
HETATM   12  C   UNL     1     -13.367  13.977  71.507  1.00  0.00    -0.422 C  
ENDBRANCH   6   7
ENDBRANCH   4   6
ENDBRANCH   2   4
TORSDOF 3
ENDMDL
MODEL        8
REMARK 921   NORMALIZED FREE ENERGY PREDICTED BY IDOCK:   -4.06 KCAL/MOL
REMARK 922        TOTAL FREE ENERGY PREDICTED BY IDOCK:   -4.84 KCAL/MOL
REMARK 923 INTER-LIGAND FREE ENERGY PREDICTED BY IDOCK:   -4.57 KCAL/MOL
REMARK 924 INTRA-LIGAND FREE ENERGY PREDICTED BY IDOCK:   -0.27 KCAL/MOL
REMARK 927      BINDING AFFINITY PREDICTED BY RF-SCORE:    0.00 PKD
ROOT
HETATM    1  C   UNL     1     -11.050  10.635  67.586  1.00  0.00    -0.319 C  
HETATM    2  N   UNL     1     -12.157  10.902  68.497  1.00  0.00    -0.812 NA 
HETATM    3  H   UNL     1     -12.831  10.137  68.479  1.00  0.00     0.000 HD 
ENDROOT
BRANCH   2   4
HETATM    4  C   UNL     1     -11.728  11.185  69.875  1.00  0.00    -0.355 C  
HETATM    5  C   UNL     1     -12.122  12.600  70.318  1.00  0.00    -0.372 C  
BRANCH   4   6
HETATM    6  C   UNL     1     -12.366  10.159  70.845  1.00  0.00    -0.461 C  
BRANCH   6   7
HETATM    7  C   UNL     1     -11.376   9.317  71.694  1.00  0.00    -0.467 C  
HETATM    8  C   UNL     1     -12.032   8.109  72.380  1.00  0.00    -0.431 C  
HETATM    9  C   UNL     1     -12.444   7.021  71.390  1.00  0.00    -0.426 C  
HETATM   10  C   UNL     1     -11.261   6.566  70.539  1.00  0.00    -0.401 C  
HETATM   11  C   UNL     1     -10.558   7.733  69.852  1.00  0.00    -0.239 C  
HETATM   12  C   UNL     1     -10.187   8.837  70.840  1.00  0.00    -0.284 C  
ENDBRANCH   6   7
ENDBRANCH   4   6
ENDBRANCH   2   4
TORSDOF 3
ENDMDL
MODEL        9
REMARK 921   NORMALIZED FREE ENERGY PREDICTED BY IDOCK:   -4.05 KCAL/MOL
REMARK 922        TOTAL FREE ENERGY PREDICTED BY IDOCK:   -4.83 KCAL/MOL
REMARK 923 INTER-LIGAND FREE ENERGY PREDICTED BY IDOCK:   -4.57 KCAL/MOL
REMARK 924 INTRA-LIGAND FREE ENERGY PREDICTED BY IDOCK:   -0.26 KCAL/MOL
REMARK 927      BINDING AFFINITY PREDICTED BY RF-SCORE:    0.00 PKD
ROOT
HETATM    1  C   UNL     1     -10.646   9.391  67.937  1.00  0.00    -0.237 C  
HETATM    2  N   UNL     1     -11.709  10.356  68.189  1.00  0.00    -0.743 NA 
HETATM    3  H   UNL     1     -12.621   9.950  67.981  1.00  0.00     0.000 HD 
ENDROOT
BRANCH   2   4
HETATM    4  C   UNL     1     -11.686  10.913  69.550  1.00  0.00    -0.328 C  
HETATM    5  C   UNL     1     -11.699  12.447  69.541  1.00  0.00    -0.388 C  
BRANCH   4   6
HETATM    6  C   UNL     1     -12.915  10.404  70.346  1.00  0.00    -0.188 C  
BRANCH   6   7
HETATM    7  C   UNL     1     -12.629   9.887  71.781  1.00  0.00    -0.506 C  
HETATM    8  C   UNL     1     -13.779   9.055  72.371  1.00  0.00    -0.539 C  
HETATM    9  C   UNL     1     -13.939   7.700  71.683  1.00  0.00    -0.510 C  
HETATM   10  C   UNL     1     -12.639   6.902  71.716  1.00  0.00    -0.386 C  
HETATM   11  C   UNL     1     -11.458   7.693  71.162  1.00  0.00    -0.296 C  
HETATM   12  C   UNL     1     -11.328   9.064  71.823  1.00  0.00    -0.447 C  
ENDBRANCH   6   7
ENDBRANCH   4   6
ENDBRANCH   2   4
TORSDOF 3
ENDMDL
MODEL       10
REMARK 921   NORMALIZED FREE ENERGY PREDICTED BY IDOCK:   -4.04 KCAL/MOL
REMARK 922        TOTAL FREE ENERGY PREDICTED BY IDOCK:   -4.81 KCAL/MOL
REMARK 923 INTER-LIGAND FREE ENERGY PREDICTED BY IDOCK:   -4.60 KCAL/MOL
REMARK 924 INTRA-LIGAND FREE ENERGY PREDICTED BY IDOCK:   -0.21 KCAL/MOL
REMARK 927      BINDING AFFINITY PREDICTED BY RF-SCORE:    0.00 PKD
ROOT
HETATM    1  C   UNL     1     -12.163  15.147  64.239  1.00  0.00    -0.240 C  
HETATM    2  N   UNL     1     -11.137  16.173  64.376  1.00  0.00    -1.052 NA 
HETATM    3  H   UNL     1     -11.480  17.073  64.042  1.00  0.00     0.000 HD 
ENDROOT
BRANCH   2   4
HETATM    4  C   UNL     1     -10.604  16.293  65.742  1.00  0.00    -0.324 C  
HETATM    5  C   UNL     1      -9.562  15.210  66.048  1.00  0.00    -0.365 C  
BRANCH   4   6
HETATM    6  C   UNL     1      -9.951  17.686  65.930  1.00  0.00    -0.139 C  
BRANCH   6   7
HETATM    7  C   UNL     1     -10.469  18.524  67.129  1.00  0.00    -0.446 C  
HETATM    8  C   UNL     1      -9.918  18.056  68.485  1.00  0.00    -0.395 C  
HETATM    9  C   UNL     1      -8.427  18.349  68.647  1.00  0.00    -0.318 C  
HETATM   10  C   UNL     1      -8.124  19.829  68.438  1.00  0.00    -0.305 C  
HETATM   11  C   UNL     1      -8.672  20.352  67.113  1.00  0.00    -0.413 C  
HETATM   12  C   UNL     1     -10.152  20.019  66.936  1.00  0.00    -0.601 C  
ENDBRANCH   6   7
ENDBRANCH   4   6
ENDBRANCH   2   4
TORSDOF 3
ENDMDL
MODEL       11
REMARK 921   NORMALIZED FREE ENERGY PREDICTED BY IDOCK:   -4.03 KCAL/MOL
REMARK 922        TOTAL FREE ENERGY PREDICTED BY IDOCK:   -4.80 KCAL/MOL
REMARK 923 INTER-LIGAND FREE ENERGY PREDICTED BY IDOCK:   -4.62 KCAL/MOL
REMARK 924 INTRA-LIGAND FREE ENERGY PREDICTED BY IDOCK:   -0.18 KCAL/MOL
REMARK 927      BINDING AFFINITY PREDICTED BY RF-SCORE:    0.00 PKD
ROOT
HETATM    1  C   UNL     1     -12.327  12.456  63.333  1.00  0.00    -0.499 C  
HETATM    2  N   UNL     1     -12.240  13.907  63.444  1.00  0.00    -1.102 NA 
HETATM    3  H   UNL     1     -12.986  14.355  62.912  1.00  0.00     0.000 HD 
ENDROOT
BRANCH   2   4
HETATM    4  C   UNL     1     -12.229  14.390  64.834  1.00  0.00    -0.433 C  
HETATM    5  C   UNL     1     -12.165  13.235  65.841  1.00  0.00    -0.497 C  
BRANCH   4   6
HETATM    6  C   UNL     1     -11.009  15.319  65.057  1.00  0.00    -0.450 C  
BRANCH   6   7
HETATM    7  C   UNL     1     -10.350  15.253  66.460  1.00  0.00    -0.289 C  
HETATM    8  C   UNL     1      -8.830  15.481  66.434  1.00  0.00    -0.359 C  
HETATM    9  C   UNL     1      -8.458  16.922  66.092  1.00  0.00    -0.281 C  
HETATM   10  C   UNL     1      -9.124  17.912  67.044  1.00  0.00    -0.256 C  
HETATM   11  C   UNL     1     -10.634  17.712  67.125  1.00  0.00    -0.277 C  
HETATM   12  C   UNL     1     -11.003  16.260  67.425  1.00  0.00    -0.175 C  
ENDBRANCH   6   7
ENDBRANCH   4   6
ENDBRANCH   2   4
TORSDOF 3
ENDMDL
MODEL       12
REMARK 921   NORMALIZED FREE ENERGY PREDICTED BY IDOCK:   -4.02 KCAL/MOL
REMARK 922        TOTAL FREE ENERGY PREDICTED BY IDOCK:   -4.78 KCAL/MOL
REMARK 923 INTER-LIGAND FREE ENERGY PREDICTED BY IDOCK:   -4.58 KCAL/MOL
REMARK 924 INTRA-LIGAND FREE ENERGY PREDICTED BY IDOCK:   -0.20 KCAL/MOL
REMARK 927      BINDING AFFINITY PREDICTED BY RF-SCORE:    0.00 PKD
ROOT
HETATM    1  C   UNL     1      -9.705  10.484  63.648  1.00  0.00    -0.318 C  
HETATM    2  N   UNL     1     -10.085  11.692  62.927  1.00  0.00    -0.629 NA 
HETATM    3  H   UNL     1     -10.465  11.460  62.010  1.00  0.00     0.000 HD 
ENDROOT
BRANCH   2   4
HETATM    4  C   UNL     1     -11.016  12.553  63.673  1.00  0.00    -0.456 C  
HETATM    5  C   UNL     1     -12.474  12.111  63.493  1.00  0.00    -0.666 C  
BRANCH   4   6
HETATM    6  C   UNL     1     -10.665  12.521  65.183  1.00  0.00    -0.323 C  
BRANCH   6   7
HETATM    7  C   UNL     1     -11.860  12.665  66.163  1.00  0.00    -0.477 C  
HETATM    8  C   UNL     1     -11.648  11.934  67.497  1.00  0.00    -0.374 C  
HETATM    9  C   UNL     1     -10.578  12.593  68.366  1.00  0.00    -0.258 C  
HETATM   10  C   UNL     1     -10.893  14.065  68.616  1.00  0.00    -0.272 C  
HETATM   11  C   UNL     1     -11.136  14.834  67.321  1.00  0.00    -0.334 C  
HETATM   12  C   UNL     1     -12.175  14.148  66.436  1.00  0.00    -0.473 C  
ENDBRANCH   6   7
ENDBRANCH   4   6
ENDBRANCH   2   4
TORSDOF 3
ENDMDL
MODEL       13
REMARK 921   NORMALIZED FREE ENERGY PREDICTED BY IDOCK:   -4.01 KCAL/MOL
REMARK 922        TOTAL FREE ENERGY PREDICTED BY IDOCK:   -4.77 KCAL/MOL
REMARK 923 INTER-LIGAND FREE ENERGY PREDICTED BY IDOCK:   -4.55 KCAL/MOL
REMARK 924 INTRA-LIGAND FREE ENERGY PREDICTED BY IDOCK:   -0.23 KCAL/MOL
REMARK 927      BINDING AFFINITY PREDICTED BY RF-SCORE:    0.00 PKD
ROOT
HETATM    1  C   UNL     1     -11.586  15.660  69.490  1.00  0.00    -0.357 C  
HETATM    2  N   UNL     1     -12.405  15.035  68.459  1.00  0.00    -0.579 NA 
HETATM    3  H   UNL     1     -12.682  15.719  67.755  1.00  0.00     0.000 HD 
ENDROOT
BRANCH   2   4
HETATM    4  C   UNL     1     -11.767  13.869  67.829  1.00  0.00    -0.366 C  
HETATM    5  C   UNL     1     -11.907  12.606  68.688  1.00  0.00    -0.342 C  
BRANCH   4   6
HETATM    6  C   UNL     1     -12.407  13.607  66.442  1.00  0.00    -0.441 C  
BRANCH   6   7
HETATM    7  C   UNL     1     -11.654  14.201  65.222  1.00  0.00    -0.341 C  
HETATM    8  C   UNL     1     -10.190  13.744  65.124  1.00  0.00    -0.367 C  
HETATM    9  C   UNL     1     -10.059  12.267  64.757  1.00  0.00    -0.271 C  
HETATM   10  C   UNL     1     -10.799  11.946  63.462  1.00  0.00    -0.502 C  
HETATM   11  C   UNL     1     -12.255  12.402  63.498  1.00  0.00    -0.661 C  
HETATM   12  C   UNL     1     -12.384  13.868  63.906  1.00  0.00    -0.323 C  
ENDBRANCH   6   7
ENDBRANCH   4   6
ENDBRANCH   2   4
TORSDOF 3
ENDMDL
MODEL       14
REMARK 921   NORMALIZED FREE ENERGY PREDICTED BY IDOCK:   -3.99 KCAL/MOL
REMARK 922        TOTAL FREE ENERGY PREDICTED BY IDOCK:   -4.76 KCAL/MOL
REMARK 923 INTER-LIGAND FREE ENERGY PREDICTED BY IDOCK:   -4.50 KCAL/MOL
REMARK 924 INTRA-LIGAND FREE ENERGY PREDICTED BY IDOCK:   -0.26 KCAL/MOL
REMARK 927      BINDING AFFINITY PREDICTED BY RF-SCORE:    0.00 PKD
ROOT
HETATM    1  C   UNL     1     -12.527  12.200  63.554  1.00  0.00    -0.555 C  
HETATM    2  N   UNL     1     -12.300  13.619  63.312  1.00  0.00    -1.080 NA 
HETATM    3  H   UNL     1     -13.167  14.081  63.037  1.00  0.00     0.000 HD 
ENDROOT
BRANCH   2   4
HETATM    4  C   UNL     1     -11.676  14.316  64.448  1.00  0.00    -0.389 C  
HETATM    5  C   UNL     1     -11.904  15.831  64.384  1.00  0.00    -0.148 C  
BRANCH   4   6
HETATM    6  C   UNL     1     -12.258  13.776  65.779  1.00  0.00    -0.495 C  
BRANCH   6   7
HETATM    7  C   UNL     1     -11.291  13.772  66.992  1.00  0.00    -0.345 C  
HETATM    8  C   UNL     1     -11.736  12.836  68.127  1.00  0.00    -0.392 C  
HETATM    9  C   UNL     1     -11.616  11.360  67.754  1.00  0.00    -0.325 C  
HETATM   10  C   UNL     1     -10.198  11.012  67.309  1.00  0.00    -0.234 C  
HETATM   11  C   UNL     1      -9.697  11.929  66.197  1.00  0.00    -0.251 C  
HETATM   12  C   UNL     1      -9.860  13.405  66.557  1.00  0.00    -0.286 C  
ENDBRANCH   6   7
ENDBRANCH   4   6
ENDBRANCH   2   4
TORSDOF 3
ENDMDL
MODEL       15
REMARK 921   NORMALIZED FREE ENERGY PREDICTED BY IDOCK:   -3.98 KCAL/MOL
REMARK 922        TOTAL FREE ENERGY PREDICTED BY IDOCK:   -4.74 KCAL/MOL
REMARK 923 INTER-LIGAND FREE ENERGY PREDICTED BY IDOCK:   -4.53 KCAL/MOL
REMARK 924 INTRA-LIGAND FREE ENERGY PREDICTED BY IDOCK:   -0.21 KCAL/MOL
REMARK 927      BINDING AFFINITY PREDICTED BY RF-SCORE:    0.00 PKD
ROOT
HETATM    1  C   UNL     1     -12.410  12.405  63.467  1.00  0.00    -0.546 C  
HETATM    2  N   UNL     1     -12.276  13.845  63.652  1.00  0.00    -0.971 NA 
HETATM    3  H   UNL     1     -13.188  14.274  63.810  1.00  0.00     0.000 HD 
ENDROOT
BRANCH   2   4
HETATM    4  C   UNL     1     -11.335  14.215  64.720  1.00  0.00    -0.371 C  
HETATM    5  C   UNL     1     -11.273  15.733  64.929  1.00  0.00    -0.358 C  
BRANCH   4   6
HETATM    6  C   UNL     1     -11.760  13.541  66.050  1.00  0.00    -0.389 C  
BRANCH   6   7
HETATM    7  C   UNL     1     -10.606  13.116  66.997  1.00  0.00    -0.259 C  
HETATM    8  C   UNL     1     -10.503  13.980  68.263  1.00  0.00    -0.245 C  
HETATM    9  C   UNL     1     -11.665  13.752  69.227  1.00  0.00    -0.376 C  
HETATM   10  C   UNL     1     -11.796  12.280  69.604  1.00  0.00    -0.393 C  
HETATM   11  C   UNL     1     -11.878  11.373  68.380  1.00  0.00    -0.344 C  
HETATM   12  C   UNL     1     -10.737  11.634  67.398  1.00  0.00    -0.277 C  
ENDBRANCH   6   7
ENDBRANCH   4   6
ENDBRANCH   2   4
TORSDOF 3
ENDMDL
MODEL       16
REMARK 921   NORMALIZED FREE ENERGY PREDICTED BY IDOCK:   -3.97 KCAL/MOL
REMARK 922        TOTAL FREE ENERGY PREDICTED BY IDOCK:   -4.73 KCAL/MOL
REMARK 923 INTER-LIGAND FREE ENERGY PREDICTED BY IDOCK:   -4.45 KCAL/MOL
REMARK 924 INTRA-LIGAND FREE ENERGY PREDICTED BY IDOCK:   -0.28 KCAL/MOL
REMARK 927      BINDING AFFINITY PREDICTED BY RF-SCORE:    0.00 PKD
ROOT
HETATM    1  C   UNL     1     -11.936  13.824  69.602  1.00  0.00    -0.342 C  
HETATM    2  N   UNL     1     -12.397  14.271  68.294  1.00  0.00    -0.580 NA 
HETATM    3  H   UNL     1     -13.188  14.907  68.388  1.00  0.00     0.000 HD 
ENDROOT
BRANCH   2   4
HETATM    4  C   UNL     1     -11.337  14.876  67.472  1.00  0.00    -0.342 C  
HETATM    5  C   UNL     1      -9.954  14.718  68.114  1.00  0.00    -0.221 C  
BRANCH   4   6
HETATM    6  C   UNL     1     -11.319  14.215  66.070  1.00  0.00    -0.330 C  
BRANCH   6   7
HETATM    7  C   UNL     1     -12.012  12.831  65.961  1.00  0.00    -0.491 C  
HETATM    8  C   UNL     1     -12.743  12.616  64.626  1.00  0.00    -0.458 C  
HETATM    9  C   UNL     1     -11.783  12.468  63.447  1.00  0.00    -0.567 C  
HETATM   10  C   UNL     1     -10.778  11.345  63.684  1.00  0.00    -0.470 C  
HETATM   11  C   UNL     1     -10.040  11.498  65.011  1.00  0.00    -0.315 C  
HETATM   12  C   UNL     1     -11.002  11.689  66.182  1.00  0.00    -0.339 C  
ENDBRANCH   6   7
ENDBRANCH   4   6
ENDBRANCH   2   4
TORSDOF 3
ENDMDL
MODEL       17
REMARK 921   NORMALIZED FREE ENERGY PREDICTED BY IDOCK:   -3.96 KCAL/MOL
REMARK 922        TOTAL FREE ENERGY PREDICTED BY IDOCK:   -4.72 KCAL/MOL
REMARK 923 INTER-LIGAND FREE ENERGY PREDICTED BY IDOCK:   -4.46 KCAL/MOL
REMARK 924 INTRA-LIGAND FREE ENERGY PREDICTED BY IDOCK:   -0.25 KCAL/MOL
REMARK 927      BINDING AFFINITY PREDICTED BY RF-SCORE:    0.00 PKD
ROOT
HETATM    1  C   UNL     1      -9.126  10.262  63.265  1.00  0.00    -0.265 C  
HETATM    2  N   UNL     1     -10.318  10.891  62.711  1.00  0.00    -0.783 NA 
HETATM    3  H   UNL     1     -10.981  10.186  62.388  1.00  0.00     0.000 HD 
ENDROOT
BRANCH   2   4
HETATM    4  C   UNL     1     -10.969  11.833  63.634  1.00  0.00    -0.439 C  
HETATM    5  C   UNL     1     -12.470  11.971  63.349  1.00  0.00    -0.625 C  
BRANCH   4   6
HETATM    6  C   UNL     1     -10.777  11.353  65.095  1.00  0.00    -0.332 C  
BRANCH   6   7
HETATM    7  C   UNL     1     -10.034  12.333  66.042  1.00  0.00    -0.270 C  
HETATM    8  C   UNL     1     -10.518  13.786  65.920  1.00  0.00    -0.300 C  
HETATM    9  C   UNL     1     -11.928  13.985  66.472  1.00  0.00    -0.470 C  
HETATM   10  C   UNL     1     -12.032  13.515  67.919  1.00  0.00    -0.372 C  
HETATM   11  C   UNL     1     -11.540  12.081  68.100  1.00  0.00    -0.403 C  
HETATM   12  C   UNL     1     -10.147  11.877  67.509  1.00  0.00    -0.206 C  
ENDBRANCH   6   7
ENDBRANCH   4   6
ENDBRANCH   2   4
TORSDOF 3
ENDMDL
MODEL       18
REMARK 921   NORMALIZED FREE ENERGY PREDICTED BY IDOCK:   -3.94 KCAL/MOL
REMARK 922        TOTAL FREE ENERGY PREDICTED BY IDOCK:   -4.70 KCAL/MOL
REMARK 923 INTER-LIGAND FREE ENERGY PREDICTED BY IDOCK:   -4.46 KCAL/MOL
REMARK 924 INTRA-LIGAND FREE ENERGY PREDICTED BY IDOCK:   -0.24 KCAL/MOL
REMARK 927      BINDING AFFINITY PREDICTED BY RF-SCORE:    0.00 PKD
ROOT
HETATM    1  C   UNL     1     -12.470  12.313  63.397  1.00  0.00    -0.481 C  
HETATM    2  N   UNL     1     -12.362  13.765  63.334  1.00  0.00    -1.100 NA 
HETATM    3  H   UNL     1     -13.284  14.192  63.242  1.00  0.00     0.000 HD 
ENDROOT
BRANCH   2   4
HETATM    4  C   UNL     1     -11.629  14.350  64.468  1.00  0.00    -0.384 C  
HETATM    5  C   UNL     1     -11.655  15.883  64.437  1.00  0.00    -0.234 C  
BRANCH   4   6
HETATM    6  C   UNL     1     -12.251  13.863  65.801  1.00  0.00    -0.488 C  
BRANCH   6   7
HETATM    7  C   UNL     1     -11.349  12.960  66.684  1.00  0.00    -0.361 C  
HETATM    8  C   UNL     1      -9.910  13.481  66.821  1.00  0.00    -0.267 C  
HETATM    9  C   UNL     1      -9.823  14.755  67.660  1.00  0.00    -0.218 C  
HETATM   10  C   UNL     1     -10.446  14.558  69.039  1.00  0.00    -0.241 C  
HETATM   11  C   UNL     1     -11.871  14.017  68.959  1.00  0.00    -0.391 C  
HETATM   12  C   UNL     1     -11.960  12.768  68.085  1.00  0.00    -0.295 C  
ENDBRANCH   6   7
ENDBRANCH   4   6
ENDBRANCH   2   4
TORSDOF 3
ENDMDL
MODEL       19
REMARK 921   NORMALIZED FREE ENERGY PREDICTED BY IDOCK:   -3.94 KCAL/MOL
REMARK 922        TOTAL FREE ENERGY PREDICTED BY IDOCK:   -4.69 KCAL/MOL
REMARK 923 INTER-LIGAND FREE ENERGY PREDICTED BY IDOCK:   -4.47 KCAL/MOL
REMARK 924 INTRA-LIGAND FREE ENERGY PREDICTED BY IDOCK:   -0.22 KCAL/MOL
REMARK 927      BINDING AFFINITY PREDICTED BY RF-SCORE:    0.00 PKD
ROOT
HETATM    1  C   UNL     1     -12.123  11.433  69.966  1.00  0.00    -0.340 C  
HETATM    2  N   UNL     1     -12.158  10.876  68.620  1.00  0.00    -0.796 NA 
HETATM    3  H   UNL     1     -13.005  11.166  68.131  1.00  0.00     0.000 HD 
ENDROOT
BRANCH   2   4
HETATM    4  C   UNL     1     -10.963  11.192  67.822  1.00  0.00    -0.262 C  
HETATM    5  C   UNL     1     -10.207   9.928  67.396  1.00  0.00    -0.275 C  
BRANCH   4   6
HETATM    6  C   UNL     1     -11.373  11.984  66.554  1.00  0.00    -0.413 C  
BRANCH   6   7
HETATM    7  C   UNL     1     -12.159  13.300  66.799  1.00  0.00    -0.403 C  
HETATM    8  C   UNL     1     -11.389  14.325  67.646  1.00  0.00    -0.344 C  
HETATM    9  C   UNL     1     -10.196  14.924  66.904  1.00  0.00    -0.254 C  
HETATM   10  C   UNL     1     -10.621  15.549  65.579  1.00  0.00    -0.413 C  
HETATM   11  C   UNL     1     -11.412  14.578  64.707  1.00  0.00    -0.408 C  
HETATM   12  C   UNL     1     -12.578  13.949  65.466  1.00  0.00    -0.560 C  
ENDBRANCH   6   7
ENDBRANCH   4   6
ENDBRANCH   2   4
TORSDOF 3
ENDMDL
MODEL       20
REMARK 921   NORMALIZED FREE ENERGY PREDICTED BY IDOCK:   -3.90 KCAL/MOL
REMARK 922        TOTAL FREE ENERGY PREDICTED BY IDOCK:   -4.65 KCAL/MOL
REMARK 923 INTER-LIGAND FREE ENERGY PREDICTED BY IDOCK:   -4.43 KCAL/MOL
REMARK 924 INTRA-LIGAND FREE ENERGY PREDICTED BY IDOCK:   -0.22 KCAL/MOL
REMARK 927      BINDING AFFINITY PREDICTED BY RF-SCORE:    0.00 PKD
ROOT
HETATM    1  C   UNL     1     -12.265  11.345  70.580  1.00  0.00    -0.389 C  
HETATM    2  N   UNL     1     -11.291  12.043  69.751  1.00  0.00    -0.490 NA 
HETATM    3  H   UNL     1     -10.692  11.378  69.261  1.00  0.00     0.000 HD 
ENDROOT
BRANCH   2   4
HETATM    4  C   UNL     1     -11.898  12.992  68.804  1.00  0.00    -0.317 C  
HETATM    5  C   UNL     1     -11.312  14.401  68.951  1.00  0.00    -0.300 C  
BRANCH   4   6
HETATM    6  C   UNL     1     -11.670  12.501  67.351  1.00  0.00    -0.432 C  
BRANCH   6   7
HETATM    7  C   UNL     1     -11.474  13.609  66.282  1.00  0.00    -0.352 C  
HETATM    8  C   UNL     1     -10.196  13.434  65.448  1.00  0.00    -0.311 C  
HETATM    9  C   UNL     1     -10.268  12.236  64.503  1.00  0.00    -0.322 C  
HETATM   10  C   UNL     1     -11.487  12.320  63.589  1.00  0.00    -0.572 C  
HETATM   11  C   UNL     1     -12.784  12.518  64.368  1.00  0.00    -0.447 C  
HETATM   12  C   UNL     1     -12.692  13.691  65.342  1.00  0.00    -0.500 C  
ENDBRANCH   6   7
ENDBRANCH   4   6
ENDBRANCH   2   4
TORSDOF 3
ENDMDL
MODEL       21
REMARK 921   NORMALIZED FREE ENERGY PREDICTED BY IDOCK:   -3.86 KCAL/MOL
REMARK 922        TOTAL FREE ENERGY PREDICTED BY IDOCK:   -4.61 KCAL/MOL
REMARK 923 INTER-LIGAND FREE ENERGY PREDICTED BY IDOCK:   -4.33 KCAL/MOL
REMARK 924 INTRA-LIGAND FREE ENERGY PREDICTED BY IDOCK:   -0.28 KCAL/MOL
REMARK 927      BINDING AFFINITY PREDICTED BY RF-SCORE:    0.00 PKD
ROOT
HETATM    1  C   UNL     1     -14.277  14.240  71.927  1.00  0.00    -0.510 C  
HETATM    2  N   UNL     1     -14.109  15.390  71.049  1.00  0.00    -0.836 NA 
HETATM    3  H   UNL     1     -14.585  16.207  71.430  1.00  0.00     0.000 HD 
ENDROOT
BRANCH   2   4
HETATM    4  C   UNL     1     -12.703  15.701  70.749  1.00  0.00    -0.431 C  
HETATM    5  C   UNL     1     -11.859  15.826  72.023  1.00  0.00    -0.582 C  
BRANCH   4   6
HETATM    6  C   UNL     1     -12.099  14.588  69.854  1.00  0.00    -0.389 C  
BRANCH   6   7
HETATM    7  C   UNL     1     -11.782  14.989  68.389  1.00  0.00    -0.341 C  
HETATM    8  C   UNL     1     -11.005  16.310  68.271  1.00  0.00    -0.348 C  
HETATM    9  C   UNL     1      -9.569  16.195  68.776  1.00  0.00    -0.235 C  
HETATM   10  C   UNL     1      -8.815  15.075  68.065  1.00  0.00    -0.165 C  
HETATM   11  C   UNL     1      -9.557  13.743  68.132  1.00  0.00    -0.216 C  
HETATM   12  C   UNL     1     -11.006  13.872  67.666  1.00  0.00    -0.278 C  
ENDBRANCH   6   7
ENDBRANCH   4   6
ENDBRANCH   2   4
TORSDOF 3
ENDMDL
MODEL       22
REMARK 921   NORMALIZED FREE ENERGY PREDICTED BY IDOCK:   -3.86 KCAL/MOL
REMARK 922        TOTAL FREE ENERGY PREDICTED BY IDOCK:   -4.60 KCAL/MOL
REMARK 923 INTER-LIGAND FREE ENERGY PREDICTED BY IDOCK:   -4.34 KCAL/MOL
REMARK 924 INTRA-LIGAND FREE ENERGY PREDICTED BY IDOCK:   -0.26 KCAL/MOL
REMARK 927      BINDING AFFINITY PREDICTED BY RF-SCORE:    0.00 PKD
ROOT
HETATM    1  C   UNL     1     -11.390  14.819  66.499  1.00  0.00    -0.344 C  
HETATM    2  N   UNL     1     -11.664  15.090  67.905  1.00  0.00    -0.404 NA 
HETATM    3  H   UNL     1     -11.612  14.233  68.454  1.00  0.00     0.000 HD 
ENDROOT
BRANCH   2   4
HETATM    4  C   UNL     1     -10.798  16.131  68.482  1.00  0.00    -0.313 C  
HETATM    5  C   UNL     1      -9.523  15.540  69.096  1.00  0.00    -0.246 C  
BRANCH   4   6
HETATM    6  C   UNL     1     -10.401  17.151  67.384  1.00  0.00    -0.333 C  
BRANCH   6   7
HETATM    7  C   UNL     1     -10.778  18.630  67.661  1.00  0.00    -0.428 C  
HETATM    8  C   UNL     1     -10.015  19.245  68.845  1.00  0.00    -0.495 C  
HETATM    9  C   UNL     1      -8.533  19.455  68.544  1.00  0.00    -0.397 C  
HETATM   10  C   UNL     1      -8.333  20.303  67.291  1.00  0.00    -0.404 C  
HETATM   11  C   UNL     1      -9.091  19.748  66.089  1.00  0.00    -0.403 C  
HETATM   12  C   UNL     1     -10.564  19.499  66.407  1.00  0.00    -0.571 C  
ENDBRANCH   6   7
ENDBRANCH   4   6
ENDBRANCH   2   4
TORSDOF 3
ENDMDL
MODEL       23
REMARK 921   NORMALIZED FREE ENERGY PREDICTED BY IDOCK:   -3.85 KCAL/MOL
REMARK 922        TOTAL FREE ENERGY PREDICTED BY IDOCK:   -4.59 KCAL/MOL
REMARK 923 INTER-LIGAND FREE ENERGY PREDICTED BY IDOCK:   -4.38 KCAL/MOL
REMARK 924 INTRA-LIGAND FREE ENERGY PREDICTED BY IDOCK:   -0.21 KCAL/MOL
REMARK 927      BINDING AFFINITY PREDICTED BY RF-SCORE:    0.00 PKD
ROOT
HETATM    1  C   UNL     1     -10.340  17.395  68.459  1.00  0.00    -0.378 C  
HETATM    2  N   UNL     1     -11.095  16.238  67.995  1.00  0.00    -0.328 NA 
HETATM    3  H   UNL     1     -12.094  16.440  67.984  1.00  0.00     0.000 HD 
ENDROOT
BRANCH   2   4
HETATM    4  C   UNL     1     -10.651  15.734  66.686  1.00  0.00    -0.307 C  
HETATM    5  C   UNL     1      -9.339  16.387  66.235  1.00  0.00    -0.348 C  
BRANCH   4   6
HETATM    6  C   UNL     1     -10.450  14.198  66.757  1.00  0.00    -0.277 C  
BRANCH   6   7
HETATM    7  C   UNL     1     -11.735  13.337  66.634  1.00  0.00    -0.425 C  
HETATM    8  C   UNL     1     -12.701  13.831  65.546  1.00  0.00    -0.530 C  
HETATM    9  C   UNL     1     -12.160  13.609  64.134  1.00  0.00    -0.484 C  
HETATM   10  C   UNL     1     -11.804  12.145  63.898  1.00  0.00    -0.558 C  
HETATM   11  C   UNL     1     -10.863  11.597  64.967  1.00  0.00    -0.346 C  
HETATM   12  C   UNL     1     -11.388  11.859  66.378  1.00  0.00    -0.400 C  
ENDBRANCH   6   7
ENDBRANCH   4   6
ENDBRANCH   2   4
TORSDOF 3
ENDMDL
MODEL       24
REMARK 921   NORMALIZED FREE ENERGY PREDICTED BY IDOCK:   -3.83 KCAL/MOL
REMARK 922        TOTAL FREE ENERGY PREDICTED BY IDOCK:   -4.56 KCAL/MOL
REMARK 923 INTER-LIGAND FREE ENERGY PREDICTED BY IDOCK:   -4.39 KCAL/MOL
REMARK 924 INTRA-LIGAND FREE ENERGY PREDICTED BY IDOCK:   -0.17 KCAL/MOL
REMARK 927      BINDING AFFINITY PREDICTED BY RF-SCORE:    0.00 PKD
ROOT
HETATM    1  C   UNL     1     -12.749  15.413  70.842  1.00  0.00    -0.461 C  
HETATM    2  N   UNL     1     -11.673  16.387  70.714  1.00  0.00    -0.532 NA 
HETATM    3  H   UNL     1     -11.103  16.409  71.560  1.00  0.00     0.000 HD 
ENDROOT
BRANCH   2   4
HETATM    4  C   UNL     1     -10.831  16.180  69.525  1.00  0.00    -0.329 C  
HETATM    5  C   UNL     1     -11.606  15.514  68.383  1.00  0.00    -0.368 C  
BRANCH   4   6
HETATM    6  C   UNL     1     -10.278  17.542  69.030  1.00  0.00    -0.314 C  
BRANCH   6   7
HETATM    7  C   UNL     1     -10.405  17.814  67.508  1.00  0.00    -0.371 C  
HETATM    8  C   UNL     1     -10.820  19.257  67.177  1.00  0.00    -0.543 C  
HETATM    9  C   UNL     1      -9.719  20.271  67.485  1.00  0.00    -0.575 C  
HETATM   10  C   UNL     1      -8.420  19.918  66.767  1.00  0.00    -0.377 C  
HETATM   11  C   UNL     1      -7.975  18.485  67.043  1.00  0.00    -0.243 C  
HETATM   12  C   UNL     1      -9.093  17.478  66.775  1.00  0.00    -0.276 C  
ENDBRANCH   6   7
ENDBRANCH   4   6
ENDBRANCH   2   4
TORSDOF 3
ENDMDL
MODEL       25
REMARK 921   NORMALIZED FREE ENERGY PREDICTED BY IDOCK:   -3.82 KCAL/MOL
REMARK 922        TOTAL FREE ENERGY PREDICTED BY IDOCK:   -4.55 KCAL/MOL
REMARK 923 INTER-LIGAND FREE ENERGY PREDICTED BY IDOCK:   -4.31 KCAL/MOL
REMARK 924 INTRA-LIGAND FREE ENERGY PREDICTED BY IDOCK:   -0.24 KCAL/MOL
REMARK 927      BINDING AFFINITY PREDICTED BY RF-SCORE:    0.00 PKD
ROOT
HETATM    1  C   UNL     1     -10.193  11.595  63.993  1.00  0.00    -0.346 C  
HETATM    2  N   UNL     1     -10.271  13.034  63.773  1.00  0.00    -0.716 NA 
HETATM    3  H   UNL     1     -10.039  13.264  62.807  1.00  0.00     0.000 HD 
ENDROOT
BRANCH   2   4
HETATM    4  C   UNL     1     -11.568  13.616  64.149  1.00  0.00    -0.352 C  
HETATM    5  C   UNL     1     -12.456  12.607  64.888  1.00  0.00    -0.564 C  
BRANCH   4   6
HETATM    6  C   UNL     1     -11.345  14.850  65.060  1.00  0.00    -0.398 C  
BRANCH   6   7
HETATM    7  C   UNL     1     -10.107  14.791  65.994  1.00  0.00    -0.327 C  
HETATM    8  C   UNL     1      -9.409  16.149  66.171  1.00  0.00    -0.372 C  
HETATM    9  C   UNL     1     -10.243  17.138  66.984  1.00  0.00    -0.313 C  
HETATM   10  C   UNL     1     -10.625  16.560  68.343  1.00  0.00    -0.323 C  
HETATM   11  C   UNL     1     -11.301  15.197  68.225  1.00  0.00    -0.338 C  
HETATM   12  C   UNL     1     -10.484  14.225  67.376  1.00  0.00    -0.264 C  
ENDBRANCH   6   7
ENDBRANCH   4   6
ENDBRANCH   2   4
TORSDOF 3
ENDMDL
MODEL       26
REMARK 921   NORMALIZED FREE ENERGY PREDICTED BY IDOCK:   -3.79 KCAL/MOL
REMARK 922        TOTAL FREE ENERGY PREDICTED BY IDOCK:   -4.52 KCAL/MOL
REMARK 923 INTER-LIGAND FREE ENERGY PREDICTED BY IDOCK:   -4.32 KCAL/MOL
REMARK 924 INTRA-LIGAND FREE ENERGY PREDICTED BY IDOCK:   -0.20 KCAL/MOL
REMARK 927      BINDING AFFINITY PREDICTED BY RF-SCORE:    0.00 PKD
ROOT
HETATM    1  C   UNL     1     -13.134  15.715  71.982  1.00  0.00    -0.459 C  
HETATM    2  N   UNL     1     -13.299  14.918  70.773  1.00  0.00    -0.605 NA 
HETATM    3  H   UNL     1     -14.252  14.993  70.418  1.00  0.00     0.000 HD 
ENDROOT
BRANCH   2   4
HETATM    4  C   UNL     1     -12.325  15.241  69.719  1.00  0.00    -0.253 C  
HETATM    5  C   UNL     1     -11.007  15.771  70.299  1.00  0.00    -0.368 C  
BRANCH   4   6
HETATM    6  C   UNL     1     -12.028  13.976  68.873  1.00  0.00    -0.387 C  
BRANCH   6   7
HETATM    7  C   UNL     1     -10.985  14.147  67.737  1.00  0.00    -0.274 C  
HETATM    8  C   UNL     1     -10.337  12.824  67.299  1.00  0.00    -0.235 C  
HETATM    9  C   UNL     1     -11.310  11.908  66.559  1.00  0.00    -0.403 C  
HETATM   10  C   UNL     1     -11.935  12.612  65.359  1.00  0.00    -0.496 C  
HETATM   11  C   UNL     1     -12.574  13.945  65.736  1.00  0.00    -0.533 C  
HETATM   12  C   UNL     1     -11.611  14.841  66.512  1.00  0.00    -0.306 C  
ENDBRANCH   6   7
ENDBRANCH   4   6
ENDBRANCH   2   4
TORSDOF 3
ENDMDL
MODEL       27
REMARK 921   NORMALIZED FREE ENERGY PREDICTED BY IDOCK:   -3.78 KCAL/MOL
REMARK 922        TOTAL FREE ENERGY PREDICTED BY IDOCK:   -4.50 KCAL/MOL
REMARK 923 INTER-LIGAND FREE ENERGY PREDICTED BY IDOCK:   -4.29 KCAL/MOL
REMARK 924 INTRA-LIGAND FREE ENERGY PREDICTED BY IDOCK:   -0.22 KCAL/MOL
REMARK 927      BINDING AFFINITY PREDICTED BY RF-SCORE:    0.00 PKD
ROOT
HETATM    1  C   UNL     1     -12.465  15.751  70.961  1.00  0.00    -0.420 C  
HETATM    2  N   UNL     1     -12.642  14.907  69.786  1.00  0.00    -0.578 NA 
HETATM    3  H   UNL     1     -13.608  14.937  69.463  1.00  0.00     0.000 HD 
ENDROOT
BRANCH   2   4
HETATM    4  C   UNL     1     -11.716  15.226  68.689  1.00  0.00    -0.346 C  
HETATM    5  C   UNL     1     -10.259  14.922  69.061  1.00  0.00    -0.243 C  
BRANCH   4   6
HETATM    6  C   UNL     1     -12.094  14.407  67.428  1.00  0.00    -0.348 C  
BRANCH   6   7
HETATM    7  C   UNL     1     -10.917  13.999  66.503  1.00  0.00    -0.306 C  
HETATM    8  C   UNL     1     -10.985  12.536  66.035  1.00  0.00    -0.318 C  
HETATM    9  C   UNL     1     -12.127  12.286  65.051  1.00  0.00    -0.392 C  
HETATM   10  C   UNL     1     -12.041  13.221  63.849  1.00  0.00    -0.531 C  
HETATM   11  C   UNL     1     -11.947  14.687  64.260  1.00  0.00    -0.406 C  
HETATM   12  C   UNL     1     -10.832  14.926  65.276  1.00  0.00    -0.398 C  
ENDBRANCH   6   7
ENDBRANCH   4   6
ENDBRANCH   2   4
TORSDOF 3
ENDMDL
MODEL       28
REMARK 921   NORMALIZED FREE ENERGY PREDICTED BY IDOCK:   -3.78 KCAL/MOL
REMARK 922        TOTAL FREE ENERGY PREDICTED BY IDOCK:   -4.50 KCAL/MOL
REMARK 923 INTER-LIGAND FREE ENERGY PREDICTED BY IDOCK:   -4.29 KCAL/MOL
REMARK 924 INTRA-LIGAND FREE ENERGY PREDICTED BY IDOCK:   -0.21 KCAL/MOL
REMARK 927      BINDING AFFINITY PREDICTED BY RF-SCORE:    0.00 PKD
ROOT
HETATM    1  C   UNL     1      -5.914  20.279  69.280  1.00  0.00    -0.337 C  
HETATM    2  N   UNL     1      -5.615  21.053  68.081  1.00  0.00    -0.306 NA 
HETATM    3  H   UNL     1      -4.743  20.738  67.657  1.00  0.00     0.000 HD 
ENDROOT
BRANCH   2   4
HETATM    4  C   UNL     1      -6.705  21.050  67.093  1.00  0.00    -0.357 C  
HETATM    5  C   UNL     1      -6.178  20.918  65.659  1.00  0.00    -0.265 C  
BRANCH   4   6
HETATM    6  C   UNL     1      -7.673  19.874  67.382  1.00  0.00    -0.316 C  
BRANCH   6   7
HETATM    7  C   UNL     1      -9.174  20.245  67.517  1.00  0.00    -0.491 C  
HETATM    8  C   UNL     1     -10.006  19.885  66.276  1.00  0.00    -0.596 C  
HETATM    9  C   UNL     1     -10.174  18.377  66.098  1.00  0.00    -0.408 C  
HETATM   10  C   UNL     1     -10.777  17.732  67.342  1.00  0.00    -0.287 C  
HETATM   11  C   UNL     1      -9.999  18.079  68.609  1.00  0.00    -0.396 C  
HETATM   12  C   UNL     1      -9.797  19.585  68.761  1.00  0.00    -0.532 C  
ENDBRANCH   6   7
ENDBRANCH   4   6
ENDBRANCH   2   4
TORSDOF 3
ENDMDL
MODEL       29
REMARK 921   NORMALIZED FREE ENERGY PREDICTED BY IDOCK:   -3.77 KCAL/MOL
REMARK 922        TOTAL FREE ENERGY PREDICTED BY IDOCK:   -4.50 KCAL/MOL
REMARK 923 INTER-LIGAND FREE ENERGY PREDICTED BY IDOCK:   -4.31 KCAL/MOL
REMARK 924 INTRA-LIGAND FREE ENERGY PREDICTED BY IDOCK:   -0.19 KCAL/MOL
REMARK 927      BINDING AFFINITY PREDICTED BY RF-SCORE:    0.00 PKD
ROOT
HETATM    1  C   UNL     1     -11.845  10.791  69.962  1.00  0.00    -0.344 C  
HETATM    2  N   UNL     1     -12.205  10.817  68.550  1.00  0.00    -0.822 NA 
HETATM    3  H   UNL     1     -13.014  11.418  68.395  1.00  0.00     0.000 HD 
ENDROOT
BRANCH   2   4
HETATM    4  C   UNL     1     -11.093  11.203  67.667  1.00  0.00    -0.287 C  
HETATM    5  C   UNL     1     -10.503   9.996  66.927  1.00  0.00    -0.284 C  
BRANCH   4   6
HETATM    6  C   UNL     1     -11.587  12.239  66.625  1.00  0.00    -0.438 C  
BRANCH   6   7
HETATM    7  C   UNL     1     -10.534  12.716  65.589  1.00  0.00    -0.298 C  
HETATM    8  C   UNL     1     -11.105  12.892  64.173  1.00  0.00    -0.438 C  
HETATM    9  C   UNL     1     -12.061  14.079  64.068  1.00  0.00    -0.413 C  
HETATM   10  C   UNL     1     -11.398  15.372  64.534  1.00  0.00    -0.321 C  
HETATM   11  C   UNL     1     -10.792  15.243  65.928  1.00  0.00    -0.345 C  
HETATM   12  C   UNL     1      -9.870  14.030  66.041  1.00  0.00    -0.316 C  
ENDBRANCH   6   7
ENDBRANCH   4   6
ENDBRANCH   2   4
TORSDOF 3
ENDMDL
MODEL       30
REMARK 921   NORMALIZED FREE ENERGY PREDICTED BY IDOCK:   -3.77 KCAL/MOL
REMARK 922        TOTAL FREE ENERGY PREDICTED BY IDOCK:   -4.49 KCAL/MOL
REMARK 923 INTER-LIGAND FREE ENERGY PREDICTED BY IDOCK:   -4.34 KCAL/MOL
REMARK 924 INTRA-LIGAND FREE ENERGY PREDICTED BY IDOCK:   -0.15 KCAL/MOL
REMARK 927      BINDING AFFINITY PREDICTED BY RF-SCORE:    0.00 PKD
ROOT
HETATM    1  C   UNL     1     -13.563  15.553  72.330  1.00  0.00    -0.538 C  
HETATM    2  N   UNL     1     -13.303  15.934  70.947  1.00  0.00    -0.633 NA 
HETATM    3  H   UNL     1     -13.325  16.948  70.843  1.00  0.00     0.000 HD 
ENDROOT
BRANCH   2   4
HETATM    4  C   UNL     1     -12.049  15.382  70.411  1.00  0.00    -0.372 C  
HETATM    5  C   UNL     1     -12.090  13.852  70.319  1.00  0.00    -0.423 C  
BRANCH   4   6
HETATM    6  C   UNL     1     -11.781  15.964  69.000  1.00  0.00    -0.377 C  
BRANCH   6   7
HETATM    7  C   UNL     1     -10.300  16.284  68.666  1.00  0.00    -0.263 C  
HETATM    8  C   UNL     1      -9.837  15.703  67.320  1.00  0.00    -0.225 C  
HETATM    9  C   UNL     1     -10.482  16.403  66.125  1.00  0.00    -0.321 C  
HETATM   10  C   UNL     1     -10.237  17.908  66.161  1.00  0.00    -0.343 C  
HETATM   11  C   UNL     1     -10.659  18.532  67.489  1.00  0.00    -0.461 C  
HETATM   12  C   UNL     1     -10.046  17.803  68.683  1.00  0.00    -0.384 C  
ENDBRANCH   6   7
ENDBRANCH   4   6
ENDBRANCH   2   4
TORSDOF 3
ENDMDL
MODEL       31
REMARK 921   NORMALIZED FREE ENERGY PREDICTED BY IDOCK:   -3.73 KCAL/MOL
REMARK 922        TOTAL FREE ENERGY PREDICTED BY IDOCK:   -4.45 KCAL/MOL
REMARK 923 INTER-LIGAND FREE ENERGY PREDICTED BY IDOCK:   -4.26 KCAL/MOL
REMARK 924 INTRA-LIGAND FREE ENERGY PREDICTED BY IDOCK:   -0.19 KCAL/MOL
REMARK 927      BINDING AFFINITY PREDICTED BY RF-SCORE:    0.00 PKD
ROOT
HETATM    1  C   UNL     1     -12.286  13.557  70.583  1.00  0.00    -0.358 C  
HETATM    2  N   UNL     1     -11.195  13.677  69.625  1.00  0.00    -0.445 NA 
HETATM    3  H   UNL     1     -10.841  12.756  69.364  1.00  0.00     0.000 HD 
ENDROOT
BRANCH   2   4
HETATM    4  C   UNL     1     -11.547  14.457  68.428  1.00  0.00    -0.319 C  
HETATM    5  C   UNL     1     -10.802  15.796  68.378  1.00  0.00    -0.297 C  
BRANCH   4   6
HETATM    6  C   UNL     1     -11.206  13.644  67.153  1.00  0.00    -0.327 C  
BRANCH   6   7
HETATM    7  C   UNL     1     -11.458  14.362  65.801  1.00  0.00    -0.335 C  
HETATM    8  C   UNL     1     -10.310  14.190  64.794  1.00  0.00    -0.387 C  
HETATM    9  C   UNL     1     -10.204  12.762  64.261  1.00  0.00    -0.352 C  
HETATM   10  C   UNL     1     -11.520  12.299  63.644  1.00  0.00    -0.572 C  
HETATM   11  C   UNL     1     -12.700  12.471  64.597  1.00  0.00    -0.434 C  
HETATM   12  C   UNL     1     -12.776  13.889  65.160  1.00  0.00    -0.434 C  
ENDBRANCH   6   7
ENDBRANCH   4   6
ENDBRANCH   2   4
TORSDOF 3
ENDMDL
MODEL       32
REMARK 921   NORMALIZED FREE ENERGY PREDICTED BY IDOCK:   -3.71 KCAL/MOL
REMARK 922        TOTAL FREE ENERGY PREDICTED BY IDOCK:   -4.42 KCAL/MOL
REMARK 923 INTER-LIGAND FREE ENERGY PREDICTED BY IDOCK:   -4.22 KCAL/MOL
REMARK 924 INTRA-LIGAND FREE ENERGY PREDICTED BY IDOCK:   -0.20 KCAL/MOL
REMARK 927      BINDING AFFINITY PREDICTED BY RF-SCORE:    0.00 PKD
ROOT
HETATM    1  C   UNL     1      -7.341  16.990  66.425  1.00  0.00    -0.293 C  
HETATM    2  N   UNL     1      -8.553  17.461  65.767  1.00  0.00    -0.488 NA 
HETATM    3  H   UNL     1      -8.558  17.190  64.784  1.00  0.00     0.000 HD 
ENDROOT
BRANCH   2   4
HETATM    4  C   UNL     1      -9.790  17.026  66.433  1.00  0.00    -0.299 C  
HETATM    5  C   UNL     1     -10.509  18.192  67.124  1.00  0.00    -0.392 C  
BRANCH   4   6
HETATM    6  C   UNL     1     -10.749  16.389  65.395  1.00  0.00    -0.310 C  
BRANCH   6   7
HETATM    7  C   UNL     1     -10.422  14.933  64.971  1.00  0.00    -0.429 C  
HETATM    8  C   UNL     1      -9.793  14.095  66.096  1.00  0.00    -0.326 C  
HETATM    9  C   UNL     1     -10.783  13.775  67.215  1.00  0.00    -0.286 C  
HETATM   10  C   UNL     1     -12.030  13.081  66.674  1.00  0.00    -0.453 C  
HETATM   11  C   UNL     1     -12.681  13.862  65.536  1.00  0.00    -0.536 C  
HETATM   12  C   UNL     1     -11.678  14.217  64.440  1.00  0.00    -0.409 C  
ENDBRANCH   6   7
ENDBRANCH   4   6
ENDBRANCH   2   4
TORSDOF 3
ENDMDL
MODEL       33
REMARK 921   NORMALIZED FREE ENERGY PREDICTED BY IDOCK:   -3.70 KCAL/MOL
REMARK 922        TOTAL FREE ENERGY PREDICTED BY IDOCK:   -4.41 KCAL/MOL
REMARK 923 INTER-LIGAND FREE ENERGY PREDICTED BY IDOCK:   -4.21 KCAL/MOL
REMARK 924 INTRA-LIGAND FREE ENERGY PREDICTED BY IDOCK:   -0.20 KCAL/MOL
REMARK 927      BINDING AFFINITY PREDICTED BY RF-SCORE:    0.00 PKD
ROOT
HETATM    1  C   UNL     1      -5.974  20.648  63.460  1.00  0.00    -0.266 C  
HETATM    2  N   UNL     1      -6.703  21.159  64.614  1.00  0.00    -0.521 NA 
HETATM    3  H   UNL     1      -7.703  21.202  64.418  1.00  0.00     0.000 HD 
ENDROOT
BRANCH   2   4
HETATM    4  C   UNL     1      -6.446  20.407  65.852  1.00  0.00    -0.224 C  
HETATM    5  C   UNL     1      -6.099  21.334  67.023  1.00  0.00    -0.408 C  
BRANCH   4   6
HETATM    6  C   UNL     1      -7.695  19.570  66.226  1.00  0.00    -0.320 C  
BRANCH   6   7
HETATM    7  C   UNL     1      -8.293  19.832  67.634  1.00  0.00    -0.355 C  
HETATM    8  C   UNL     1      -9.801  20.131  67.613  1.00  0.00    -0.567 C  
HETATM    9  C   UNL     1     -10.638  18.906  67.249  1.00  0.00    -0.529 C  
HETATM   10  C   UNL     1     -10.347  17.735  68.182  1.00  0.00    -0.393 C  
HETATM   11  C   UNL     1      -8.857  17.411  68.258  1.00  0.00    -0.264 C  
HETATM   12  C   UNL     1      -8.020  18.647  68.579  1.00  0.00    -0.365 C  
ENDBRANCH   6   7
ENDBRANCH   4   6
ENDBRANCH   2   4
TORSDOF 3
ENDMDL
MODEL       34
REMARK 921   NORMALIZED FREE ENERGY PREDICTED BY IDOCK:   -3.69 KCAL/MOL
REMARK 922        TOTAL FREE ENERGY PREDICTED BY IDOCK:   -4.40 KCAL/MOL
REMARK 923 INTER-LIGAND FREE ENERGY PREDICTED BY IDOCK:   -4.18 KCAL/MOL
REMARK 924 INTRA-LIGAND FREE ENERGY PREDICTED BY IDOCK:   -0.23 KCAL/MOL
REMARK 927      BINDING AFFINITY PREDICTED BY RF-SCORE:    0.00 PKD
ROOT
HETATM    1  C   UNL     1     -11.857  12.033  68.802  1.00  0.00    -0.302 C  
HETATM    2  N   UNL     1     -12.216  10.755  69.404  1.00  0.00    -0.574 NA 
HETATM    3  H   UNL     1     -11.807   9.982  68.880  1.00  0.00     0.000 HD 
ENDROOT
BRANCH   2   4
HETATM    4  C   UNL     1     -11.868  10.658  70.830  1.00  0.00    -0.357 C  
HETATM    5  C   UNL     1     -13.113  10.660  71.725  1.00  0.00    -0.571 C  
BRANCH   4   6
HETATM    6  C   UNL     1     -11.065   9.358  71.087  1.00  0.00    -0.432 C  
BRANCH   6   7
HETATM    7  C   UNL     1     -11.726   8.327  72.041  1.00  0.00    -0.407 C  
HETATM    8  C   UNL     1     -12.251   7.076  71.321  1.00  0.00    -0.419 C  
HETATM    9  C   UNL     1     -11.128   6.186  70.792  1.00  0.00    -0.375 C  
HETATM   10  C   UNL     1     -10.162   5.788  71.903  1.00  0.00    -0.246 C  
HETATM   11  C   UNL     1      -9.628   6.996  72.668  1.00  0.00    -0.165 C  
HETATM   12  C   UNL     1     -10.753   7.905  73.158  1.00  0.00    -0.331 C  
ENDBRANCH   6   7
ENDBRANCH   4   6
ENDBRANCH   2   4
TORSDOF 3
ENDMDL
MODEL       35
REMARK 921   NORMALIZED FREE ENERGY PREDICTED BY IDOCK:   -3.67 KCAL/MOL
REMARK 922        TOTAL FREE ENERGY PREDICTED BY IDOCK:   -4.38 KCAL/MOL
REMARK 923 INTER-LIGAND FREE ENERGY PREDICTED BY IDOCK:   -4.15 KCAL/MOL
REMARK 924 INTRA-LIGAND FREE ENERGY PREDICTED BY IDOCK:   -0.23 KCAL/MOL
REMARK 927      BINDING AFFINITY PREDICTED BY RF-SCORE:    0.00 PKD
ROOT
HETATM    1  C   UNL     1     -12.359  14.004  70.484  1.00  0.00    -0.367 C  
HETATM    2  N   UNL     1     -11.432  12.921  70.182  1.00  0.00    -0.519 NA 
HETATM    3  H   UNL     1     -11.230  12.375  71.019  1.00  0.00     0.000 HD 
ENDROOT
BRANCH   2   4
HETATM    4  C   UNL     1     -11.886  12.048  69.088  1.00  0.00    -0.311 C  
HETATM    5  C   UNL     1     -10.784  11.812  68.048  1.00  0.00    -0.244 C  
BRANCH   4   6
HETATM    6  C   UNL     1     -12.336  10.680  69.661  1.00  0.00    -0.209 C  
BRANCH   6   7
HETATM    7  C   UNL     1     -12.034  10.439  71.165  1.00  0.00    -0.460 C  
HETATM    8  C   UNL     1     -13.256   9.959  71.964  1.00  0.00    -0.555 C  
HETATM    9  C   UNL     1     -13.674   8.536  71.601  1.00  0.00    -0.411 C  
HETATM   10  C   UNL     1     -12.517   7.555  71.765  1.00  0.00    -0.360 C  
HETATM   11  C   UNL     1     -11.269   7.998  71.008  1.00  0.00    -0.287 C  
HETATM   12  C   UNL     1     -10.879   9.437  71.343  1.00  0.00    -0.430 C  
ENDBRANCH   6   7
ENDBRANCH   4   6
ENDBRANCH   2   4
TORSDOF 3
ENDMDL
MODEL       36
REMARK 921   NORMALIZED FREE ENERGY PREDICTED BY IDOCK:   -3.67 KCAL/MOL
REMARK 922        TOTAL FREE ENERGY PREDICTED BY IDOCK:   -4.37 KCAL/MOL
REMARK 923 INTER-LIGAND FREE ENERGY PREDICTED BY IDOCK:   -4.21 KCAL/MOL
REMARK 924 INTRA-LIGAND FREE ENERGY PREDICTED BY IDOCK:   -0.16 KCAL/MOL
REMARK 927      BINDING AFFINITY PREDICTED BY RF-SCORE:    0.00 PKD
ROOT
HETATM    1  C   UNL     1     -12.159  14.005  66.697  1.00  0.00    -0.456 C  
HETATM    2  N   UNL     1     -11.405  15.109  67.277  1.00  0.00    -0.330 NA 
HETATM    3  H   UNL     1     -11.179  14.917  68.253  1.00  0.00     0.000 HD 
ENDROOT
BRANCH   2   4
HETATM    4  C   UNL     1     -10.191  15.452  66.521  1.00  0.00    -0.280 C  
HETATM    5  C   UNL     1     -10.183  14.810  65.128  1.00  0.00    -0.410 C  
BRANCH   4   6
HETATM    6  C   UNL     1     -10.087  16.991  66.365  1.00  0.00    -0.325 C  
BRANCH   6   7
HETATM    7  C   UNL     1     -10.260  17.819  67.666  1.00  0.00    -0.359 C  
HETATM    8  C   UNL     1      -9.023  17.794  68.577  1.00  0.00    -0.288 C  
HETATM    9  C   UNL     1      -7.843  18.564  67.988  1.00  0.00    -0.291 C  
HETATM   10  C   UNL     1      -8.226  20.004  67.660  1.00  0.00    -0.347 C  
HETATM   11  C   UNL     1      -9.466  20.087  66.775  1.00  0.00    -0.530 C  
HETATM   12  C   UNL     1     -10.630  19.280  67.346  1.00  0.00    -0.594 C  
ENDBRANCH   6   7
ENDBRANCH   4   6
ENDBRANCH   2   4
TORSDOF 3
ENDMDL
MODEL       37
REMARK 921   NORMALIZED FREE ENERGY PREDICTED BY IDOCK:   -3.66 KCAL/MOL
REMARK 922        TOTAL FREE ENERGY PREDICTED BY IDOCK:   -4.37 KCAL/MOL
REMARK 923 INTER-LIGAND FREE ENERGY PREDICTED BY IDOCK:   -4.07 KCAL/MOL
REMARK 924 INTRA-LIGAND FREE ENERGY PREDICTED BY IDOCK:   -0.29 KCAL/MOL
REMARK 927      BINDING AFFINITY PREDICTED BY RF-SCORE:    0.00 PKD
ROOT
HETATM    1  C   UNL     1     -12.213  11.112  70.185  1.00  0.00    -0.337 C  
HETATM    2  N   UNL     1     -10.817  11.278  69.800  1.00  0.00    -0.465 NA 
HETATM    3  H   UNL     1     -10.211  10.706  70.387  1.00  0.00     0.000 HD 
ENDROOT
BRANCH   2   4
HETATM    4  C   UNL     1     -10.565  11.010  68.376  1.00  0.00    -0.193 C  
HETATM    5  C   UNL     1     -10.616   9.510  68.057  1.00  0.00    -0.282 C  
BRANCH   4   6
HETATM    6  C   UNL     1     -11.620  11.743  67.509  1.00  0.00    -0.361 C  
BRANCH   6   7
HETATM    7  C   UNL     1     -11.077  12.855  66.572  1.00  0.00    -0.318 C  
HETATM    8  C   UNL     1      -9.885  12.403  65.713  1.00  0.00    -0.253 C  
HETATM    9  C   UNL     1     -10.283  11.393  64.639  1.00  0.00    -0.347 C  
HETATM   10  C   UNL     1     -11.397  11.935  63.749  1.00  0.00    -0.532 C  
HETATM   11  C   UNL     1     -12.599  12.421  64.555  1.00  0.00    -0.477 C  
HETATM   12  C   UNL     1     -12.191  13.398  65.656  1.00  0.00    -0.510 C  
ENDBRANCH   6   7
ENDBRANCH   4   6
ENDBRANCH   2   4
TORSDOF 3
ENDMDL
MODEL       38
REMARK 921   NORMALIZED FREE ENERGY PREDICTED BY IDOCK:   -3.65 KCAL/MOL
REMARK 922        TOTAL FREE ENERGY PREDICTED BY IDOCK:   -4.35 KCAL/MOL
REMARK 923 INTER-LIGAND FREE ENERGY PREDICTED BY IDOCK:   -4.06 KCAL/MOL
REMARK 924 INTRA-LIGAND FREE ENERGY PREDICTED BY IDOCK:   -0.29 KCAL/MOL
REMARK 927      BINDING AFFINITY PREDICTED BY RF-SCORE:    0.00 PKD
ROOT
HETATM    1  C   UNL     1     -12.894  11.035  71.335  1.00  0.00    -0.443 C  
HETATM    2  N   UNL     1     -13.656  10.225  72.278  1.00  0.00    -0.537 NA 
HETATM    3  H   UNL     1     -14.658  10.341  72.126  1.00  0.00     0.000 HD 
ENDROOT
BRANCH   2   4
HETATM    4  C   UNL     1     -13.288   8.801  72.261  1.00  0.00    -0.419 C  
HETATM    5  C   UNL     1     -14.403   7.929  71.671  1.00  0.00    -0.595 C  
BRANCH   4   6
HETATM    6  C   UNL     1     -11.998   8.602  71.425  1.00  0.00    -0.355 C  
BRANCH   6   7
HETATM    7  C   UNL     1     -10.730   8.188  72.218  1.00  0.00    -0.381 C  
HETATM    8  C   UNL     1     -10.995   7.099  73.269  1.00  0.00    -0.325 C  
HETATM    9  C   UNL     1     -11.309   5.741  72.644  1.00  0.00    -0.349 C  
HETATM   10  C   UNL     1     -10.202   5.297  71.692  1.00  0.00    -0.274 C  
HETATM   11  C   UNL     1      -9.883   6.355  70.640  1.00  0.00    -0.206 C  
HETATM   12  C   UNL     1      -9.612   7.721  71.267  1.00  0.00    -0.178 C  
ENDBRANCH   6   7
ENDBRANCH   4   6
ENDBRANCH   2   4
TORSDOF 3
ENDMDL
MODEL       39
REMARK 921   NORMALIZED FREE ENERGY PREDICTED BY IDOCK:   -3.64 KCAL/MOL
REMARK 922        TOTAL FREE ENERGY PREDICTED BY IDOCK:   -4.34 KCAL/MOL
REMARK 923 INTER-LIGAND FREE ENERGY PREDICTED BY IDOCK:   -4.13 KCAL/MOL
REMARK 924 INTRA-LIGAND FREE ENERGY PREDICTED BY IDOCK:   -0.21 KCAL/MOL
REMARK 927      BINDING AFFINITY PREDICTED BY RF-SCORE:    0.00 PKD
ROOT
HETATM    1  C   UNL     1      -8.817  13.798  67.258  1.00  0.00    -0.220 C  
HETATM    2  N   UNL     1      -9.140  14.419  65.979  1.00  0.00    -0.495 NA 
HETATM    3  H   UNL     1      -9.410  13.714  65.294  1.00  0.00     0.000 HD 
ENDROOT
BRANCH   2   4
HETATM    4  C   UNL     1     -10.168  15.468  66.079  1.00  0.00    -0.330 C  
HETATM    5  C   UNL     1     -11.309  15.064  67.020  1.00  0.00    -0.319 C  
BRANCH   4   6
HETATM    6  C   UNL     1      -9.528  16.781  66.598  1.00  0.00    -0.275 C  
BRANCH   6   7
HETATM    7  C   UNL     1     -10.513  17.841  67.159  1.00  0.00    -0.338 C  
HETATM    8  C   UNL     1     -10.143  18.335  68.567  1.00  0.00    -0.419 C  
HETATM    9  C   UNL     1      -8.878  19.191  68.577  1.00  0.00    -0.406 C  
HETATM   10  C   UNL     1      -8.997  20.372  67.619  1.00  0.00    -0.364 C  
HETATM   11  C   UNL     1      -9.387  19.938  66.209  1.00  0.00    -0.474 C  
HETATM   12  C   UNL     1     -10.627  19.047  66.207  1.00  0.00    -0.493 C  
ENDBRANCH   6   7
ENDBRANCH   4   6
ENDBRANCH   2   4
TORSDOF 3
ENDMDL
MODEL       40
REMARK 921   NORMALIZED FREE ENERGY PREDICTED BY IDOCK:   -3.63 KCAL/MOL
REMARK 922        TOTAL FREE ENERGY PREDICTED BY IDOCK:   -4.34 KCAL/MOL
REMARK 923 INTER-LIGAND FREE ENERGY PREDICTED BY IDOCK:   -4.20 KCAL/MOL
REMARK 924 INTRA-LIGAND FREE ENERGY PREDICTED BY IDOCK:   -0.13 KCAL/MOL
REMARK 927      BINDING AFFINITY PREDICTED BY RF-SCORE:    0.00 PKD
ROOT
HETATM    1  C   UNL     1     -11.798  14.862  64.613  1.00  0.00    -0.407 C  
HETATM    2  N   UNL     1     -12.937  14.020  64.957  1.00  0.00    -0.742 NA 
HETATM    3  H   UNL     1     -13.752  14.269  64.397  1.00  0.00     0.000 HD 
ENDROOT
BRANCH   2   4
HETATM    4  C   UNL     1     -12.655  12.580  64.854  1.00  0.00    -0.390 C  
HETATM    5  C   UNL     1     -12.359  12.155  63.411  1.00  0.00    -0.648 C  
BRANCH   4   6
HETATM    6  C   UNL     1     -11.439  12.218  65.744  1.00  0.00    -0.417 C  
BRANCH   6   7
HETATM    7  C   UNL     1     -11.598  12.500  67.262  1.00  0.00    -0.434 C  
HETATM    8  C   UNL     1     -11.775  11.228  68.105  1.00  0.00    -0.323 C  
HETATM    9  C   UNL     1     -10.502  10.387  68.177  1.00  0.00    -0.221 C  
HETATM   10  C   UNL     1      -9.323  11.204  68.697  1.00  0.00    -0.186 C  
HETATM   11  C   UNL     1      -9.118  12.494  67.907  1.00  0.00    -0.199 C  
HETATM   12  C   UNL     1     -10.404  13.310  67.802  1.00  0.00    -0.233 C  
ENDBRANCH   6   7
ENDBRANCH   4   6
ENDBRANCH   2   4
TORSDOF 3
ENDMDL
MODEL       41
REMARK 921   NORMALIZED FREE ENERGY PREDICTED BY IDOCK:   -3.63 KCAL/MOL
REMARK 922        TOTAL FREE ENERGY PREDICTED BY IDOCK:   -4.34 KCAL/MOL
REMARK 923 INTER-LIGAND FREE ENERGY PREDICTED BY IDOCK:   -4.07 KCAL/MOL
REMARK 924 INTRA-LIGAND FREE ENERGY PREDICTED BY IDOCK:   -0.27 KCAL/MOL
REMARK 927      BINDING AFFINITY PREDICTED BY RF-SCORE:    0.00 PKD
ROOT
HETATM    1  C   UNL     1     -10.824  15.615  65.170  1.00  0.00    -0.431 C  
HETATM    2  N   UNL     1     -10.619  14.260  65.666  1.00  0.00    -0.304 NA 
HETATM    3  H   UNL     1      -9.816  14.223  66.292  1.00  0.00     0.000 HD 
ENDROOT
BRANCH   2   4
HETATM    4  C   UNL     1     -11.810  13.685  66.312  1.00  0.00    -0.392 C  
HETATM    5  C   UNL     1     -11.633  12.192  66.613  1.00  0.00    -0.416 C  
BRANCH   4   6
HETATM    6  C   UNL     1     -12.101  14.435  67.637  1.00  0.00    -0.312 C  
BRANCH   6   7
HETATM    7  C   UNL     1     -11.269  13.987  68.868  1.00  0.00    -0.303 C  
HETATM    8  C   UNL     1     -10.223  15.024  69.310  1.00  0.00    -0.244 C  
HETATM    9  C   UNL     1     -10.855  16.273  69.921  1.00  0.00    -0.352 C  
HETATM   10  C   UNL     1     -11.772  15.919  71.088  1.00  0.00    -0.490 C  
HETATM   11  C   UNL     1     -12.817  14.873  70.709  1.00  0.00    -0.428 C  
HETATM   12  C   UNL     1     -12.184  13.644  70.059  1.00  0.00    -0.395 C  
ENDBRANCH   6   7
ENDBRANCH   4   6
ENDBRANCH   2   4
TORSDOF 3
ENDMDL
MODEL       42
REMARK 921   NORMALIZED FREE ENERGY PREDICTED BY IDOCK:   -3.63 KCAL/MOL
REMARK 922        TOTAL FREE ENERGY PREDICTED BY IDOCK:   -4.34 KCAL/MOL
REMARK 923 INTER-LIGAND FREE ENERGY PREDICTED BY IDOCK:   -4.13 KCAL/MOL
REMARK 924 INTRA-LIGAND FREE ENERGY PREDICTED BY IDOCK:   -0.20 KCAL/MOL
REMARK 927      BINDING AFFINITY PREDICTED BY RF-SCORE:    0.00 PKD
ROOT
HETATM    1  C   UNL     1     -11.023  15.485  70.560  1.00  0.00    -0.344 C  
HETATM    2  N   UNL     1     -10.546  15.351  69.189  1.00  0.00    -0.236 NA 
HETATM    3  H   UNL     1      -9.586  15.686  69.107  1.00  0.00     0.000 HD 
ENDROOT
BRANCH   2   4
HETATM    4  C   UNL     1     -10.668  13.985  68.656  1.00  0.00    -0.259 C  
HETATM    5  C   UNL     1     -11.807  13.208  69.326  1.00  0.00    -0.377 C  
BRANCH   4   6
HETATM    6  C   UNL     1     -10.927  14.040  67.129  1.00  0.00    -0.303 C  
BRANCH   6   7
HETATM    7  C   UNL     1     -11.954  13.015  66.576  1.00  0.00    -0.457 C  
HETATM    8  C   UNL     1     -12.901  13.607  65.520  1.00  0.00    -0.443 C  
HETATM    9  C   UNL     1     -12.191  13.929  64.206  1.00  0.00    -0.447 C  
HETATM   10  C   UNL     1     -11.476  12.704  63.645  1.00  0.00    -0.563 C  
HETATM   11  C   UNL     1     -10.538  12.062  64.663  1.00  0.00    -0.351 C  
HETATM   12  C   UNL     1     -11.241  11.781  65.990  1.00  0.00    -0.352 C  
ENDBRANCH   6   7
ENDBRANCH   4   6
ENDBRANCH   2   4
TORSDOF 3
ENDMDL
MODEL       43
REMARK 921   NORMALIZED FREE ENERGY PREDICTED BY IDOCK:   -3.62 KCAL/MOL
REMARK 922        TOTAL FREE ENERGY PREDICTED BY IDOCK:   -4.32 KCAL/MOL
REMARK 923 INTER-LIGAND FREE ENERGY PREDICTED BY IDOCK:   -4.11 KCAL/MOL
REMARK 924 INTRA-LIGAND FREE ENERGY PREDICTED BY IDOCK:   -0.21 KCAL/MOL
REMARK 927      BINDING AFFINITY PREDICTED BY RF-SCORE:    0.00 PKD
ROOT
HETATM    1  C   UNL     1     -13.340   9.212  72.206  1.00  0.00    -0.477 C  
HETATM    2  N   UNL     1     -13.026   9.474  70.807  1.00  0.00    -0.550 NA 
HETATM    3  H   UNL     1     -13.859   9.771  70.300  1.00  0.00     0.000 HD 
ENDROOT
BRANCH   2   4
HETATM    4  C   UNL     1     -11.933  10.442  70.622  1.00  0.00    -0.351 C  
HETATM    5  C   UNL     1     -10.565   9.752  70.537  1.00  0.00    -0.376 C  
BRANCH   4   6
HETATM    6  C   UNL     1     -12.166  11.255  69.324  1.00  0.00    -0.290 C  
BRANCH   6   7
HETATM    7  C   UNL     1     -10.918  11.957  68.726  1.00  0.00    -0.280 C  
HETATM    8  C   UNL     1     -10.779  11.771  67.207  1.00  0.00    -0.279 C  
HETATM    9  C   UNL     1     -11.847  12.530  66.422  1.00  0.00    -0.445 C  
HETATM   10  C   UNL     1     -11.848  14.014  66.773  1.00  0.00    -0.450 C  
HETATM   11  C   UNL     1     -11.960  14.255  68.275  1.00  0.00    -0.346 C  
HETATM   12  C   UNL     1     -10.917  13.461  69.060  1.00  0.00    -0.265 C  
ENDBRANCH   6   7
ENDBRANCH   4   6
ENDBRANCH   2   4
TORSDOF 3
ENDMDL
MODEL       44
REMARK 921   NORMALIZED FREE ENERGY PREDICTED BY IDOCK:   -3.61 KCAL/MOL
REMARK 922        TOTAL FREE ENERGY PREDICTED BY IDOCK:   -4.31 KCAL/MOL
REMARK 923 INTER-LIGAND FREE ENERGY PREDICTED BY IDOCK:   -4.13 KCAL/MOL
REMARK 924 INTRA-LIGAND FREE ENERGY PREDICTED BY IDOCK:   -0.18 KCAL/MOL
REMARK 927      BINDING AFFINITY PREDICTED BY RF-SCORE:    0.00 PKD
ROOT
HETATM    1  C   UNL     1     -10.726   6.093  66.962  1.00  0.00    -0.350 C  
HETATM    2  N   UNL     1     -11.251   6.944  68.022  1.00  0.00    -0.545 NA 
HETATM    3  H   UNL     1     -12.186   7.277  67.788  1.00  0.00     0.000 HD 
ENDROOT
BRANCH   2   4
HETATM    4  C   UNL     1     -11.243   6.304  69.347  1.00  0.00    -0.420 C  
HETATM    5  C   UNL     1      -9.822   6.160  69.905  1.00  0.00    -0.205 C  
BRANCH   4   6
HETATM    6  C   UNL     1     -12.090   7.142  70.339  1.00  0.00    -0.139 C  
BRANCH   6   7
HETATM    7  C   UNL     1     -11.300   8.112  71.257  1.00  0.00    -0.300 C  
HETATM    8  C   UNL     1     -10.940   9.442  70.576  1.00  0.00    -0.332 C  
HETATM    9  C   UNL     1     -12.160  10.327  70.330  1.00  0.00    -0.330 C  
HETATM   10  C   UNL     1     -12.929  10.588  71.622  1.00  0.00    -0.581 C  
HETATM   11  C   UNL     1     -13.292   9.298  72.352  1.00  0.00    -0.521 C  
HETATM   12  C   UNL     1     -12.076   8.397  72.557  1.00  0.00    -0.403 C  
ENDBRANCH   6   7
ENDBRANCH   4   6
ENDBRANCH   2   4
TORSDOF 3
ENDMDL
MODEL       45
REMARK 921   NORMALIZED FREE ENERGY PREDICTED BY IDOCK:   -3.61 KCAL/MOL
REMARK 922        TOTAL FREE ENERGY PREDICTED BY IDOCK:   -4.31 KCAL/MOL
REMARK 923 INTER-LIGAND FREE ENERGY PREDICTED BY IDOCK:   -4.10 KCAL/MOL
REMARK 924 INTRA-LIGAND FREE ENERGY PREDICTED BY IDOCK:   -0.20 KCAL/MOL
REMARK 927      BINDING AFFINITY PREDICTED BY RF-SCORE:    0.00 PKD
ROOT
HETATM    1  C   UNL     1     -12.268  15.030  64.224  1.00  0.00    -0.293 C  
HETATM    2  N   UNL     1     -11.120  15.857  64.573  1.00  0.00    -0.850 NA 
HETATM    3  H   UNL     1     -11.373  16.845  64.572  1.00  0.00     0.000 HD 
ENDROOT
BRANCH   2   4
HETATM    4  C   UNL     1     -10.492  15.483  65.850  1.00  0.00    -0.342 C  
HETATM    5  C   UNL     1     -10.121  13.995  65.891  1.00  0.00    -0.336 C  
BRANCH   4   6
HETATM    6  C   UNL     1      -9.211  16.327  66.072  1.00  0.00    -0.351 C  
BRANCH   6   7
HETATM    7  C   UNL     1      -8.898  16.714  67.541  1.00  0.00    -0.202 C  
HETATM    8  C   UNL     1      -7.779  17.760  67.673  1.00  0.00    -0.212 C  
HETATM    9  C   UNL     1      -8.201  19.140  67.174  1.00  0.00    -0.290 C  
HETATM   10  C   UNL     1      -9.462  19.627  67.880  1.00  0.00    -0.444 C  
HETATM   11  C   UNL     1     -10.600  18.613  67.799  1.00  0.00    -0.433 C  
HETATM   12  C   UNL     1     -10.162  17.224  68.260  1.00  0.00    -0.348 C  
ENDBRANCH   6   7
ENDBRANCH   4   6
ENDBRANCH   2   4
TORSDOF 3
ENDMDL
MODEL       46
REMARK 921   NORMALIZED FREE ENERGY PREDICTED BY IDOCK:   -3.59 KCAL/MOL
REMARK 922        TOTAL FREE ENERGY PREDICTED BY IDOCK:   -4.28 KCAL/MOL
REMARK 923 INTER-LIGAND FREE ENERGY PREDICTED BY IDOCK:   -4.07 KCAL/MOL
REMARK 924 INTRA-LIGAND FREE ENERGY PREDICTED BY IDOCK:   -0.22 KCAL/MOL
REMARK 927      BINDING AFFINITY PREDICTED BY RF-SCORE:    0.00 PKD
ROOT
HETATM    1  C   UNL     1     -10.739   5.872  69.354  1.00  0.00    -0.336 C  
HETATM    2  N   UNL     1     -10.405   5.585  70.743  1.00  0.00    -0.236 NA 
HETATM    3  H   UNL     1      -9.563   6.087  71.022  1.00  0.00     0.000 HD 
ENDROOT
BRANCH   2   4
HETATM    4  C   UNL     1     -11.506   5.854  71.680  1.00  0.00    -0.172 C  
HETATM    5  C   UNL     1     -11.018   5.928  73.132  1.00  0.00    -0.286 C  
BRANCH   4   6
HETATM    6  C   UNL     1     -12.194   7.193  71.311  1.00  0.00    -0.403 C  
BRANCH   6   7
HETATM    7  C   UNL     1     -11.823   8.414  72.196  1.00  0.00    -0.441 C  
HETATM    8  C   UNL     1     -10.488   9.068  71.807  1.00  0.00    -0.418 C  
HETATM    9  C   UNL     1     -10.557   9.791  70.463  1.00  0.00    -0.376 C  
HETATM   10  C   UNL     1     -11.677  10.827  70.443  1.00  0.00    -0.445 C  
HETATM   11  C   UNL     1     -13.024  10.232  70.846  1.00  0.00    -0.456 C  
HETATM   12  C   UNL     1     -12.941   9.474  72.169  1.00  0.00    -0.497 C  
ENDBRANCH   6   7
ENDBRANCH   4   6
ENDBRANCH   2   4
TORSDOF 3
ENDMDL
MODEL       47
REMARK 921   NORMALIZED FREE ENERGY PREDICTED BY IDOCK:   -3.57 KCAL/MOL
REMARK 922        TOTAL FREE ENERGY PREDICTED BY IDOCK:   -4.26 KCAL/MOL
REMARK 923 INTER-LIGAND FREE ENERGY PREDICTED BY IDOCK:   -4.02 KCAL/MOL
REMARK 924 INTRA-LIGAND FREE ENERGY PREDICTED BY IDOCK:   -0.24 KCAL/MOL
REMARK 927      BINDING AFFINITY PREDICTED BY RF-SCORE:    0.00 PKD
ROOT
HETATM    1  C   UNL     1     -11.024  10.339  69.901  1.00  0.00    -0.303 C  
HETATM    2  N   UNL     1     -12.287   9.770  70.352  1.00  0.00    -0.484 NA 
HETATM    3  H   UNL     1     -12.560   8.984  69.761  1.00  0.00     0.000 HD 
ENDROOT
BRANCH   2   4
HETATM    4  C   UNL     1     -12.283   9.379  71.770  1.00  0.00    -0.390 C  
HETATM    5  C   UNL     1     -13.694   9.058  72.280  1.00  0.00    -0.550 C  
BRANCH   4   6
HETATM    6  C   UNL     1     -11.382   8.134  71.968  1.00  0.00    -0.378 C  
BRANCH   6   7
HETATM    7  C   UNL     1     -11.971   6.783  71.483  1.00  0.00    -0.396 C  
HETATM    8  C   UNL     1     -11.517   6.390  70.068  1.00  0.00    -0.496 C  
HETATM    9  C   UNL     1     -10.038   6.011  70.009  1.00  0.00    -0.241 C  
HETATM   10  C   UNL     1      -9.708   4.897  70.997  1.00  0.00    -0.252 C  
HETATM   11  C   UNL     1     -10.161   5.227  72.417  1.00  0.00    -0.227 C  
HETATM   12  C   UNL     1     -11.629   5.646  72.465  1.00  0.00    -0.303 C  
ENDBRANCH   6   7
ENDBRANCH   4   6
ENDBRANCH   2   4
TORSDOF 3
ENDMDL
MODEL       48
REMARK 921   NORMALIZED FREE ENERGY PREDICTED BY IDOCK:   -3.57 KCAL/MOL
REMARK 922        TOTAL FREE ENERGY PREDICTED BY IDOCK:   -4.26 KCAL/MOL
REMARK 923 INTER-LIGAND FREE ENERGY PREDICTED BY IDOCK:   -4.12 KCAL/MOL
REMARK 924 INTRA-LIGAND FREE ENERGY PREDICTED BY IDOCK:   -0.13 KCAL/MOL
REMARK 927      BINDING AFFINITY PREDICTED BY RF-SCORE:    0.00 PKD
ROOT
HETATM    1  C   UNL     1     -10.606  12.424  64.251  1.00  0.00    -0.363 C  
HETATM    2  N   UNL     1     -10.250  13.805  64.549  1.00  0.00    -0.675 NA 
HETATM    3  H   UNL     1      -9.856  14.261  63.727  1.00  0.00     0.000 HD 
ENDROOT
BRANCH   2   4
HETATM    4  C   UNL     1     -11.365  14.594  65.097  1.00  0.00    -0.375 C  
HETATM    5  C   UNL     1     -12.514  13.701  65.581  1.00  0.00    -0.540 C  
BRANCH   4   6
HETATM    6  C   UNL     1     -10.863  15.456  66.284  1.00  0.00    -0.301 C  
BRANCH   6   7
HETATM    7  C   UNL     1      -9.884  16.604  65.924  1.00  0.00    -0.301 C  
HETATM    8  C   UNL     1     -10.494  18.005  66.095  1.00  0.00    -0.336 C  
HETATM    9  C   UNL     1     -10.724  18.371  67.560  1.00  0.00    -0.399 C  
HETATM   10  C   UNL     1      -9.439  18.253  68.373  1.00  0.00    -0.336 C  
HETATM   11  C   UNL     1      -8.778  16.886  68.219  1.00  0.00    -0.235 C  
HETATM   12  C   UNL     1      -8.589  16.505  66.752  1.00  0.00    -0.263 C  
ENDBRANCH   6   7
ENDBRANCH   4   6
ENDBRANCH   2   4
TORSDOF 3
ENDMDL
MODEL       49
REMARK 921   NORMALIZED FREE ENERGY PREDICTED BY IDOCK:   -3.57 KCAL/MOL
REMARK 922        TOTAL FREE ENERGY PREDICTED BY IDOCK:   -4.26 KCAL/MOL
REMARK 923 INTER-LIGAND FREE ENERGY PREDICTED BY IDOCK:   -4.04 KCAL/MOL
REMARK 924 INTRA-LIGAND FREE ENERGY PREDICTED BY IDOCK:   -0.21 KCAL/MOL
REMARK 927      BINDING AFFINITY PREDICTED BY RF-SCORE:    0.00 PKD
ROOT
HETATM    1  C   UNL     1     -12.791  10.889  71.207  1.00  0.00    -0.433 C  
HETATM    2  N   UNL     1     -13.539   9.707  70.800  1.00  0.00    -0.563 NA 
HETATM    3  H   UNL     1     -13.070   9.231  70.029  1.00  0.00     0.000 HD 
ENDROOT
BRANCH   2   4
HETATM    4  C   UNL     1     -13.806   8.771  71.903  1.00  0.00    -0.442 C  
HETATM    5  C   UNL     1     -14.388   7.444  71.401  1.00  0.00    -0.522 C  
BRANCH   4   6
HETATM    6  C   UNL     1     -12.493   8.484  72.676  1.00  0.00    -0.276 C  
BRANCH   6   7
HETATM    7  C   UNL     1     -11.535   7.448  72.029  1.00  0.00    -0.310 C  
HETATM    8  C   UNL     1     -10.574   8.064  71.000  1.00  0.00    -0.239 C  
HETATM    9  C   UNL     1      -9.518   8.960  71.643  1.00  0.00    -0.351 C  
HETATM   10  C   UNL     1      -8.732   8.213  72.716  1.00  0.00    -0.281 C  
HETATM   11  C   UNL     1      -9.642   7.561  73.753  1.00  0.00    -0.321 C  
HETATM   12  C   UNL     1     -10.723   6.700  73.104  1.00  0.00    -0.306 C  
ENDBRANCH   6   7
ENDBRANCH   4   6
ENDBRANCH   2   4
TORSDOF 3
ENDMDL
MODEL       50
REMARK 921   NORMALIZED FREE ENERGY PREDICTED BY IDOCK:   -3.54 KCAL/MOL
REMARK 922        TOTAL FREE ENERGY PREDICTED BY IDOCK:   -4.22 KCAL/MOL
REMARK 923 INTER-LIGAND FREE ENERGY PREDICTED BY IDOCK:   -3.95 KCAL/MOL
REMARK 924 INTRA-LIGAND FREE ENERGY PREDICTED BY IDOCK:   -0.28 KCAL/MOL
REMARK 927      BINDING AFFINITY PREDICTED BY RF-SCORE:    0.00 PKD
ROOT
HETATM    1  C   UNL     1      -9.465  15.021  68.471  1.00  0.00    -0.203 C  
HETATM    2  N   UNL     1      -9.663  13.604  68.752  1.00  0.00    -0.405 NA 
HETATM    3  H   UNL     1     -10.656  13.375  68.768  1.00  0.00     0.000 HD 
ENDROOT
BRANCH   2   4
HETATM    4  C   UNL     1      -8.938  12.715  67.830  1.00  0.00    -0.189 C  
HETATM    5  C   UNL     1      -9.031  11.246  68.260  1.00  0.00    -0.172 C  
BRANCH   4   6
HETATM    6  C   UNL     1      -9.519  12.858  66.400  1.00  0.00    -0.228 C  
BRANCH   6   7
HETATM    7  C   UNL     1     -10.805  12.042  66.103  1.00  0.00    -0.325 C  
HETATM    8  C   UNL     1     -12.071  12.907  66.012  1.00  0.00    -0.484 C  
HETATM    9  C   UNL     1     -12.089  13.794  64.768  1.00  0.00    -0.438 C  
HETATM   10  C   UNL     1     -11.920  12.972  63.494  1.00  0.00    -0.615 C  
HETATM   11  C   UNL     1     -10.687  12.074  63.543  1.00  0.00    -0.513 C  
HETATM   12  C   UNL     1     -10.651  11.220  64.809  1.00  0.00    -0.376 C  
ENDBRANCH   6   7
ENDBRANCH   4   6
ENDBRANCH   2   4
TORSDOF 3
ENDMDL
MODEL       51
REMARK 921   NORMALIZED FREE ENERGY PREDICTED BY IDOCK:   -3.54 KCAL/MOL
REMARK 922        TOTAL FREE ENERGY PREDICTED BY IDOCK:   -4.22 KCAL/MOL
REMARK 923 INTER-LIGAND FREE ENERGY PREDICTED BY IDOCK:   -4.01 KCAL/MOL
REMARK 924 INTRA-LIGAND FREE ENERGY PREDICTED BY IDOCK:   -0.21 KCAL/MOL
REMARK 927      BINDING AFFINITY PREDICTED BY RF-SCORE:    0.00 PKD
ROOT
HETATM    1  C   UNL     1     -11.660  12.179  67.436  1.00  0.00    -0.340 C  
HETATM    2  N   UNL     1     -12.108  11.012  68.186  1.00  0.00    -0.780 NA 
HETATM    3  H   UNL     1     -12.829  10.507  67.671  1.00  0.00     0.000 HD 
ENDROOT
BRANCH   2   4
HETATM    4  C   UNL     1     -11.015  10.107  68.573  1.00  0.00    -0.232 C  
HETATM    5  C   UNL     1      -9.638  10.700  68.250  1.00  0.00    -0.167 C  
BRANCH   4   6
HETATM    6  C   UNL     1     -11.091   9.813  70.093  1.00  0.00    -0.335 C  
BRANCH   6   7
HETATM    7  C   UNL     1     -10.112   8.733  70.627  1.00  0.00    -0.248 C  
HETATM    8  C   UNL     1     -10.161   8.564  72.153  1.00  0.00    -0.403 C  
HETATM    9  C   UNL     1     -11.464   7.926  72.633  1.00  0.00    -0.454 C  
HETATM   10  C   UNL     1     -11.716   6.588  71.945  1.00  0.00    -0.371 C  
HETATM   11  C   UNL     1     -11.654   6.696  70.424  1.00  0.00    -0.457 C  
HETATM   12  C   UNL     1     -10.369   7.372  69.952  1.00  0.00    -0.222 C  
ENDBRANCH   6   7
ENDBRANCH   4   6
ENDBRANCH   2   4
TORSDOF 3
ENDMDL
MODEL       52
REMARK 921   NORMALIZED FREE ENERGY PREDICTED BY IDOCK:   -3.53 KCAL/MOL
REMARK 922        TOTAL FREE ENERGY PREDICTED BY IDOCK:   -4.21 KCAL/MOL
REMARK 923 INTER-LIGAND FREE ENERGY PREDICTED BY IDOCK:   -4.04 KCAL/MOL
REMARK 924 INTRA-LIGAND FREE ENERGY PREDICTED BY IDOCK:   -0.18 KCAL/MOL
REMARK 927      BINDING AFFINITY PREDICTED BY RF-SCORE:    0.00 PKD
ROOT
HETATM    1  C   UNL     1     -10.621   9.401  71.118  1.00  0.00    -0.333 C  
HETATM    2  N   UNL     1     -10.218  10.343  70.082  1.00  0.00    -0.433 NA 
HETATM    3  H   UNL     1      -9.668   9.874  69.363  1.00  0.00     0.000 HD 
ENDROOT
BRANCH   2   4
HETATM    4  C   UNL     1     -11.346  11.072  69.480  1.00  0.00    -0.287 C  
HETATM    5  C   UNL     1     -12.190  11.794  70.538  1.00  0.00    -0.438 C  
BRANCH   4   6
HETATM    6  C   UNL     1     -10.814  12.115  68.465  1.00  0.00    -0.267 C  
BRANCH   6   7
HETATM    7  C   UNL     1     -11.871  12.744  67.518  1.00  0.00    -0.402 C  
HETATM    8  C   UNL     1     -11.865  14.281  67.530  1.00  0.00    -0.429 C  
HETATM    9  C   UNL     1     -10.616  14.870  66.876  1.00  0.00    -0.300 C  
HETATM   10  C   UNL     1     -10.435  14.353  65.452  1.00  0.00    -0.391 C  
HETATM   11  C   UNL     1     -10.457  12.828  65.382  1.00  0.00    -0.305 C  
HETATM   12  C   UNL     1     -11.686  12.242  66.074  1.00  0.00    -0.451 C  
ENDBRANCH   6   7
ENDBRANCH   4   6
ENDBRANCH   2   4
TORSDOF 3
ENDMDL
MODEL       53
REMARK 921   NORMALIZED FREE ENERGY PREDICTED BY IDOCK:   -3.53 KCAL/MOL
REMARK 922        TOTAL FREE ENERGY PREDICTED BY IDOCK:   -4.21 KCAL/MOL
REMARK 923 INTER-LIGAND FREE ENERGY PREDICTED BY IDOCK:   -3.95 KCAL/MOL
REMARK 924 INTRA-LIGAND FREE ENERGY PREDICTED BY IDOCK:   -0.26 KCAL/MOL
REMARK 927      BINDING AFFINITY PREDICTED BY RF-SCORE:    0.00 PKD
ROOT
HETATM    1  C   UNL     1     -11.270  15.334  64.767  1.00  0.00    -0.396 C  
HETATM    2  N   UNL     1     -11.068  13.967  64.304  1.00  0.00    -0.597 NA 
HETATM    3  H   UNL     1     -10.176  13.601  64.638  1.00  0.00     0.000 HD 
ENDROOT
BRANCH   2   4
HETATM    4  C   UNL     1     -12.169  13.057  64.658  1.00  0.00    -0.421 C  
HETATM    5  C   UNL     1     -12.517  12.105  63.508  1.00  0.00    -0.666 C  
BRANCH   4   6
HETATM    6  C   UNL     1     -11.777  12.220  65.903  1.00  0.00    -0.451 C  
BRANCH   6   7
HETATM    7  C   UNL     1     -10.261  11.945  66.089  1.00  0.00    -0.258 C  
HETATM    8  C   UNL     1      -9.777  12.141  67.534  1.00  0.00    -0.185 C  
HETATM    9  C   UNL     1     -10.307  11.068  68.483  1.00  0.00    -0.204 C  
HETATM   10  C   UNL     1      -9.952   9.667  67.993  1.00  0.00    -0.190 C  
HETATM   11  C   UNL     1     -10.391   9.428  66.551  1.00  0.00    -0.268 C  
HETATM   12  C   UNL     1      -9.895  10.526  65.613  1.00  0.00    -0.311 C  
ENDBRANCH   6   7
ENDBRANCH   4   6
ENDBRANCH   2   4
TORSDOF 3
ENDMDL
MODEL       54
REMARK 921   NORMALIZED FREE ENERGY PREDICTED BY IDOCK:   -3.52 KCAL/MOL
REMARK 922        TOTAL FREE ENERGY PREDICTED BY IDOCK:   -4.20 KCAL/MOL
REMARK 923 INTER-LIGAND FREE ENERGY PREDICTED BY IDOCK:   -3.96 KCAL/MOL
REMARK 924 INTRA-LIGAND FREE ENERGY PREDICTED BY IDOCK:   -0.24 KCAL/MOL
REMARK 927      BINDING AFFINITY PREDICTED BY RF-SCORE:    0.00 PKD
ROOT
HETATM    1  C   UNL     1     -12.001  11.005  69.653  1.00  0.00    -0.353 C  
HETATM    2  N   UNL     1     -10.588  11.201  69.352  1.00  0.00    -0.385 NA 
HETATM    3  H   UNL     1     -10.171  10.338  69.006  1.00  0.00     0.000 HD 
ENDROOT
BRANCH   2   4
HETATM    4  C   UNL     1     -10.334  12.312  68.421  1.00  0.00    -0.224 C  
HETATM    5  C   UNL     1      -8.835  12.528  68.183  1.00  0.00    -0.191 C  
BRANCH   4   6
HETATM    6  C   UNL     1     -11.023  12.025  67.063  1.00  0.00    -0.323 C  
BRANCH   6   7
HETATM    7  C   UNL     1     -12.155  13.005  66.653  1.00  0.00    -0.386 C  
HETATM    8  C   UNL     1     -11.910  14.450  67.117  1.00  0.00    -0.437 C  
HETATM    9  C   UNL     1     -10.763  15.123  66.366  1.00  0.00    -0.317 C  
HETATM   10  C   UNL     1     -10.986  15.085  64.858  1.00  0.00    -0.427 C  
HETATM   11  C   UNL     1     -11.258  13.672  64.347  1.00  0.00    -0.382 C  
HETATM   12  C   UNL     1     -12.377  12.988  65.129  1.00  0.00    -0.536 C  
ENDBRANCH   6   7
ENDBRANCH   4   6
ENDBRANCH   2   4
TORSDOF 3
ENDMDL
MODEL       55
REMARK 921   NORMALIZED FREE ENERGY PREDICTED BY IDOCK:   -3.51 KCAL/MOL
REMARK 922        TOTAL FREE ENERGY PREDICTED BY IDOCK:   -4.19 KCAL/MOL
REMARK 923 INTER-LIGAND FREE ENERGY PREDICTED BY IDOCK:   -3.93 KCAL/MOL
REMARK 924 INTRA-LIGAND FREE ENERGY PREDICTED BY IDOCK:   -0.26 KCAL/MOL
REMARK 927      BINDING AFFINITY PREDICTED BY RF-SCORE:    0.00 PKD
ROOT
HETATM    1  C   UNL     1     -10.366  18.799  66.449  1.00  0.00    -0.439 C  
HETATM    2  N   UNL     1     -10.327  17.484  65.822  1.00  0.00    -0.603 NA 
HETATM    3  H   UNL     1     -10.247  17.570  64.809  1.00  0.00     0.000 HD 
ENDROOT
BRANCH   2   4
HETATM    4  C   UNL     1      -9.271  16.610  66.355  1.00  0.00    -0.287 C  
HETATM    5  C   UNL     1      -8.623  17.197  67.615  1.00  0.00    -0.214 C  
BRANCH   4   6
HETATM    6  C   UNL     1      -9.864  15.219  66.697  1.00  0.00    -0.263 C  
BRANCH   6   7
HETATM    7  C   UNL     1     -11.368  15.196  67.078  1.00  0.00    -0.277 C  
HETATM    8  C   UNL     1     -12.180  14.145  66.305  1.00  0.00    -0.474 C  
HETATM    9  C   UNL     1     -11.833  12.715  66.715  1.00  0.00    -0.440 C  
HETATM   10  C   UNL     1     -12.002  12.510  68.217  1.00  0.00    -0.274 C  
HETATM   11  C   UNL     1     -11.233  13.544  69.034  1.00  0.00    -0.314 C  
HETATM   12  C   UNL     1     -11.550  14.972  68.592  1.00  0.00    -0.347 C  
ENDBRANCH   6   7
ENDBRANCH   4   6
ENDBRANCH   2   4
TORSDOF 3
ENDMDL
MODEL       56
REMARK 921   NORMALIZED FREE ENERGY PREDICTED BY IDOCK:   -3.47 KCAL/MOL
REMARK 922        TOTAL FREE ENERGY PREDICTED BY IDOCK:   -4.14 KCAL/MOL
REMARK 923 INTER-LIGAND FREE ENERGY PREDICTED BY IDOCK:   -3.86 KCAL/MOL
REMARK 924 INTRA-LIGAND FREE ENERGY PREDICTED BY IDOCK:   -0.28 KCAL/MOL
REMARK 927      BINDING AFFINITY PREDICTED BY RF-SCORE:    0.00 PKD
ROOT
HETATM    1  C   UNL     1     -11.035  11.126  67.669  1.00  0.00    -0.269 C  
HETATM    2  N   UNL     1     -12.071  12.141  67.521  1.00  0.00    -0.499 NA 
HETATM    3  H   UNL     1     -12.421  12.434  68.432  1.00  0.00     0.000 HD 
ENDROOT
BRANCH   2   4
HETATM    4  C   UNL     1     -11.644  13.304  66.728  1.00  0.00    -0.365 C  
HETATM    5  C   UNL     1     -12.475  13.462  65.449  1.00  0.00    -0.543 C  
BRANCH   4   6
HETATM    6  C   UNL     1     -11.779  14.595  67.577  1.00  0.00    -0.403 C  
BRANCH   6   7
HETATM    7  C   UNL     1     -10.477  15.106  68.249  1.00  0.00    -0.241 C  
HETATM    8  C   UNL     1      -9.255  15.078  67.318  1.00  0.00    -0.210 C  
HETATM    9  C   UNL     1      -9.342  16.118  66.202  1.00  0.00    -0.372 C  
HETATM   10  C   UNL     1      -9.544  17.522  66.764  1.00  0.00    -0.286 C  
HETATM   11  C   UNL     1     -10.734  17.600  67.717  1.00  0.00    -0.336 C  
HETATM   12  C   UNL     1     -10.665  16.530  68.805  1.00  0.00    -0.339 C  
ENDBRANCH   6   7
ENDBRANCH   4   6
ENDBRANCH   2   4
TORSDOF 3
ENDMDL
MODEL       57
REMARK 921   NORMALIZED FREE ENERGY PREDICTED BY IDOCK:   -3.45 KCAL/MOL
REMARK 922        TOTAL FREE ENERGY PREDICTED BY IDOCK:   -4.12 KCAL/MOL
REMARK 923 INTER-LIGAND FREE ENERGY PREDICTED BY IDOCK:   -3.94 KCAL/MOL
REMARK 924 INTRA-LIGAND FREE ENERGY PREDICTED BY IDOCK:   -0.18 KCAL/MOL
REMARK 927      BINDING AFFINITY PREDICTED BY RF-SCORE:    0.00 PKD
ROOT
HETATM    1  C   UNL     1     -10.659   7.781  67.352  1.00  0.00    -0.275 C  
HETATM    2  N   UNL     1     -10.912   9.166  67.727  1.00  0.00    -0.492 NA 
HETATM    3  H   UNL     1     -10.823   9.288  68.736  1.00  0.00     0.000 HD 
ENDROOT
BRANCH   2   4
HETATM    4  C   UNL     1     -10.065  10.133  67.011  1.00  0.00    -0.223 C  
HETATM    5  C   UNL     1      -9.142   9.445  65.997  1.00  0.00    -0.228 C  
BRANCH   4   6
HETATM    6  C   UNL     1     -10.957  11.158  66.264  1.00  0.00    -0.227 C  
BRANCH   6   7
HETATM    7  C   UNL     1     -10.215  12.150  65.328  1.00  0.00    -0.304 C  
HETATM    8  C   UNL     1     -10.666  12.061  63.862  1.00  0.00    -0.450 C  
HETATM    9  C   UNL     1     -12.085  12.587  63.650  1.00  0.00    -0.642 C  
HETATM   10  C   UNL     1     -12.232  14.017  64.160  1.00  0.00    -0.433 C  
HETATM   11  C   UNL     1     -11.774  14.165  65.609  1.00  0.00    -0.357 C  
HETATM   12  C   UNL     1     -10.372  13.600  65.825  1.00  0.00    -0.304 C  
ENDBRANCH   6   7
ENDBRANCH   4   6
ENDBRANCH   2   4
TORSDOF 3
ENDMDL
MODEL       58
REMARK 921   NORMALIZED FREE ENERGY PREDICTED BY IDOCK:   -3.42 KCAL/MOL
REMARK 922        TOTAL FREE ENERGY PREDICTED BY IDOCK:   -4.08 KCAL/MOL
REMARK 923 INTER-LIGAND FREE ENERGY PREDICTED BY IDOCK:   -3.86 KCAL/MOL
REMARK 924 INTRA-LIGAND FREE ENERGY PREDICTED BY IDOCK:   -0.22 KCAL/MOL
REMARK 927      BINDING AFFINITY PREDICTED BY RF-SCORE:    0.00 PKD
ROOT
HETATM    1  C   UNL     1     -14.186   7.377  71.652  1.00  0.00    -0.440 C  
HETATM    2  N   UNL     1     -13.269   8.222  72.407  1.00  0.00    -0.562 NA 
HETATM    3  H   UNL     1     -13.337   8.027  73.405  1.00  0.00     0.000 HD 
ENDROOT
BRANCH   2   4
HETATM    4  C   UNL     1     -11.873   8.128  71.952  1.00  0.00    -0.317 C  
HETATM    5  C   UNL     1     -10.951   7.574  73.045  1.00  0.00    -0.443 C  
BRANCH   4   6
HETATM    6  C   UNL     1     -11.788   7.206  70.709  1.00  0.00    -0.367 C  
BRANCH   6   7
HETATM    7  C   UNL     1     -10.371   7.001  70.109  1.00  0.00    -0.213 C  
HETATM    8  C   UNL     1     -10.332   5.970  68.971  1.00  0.00    -0.283 C  
HETATM    9  C   UNL     1     -11.030   6.463  67.705  1.00  0.00    -0.441 C  
HETATM   10  C   UNL     1     -10.451   7.793  67.231  1.00  0.00    -0.392 C  
HETATM   11  C   UNL     1     -10.445   8.848  68.334  1.00  0.00    -0.230 C  
HETATM   12  C   UNL     1      -9.784   8.336  69.612  1.00  0.00    -0.173 C  
ENDBRANCH   6   7
ENDBRANCH   4   6
ENDBRANCH   2   4
TORSDOF 3
ENDMDL
MODEL       59
REMARK 921   NORMALIZED FREE ENERGY PREDICTED BY IDOCK:   -3.42 KCAL/MOL
REMARK 922        TOTAL FREE ENERGY PREDICTED BY IDOCK:   -4.08 KCAL/MOL
REMARK 923 INTER-LIGAND FREE ENERGY PREDICTED BY IDOCK:   -3.91 KCAL/MOL
REMARK 924 INTRA-LIGAND FREE ENERGY PREDICTED BY IDOCK:   -0.17 KCAL/MOL
REMARK 927      BINDING AFFINITY PREDICTED BY RF-SCORE:    0.00 PKD
ROOT
HETATM    1  C   UNL     1      -9.786  19.455  68.971  1.00  0.00    -0.419 C  
HETATM    2  N   UNL     1      -9.547  18.435  67.958  1.00  0.00    -0.288 NA 
HETATM    3  H   UNL     1      -9.350  17.534  68.393  1.00  0.00     0.000 HD 
ENDROOT
BRANCH   2   4
HETATM    4  C   UNL     1     -10.637  18.313  66.978  1.00  0.00    -0.349 C  
HETATM    5  C   UNL     1     -10.637  19.473  65.974  1.00  0.00    -0.589 C  
BRANCH   4   6
HETATM    6  C   UNL     1     -10.500  16.978  66.204  1.00  0.00    -0.274 C  
BRANCH   6   7
HETATM    7  C   UNL     1     -10.133  15.733  67.055  1.00  0.00    -0.261 C  
HETATM    8  C   UNL     1     -11.357  15.017  67.649  1.00  0.00    -0.342 C  
HETATM    9  C   UNL     1     -12.199  14.311  66.589  1.00  0.00    -0.411 C  
HETATM   10  C   UNL     1     -11.360  13.331  65.773  1.00  0.00    -0.328 C  
HETATM   11  C   UNL     1     -10.118  13.987  65.178  1.00  0.00    -0.343 C  
HETATM   12  C   UNL     1      -9.301  14.728  66.235  1.00  0.00    -0.310 C  
ENDBRANCH   6   7
ENDBRANCH   4   6
ENDBRANCH   2   4
TORSDOF 3
ENDMDL
MODEL       60
REMARK 921   NORMALIZED FREE ENERGY PREDICTED BY IDOCK:   -3.41 KCAL/MOL
REMARK 922        TOTAL FREE ENERGY PREDICTED BY IDOCK:   -4.07 KCAL/MOL
REMARK 923 INTER-LIGAND FREE ENERGY PREDICTED BY IDOCK:   -3.91 KCAL/MOL
REMARK 924 INTRA-LIGAND FREE ENERGY PREDICTED BY IDOCK:   -0.16 KCAL/MOL
REMARK 927      BINDING AFFINITY PREDICTED BY RF-SCORE:    0.00 PKD
ROOT
HETATM    1  C   UNL     1     -14.397   8.592  72.187  1.00  0.00    -0.427 C  
HETATM    2  N   UNL     1     -13.128   8.722  72.892  1.00  0.00    -0.738 NA 
HETATM    3  H   UNL     1     -13.193   8.322  73.828  1.00  0.00     0.000 HD 
ENDROOT
BRANCH   2   4
HETATM    4  C   UNL     1     -11.988   8.150  72.159  1.00  0.00    -0.359 C  
HETATM    5  C   UNL     1     -12.167   6.649  71.903  1.00  0.00    -0.381 C  
BRANCH   4   6
HETATM    6  C   UNL     1     -11.820   8.876  70.800  1.00  0.00    -0.230 C  
BRANCH   6   7
HETATM    7  C   UNL     1     -10.928  10.146  70.812  1.00  0.00    -0.313 C  
HETATM    8  C   UNL     1      -9.600   9.967  70.061  1.00  0.00    -0.260 C  
HETATM    9  C   UNL     1      -9.789   9.853  68.549  1.00  0.00    -0.168 C  
HETATM   10  C   UNL     1     -10.553  11.050  67.992  1.00  0.00    -0.241 C  
HETATM   11  C   UNL     1     -11.872  11.287  68.721  1.00  0.00    -0.396 C  
HETATM   12  C   UNL     1     -11.684  11.357  70.235  1.00  0.00    -0.397 C  
ENDBRANCH   6   7
ENDBRANCH   4   6
ENDBRANCH   2   4
TORSDOF 3
ENDMDL
MODEL       61
REMARK 921   NORMALIZED FREE ENERGY PREDICTED BY IDOCK:   -3.40 KCAL/MOL
REMARK 922        TOTAL FREE ENERGY PREDICTED BY IDOCK:   -4.06 KCAL/MOL
REMARK 923 INTER-LIGAND FREE ENERGY PREDICTED BY IDOCK:   -3.85 KCAL/MOL
REMARK 924 INTRA-LIGAND FREE ENERGY PREDICTED BY IDOCK:   -0.21 KCAL/MOL
REMARK 927      BINDING AFFINITY PREDICTED BY RF-SCORE:    0.00 PKD
ROOT
HETATM    1  C   UNL     1     -11.430  13.677  68.076  1.00  0.00    -0.310 C  
HETATM    2  N   UNL     1     -12.441  14.362  68.871  1.00  0.00    -0.553 NA 
HETATM    3  H   UNL     1     -12.719  13.792  69.670  1.00  0.00     0.000 HD 
ENDROOT
BRANCH   2   4
HETATM    4  C   UNL     1     -12.034  15.707  69.307  1.00  0.00    -0.320 C  
HETATM    5  C   UNL     1     -11.955  15.814  70.835  1.00  0.00    -0.453 C  
BRANCH   4   6
HETATM    6  C   UNL     1     -10.648  16.056  68.707  1.00  0.00    -0.262 C  
BRANCH   6   7
HETATM    7  C   UNL     1     -10.587  17.339  67.837  1.00  0.00    -0.384 C  
HETATM    8  C   UNL     1      -9.818  18.492  68.501  1.00  0.00    -0.414 C  
HETATM    9  C   UNL     1      -8.317  18.224  68.592  1.00  0.00    -0.305 C  
HETATM   10  C   UNL     1      -7.722  17.915  67.221  1.00  0.00    -0.218 C  
HETATM   11  C   UNL     1      -8.466  16.789  66.507  1.00  0.00    -0.318 C  
HETATM   12  C   UNL     1      -9.971  17.042  66.457  1.00  0.00    -0.318 C  
ENDBRANCH   6   7
ENDBRANCH   4   6
ENDBRANCH   2   4
TORSDOF 3
ENDMDL
MODEL       62
REMARK 921   NORMALIZED FREE ENERGY PREDICTED BY IDOCK:   -3.40 KCAL/MOL
REMARK 922        TOTAL FREE ENERGY PREDICTED BY IDOCK:   -4.06 KCAL/MOL
REMARK 923 INTER-LIGAND FREE ENERGY PREDICTED BY IDOCK:   -3.89 KCAL/MOL
REMARK 924 INTRA-LIGAND FREE ENERGY PREDICTED BY IDOCK:   -0.17 KCAL/MOL
REMARK 927      BINDING AFFINITY PREDICTED BY RF-SCORE:    0.00 PKD
ROOT
HETATM    1  C   UNL     1     -13.553   8.822  71.963  1.00  0.00    -0.427 C  
HETATM    2  N   UNL     1     -12.750   9.232  70.818  1.00  0.00    -0.510 NA 
HETATM    3  H   UNL     1     -13.274   9.868  70.218  1.00  0.00     0.000 HD 
ENDROOT
BRANCH   2   4
HETATM    4  C   UNL     1     -11.453   9.818  71.191  1.00  0.00    -0.398 C  
HETATM    5  C   UNL     1     -10.508   8.777  71.803  1.00  0.00    -0.417 C  
BRANCH   4   6
HETATM    6  C   UNL     1     -10.778  10.436  69.940  1.00  0.00    -0.331 C  
BRANCH   6   7
HETATM    7  C   UNL     1     -11.733  11.071  68.894  1.00  0.00    -0.400 C  
HETATM    8  C   UNL     1     -11.890  12.591  69.053  1.00  0.00    -0.344 C  
HETATM    9  C   UNL     1     -10.623  13.356  68.676  1.00  0.00    -0.257 C  
HETATM   10  C   UNL     1     -10.169  13.018  67.259  1.00  0.00    -0.239 C  
HETATM   11  C   UNL     1     -10.020  11.515  67.041  1.00  0.00    -0.225 C  
HETATM   12  C   UNL     1     -11.274  10.750  67.459  1.00  0.00    -0.346 C  
ENDBRANCH   6   7
ENDBRANCH   4   6
ENDBRANCH   2   4
TORSDOF 3
ENDMDL
MODEL       63
REMARK 921   NORMALIZED FREE ENERGY PREDICTED BY IDOCK:   -3.40 KCAL/MOL
REMARK 922        TOTAL FREE ENERGY PREDICTED BY IDOCK:   -4.06 KCAL/MOL
REMARK 923 INTER-LIGAND FREE ENERGY PREDICTED BY IDOCK:   -3.83 KCAL/MOL
REMARK 924 INTRA-LIGAND FREE ENERGY PREDICTED BY IDOCK:   -0.23 KCAL/MOL
REMARK 927      BINDING AFFINITY PREDICTED BY RF-SCORE:    0.00 PKD
ROOT
HETATM    1  C   UNL     1      -8.475  10.110  68.376  1.00  0.00    -0.118 C  
HETATM    2  N   UNL     1      -9.178  10.714  69.500  1.00  0.00    -0.411 NA 
HETATM    3  H   UNL     1      -8.978  11.713  69.556  1.00  0.00     0.000 HD 
ENDROOT
BRANCH   2   4
HETATM    4  C   UNL     1     -10.630  10.475  69.482  1.00  0.00    -0.246 C  
HETATM    5  C   UNL     1     -11.184  10.421  68.053  1.00  0.00    -0.340 C  
BRANCH   4   6
HETATM    6  C   UNL     1     -10.950   9.137  70.196  1.00  0.00    -0.267 C  
BRANCH   6   7
HETATM    7  C   UNL     1     -11.447   9.250  71.662  1.00  0.00    -0.468 C  
HETATM    8  C   UNL     1     -12.696  10.131  71.818  1.00  0.00    -0.534 C  
HETATM    9  C   UNL     1     -13.946   9.492  71.217  1.00  0.00    -0.075 C  
HETATM   10  C   UNL     1     -14.202   8.108  71.805  1.00  0.00    -0.548 C  
HETATM   11  C   UNL     1     -12.982   7.197  71.696  1.00  0.00    -0.415 C  
HETATM   12  C   UNL     1     -11.725   7.857  72.260  1.00  0.00    -0.408 C  
ENDBRANCH   6   7
ENDBRANCH   4   6
ENDBRANCH   2   4
TORSDOF 3
ENDMDL
MODEL       64
REMARK 921   NORMALIZED FREE ENERGY PREDICTED BY IDOCK:   -3.40 KCAL/MOL
REMARK 922        TOTAL FREE ENERGY PREDICTED BY IDOCK:   -4.06 KCAL/MOL
REMARK 923 INTER-LIGAND FREE ENERGY PREDICTED BY IDOCK:   -3.89 KCAL/MOL
REMARK 924 INTRA-LIGAND FREE ENERGY PREDICTED BY IDOCK:   -0.16 KCAL/MOL
REMARK 927      BINDING AFFINITY PREDICTED BY RF-SCORE:    0.00 PKD
ROOT
HETATM    1  C   UNL     1     -10.348  14.579  64.877  1.00  0.00    -0.371 C  
HETATM    2  N   UNL     1     -10.359  13.440  63.968  1.00  0.00    -0.706 NA 
HETATM    3  H   UNL     1      -9.417  13.069  63.844  1.00  0.00     0.000 HD 
ENDROOT
BRANCH   2   4
HETATM    4  C   UNL     1     -11.287  12.373  64.374  1.00  0.00    -0.340 C  
HETATM    5  C   UNL     1     -12.420  12.182  63.358  1.00  0.00    -0.625 C  
BRANCH   4   6
HETATM    6  C   UNL     1     -10.517  11.037  64.526  1.00  0.00    -0.411 C  
BRANCH   6   7
HETATM    7  C   UNL     1      -9.604  10.916  65.774  1.00  0.00    -0.259 C  
HETATM    8  C   UNL     1     -10.289  10.236  66.971  1.00  0.00    -0.299 C  
HETATM    9  C   UNL     1     -10.534   8.746  66.740  1.00  0.00    -0.283 C  
HETATM   10  C   UNL     1      -9.241   8.016  66.389  1.00  0.00    -0.245 C  
HETATM   11  C   UNL     1      -8.507   8.666  65.220  1.00  0.00    -0.196 C  
HETATM   12  C   UNL     1      -8.302  10.165  65.436  1.00  0.00    -0.159 C  
ENDBRANCH   6   7
ENDBRANCH   4   6
ENDBRANCH   2   4
TORSDOF 3
ENDMDL
MODEL       65
REMARK 921   NORMALIZED FREE ENERGY PREDICTED BY IDOCK:   -3.39 KCAL/MOL
REMARK 922        TOTAL FREE ENERGY PREDICTED BY IDOCK:   -4.04 KCAL/MOL
REMARK 923 INTER-LIGAND FREE ENERGY PREDICTED BY IDOCK:   -3.90 KCAL/MOL
REMARK 924 INTRA-LIGAND FREE ENERGY PREDICTED BY IDOCK:   -0.14 KCAL/MOL
REMARK 927      BINDING AFFINITY PREDICTED BY RF-SCORE:    0.00 PKD
ROOT
HETATM    1  C   UNL     1      -9.429  19.218  68.574  1.00  0.00    -0.389 C  
HETATM    2  N   UNL     1     -10.298  18.052  68.481  1.00  0.00    -0.372 NA 
HETATM    3  H   UNL     1     -10.925  18.132  67.681  1.00  0.00     0.000 HD 
ENDROOT
BRANCH   2   4
HETATM    4  C   UNL     1      -9.567  16.776  68.443  1.00  0.00    -0.241 C  
HETATM    5  C   UNL     1      -8.089  16.951  68.815  1.00  0.00    -0.251 C  
BRANCH   4   6
HETATM    6  C   UNL     1     -10.217  15.769  69.425  1.00  0.00    -0.262 C  
BRANCH   6   7
HETATM    7  C   UNL     1     -11.731  15.500  69.221  1.00  0.00    -0.380 C  
HETATM    8  C   UNL     1     -12.027  14.164  68.522  1.00  0.00    -0.367 C  
HETATM    9  C   UNL     1     -11.712  12.956  69.403  1.00  0.00    -0.382 C  
HETATM   10  C   UNL     1     -12.454  13.030  70.734  1.00  0.00    -0.384 C  
HETATM   11  C   UNL     1     -12.214  14.351  71.460  1.00  0.00    -0.406 C  
HETATM   12  C   UNL     1     -12.488  15.555  70.562  1.00  0.00    -0.472 C  
ENDBRANCH   6   7
ENDBRANCH   4   6
ENDBRANCH   2   4
TORSDOF 3
ENDMDL
MODEL       66
REMARK 921   NORMALIZED FREE ENERGY PREDICTED BY IDOCK:   -3.37 KCAL/MOL
REMARK 922        TOTAL FREE ENERGY PREDICTED BY IDOCK:   -4.03 KCAL/MOL
REMARK 923 INTER-LIGAND FREE ENERGY PREDICTED BY IDOCK:   -3.94 KCAL/MOL
REMARK 924 INTRA-LIGAND FREE ENERGY PREDICTED BY IDOCK:   -0.09 KCAL/MOL
REMARK 927      BINDING AFFINITY PREDICTED BY RF-SCORE:    0.00 PKD
ROOT
HETATM    1  C   UNL     1     -12.630  12.049  63.264  1.00  0.00    -0.385 C  
HETATM    2  N   UNL     1     -11.562  13.014  63.492  1.00  0.00    -0.653 NA 
HETATM    3  H   UNL     1     -11.505  13.678  62.720  1.00  0.00     0.000 HD 
ENDROOT
BRANCH   2   4
HETATM    4  C   UNL     1     -11.672  13.720  64.778  1.00  0.00    -0.381 C  
HETATM    5  C   UNL     1     -12.241  12.818  65.880  1.00  0.00    -0.422 C  
BRANCH   4   6
HETATM    6  C   UNL     1     -10.276  14.231  65.218  1.00  0.00    -0.408 C  
BRANCH   6   7
HETATM    7  C   UNL     1     -10.251  15.601  65.945  1.00  0.00    -0.372 C  
HETATM    8  C   UNL     1     -10.967  15.585  67.305  1.00  0.00    -0.303 C  
HETATM    9  C   UNL     1     -10.215  14.772  68.356  1.00  0.00    -0.224 C  
HETATM   10  C   UNL     1      -8.781  15.265  68.522  1.00  0.00    -0.176 C  
HETATM   11  C   UNL     1      -8.031  15.322  67.194  1.00  0.00    -0.251 C  
HETATM   12  C   UNL     1      -8.806  16.101  66.133  1.00  0.00    -0.367 C  
ENDBRANCH   6   7
ENDBRANCH   4   6
ENDBRANCH   2   4
TORSDOF 3
ENDMDL
MODEL       67
REMARK 921   NORMALIZED FREE ENERGY PREDICTED BY IDOCK:   -3.37 KCAL/MOL
REMARK 922        TOTAL FREE ENERGY PREDICTED BY IDOCK:   -4.02 KCAL/MOL
REMARK 923 INTER-LIGAND FREE ENERGY PREDICTED BY IDOCK:   -3.87 KCAL/MOL
REMARK 924 INTRA-LIGAND FREE ENERGY PREDICTED BY IDOCK:   -0.15 KCAL/MOL
REMARK 927      BINDING AFFINITY PREDICTED BY RF-SCORE:    0.00 PKD
ROOT
HETATM    1  C   UNL     1      -6.924   8.629  71.763  1.00  0.00    -0.084 C  
HETATM    2  N   UNL     1      -8.372   8.771  71.862  1.00  0.00    -0.349 NA 
HETATM    3  H   UNL     1      -8.801   8.731  70.938  1.00  0.00     0.000 HD 
ENDROOT
BRANCH   2   4
HETATM    4  C   UNL     1      -8.997   7.797  72.770  1.00  0.00    -0.181 C  
HETATM    5  C   UNL     1      -8.503   7.960  74.213  1.00  0.00    -0.278 C  
BRANCH   4   6
HETATM    6  C   UNL     1     -10.537   7.969  72.743  1.00  0.00    -0.420 C  
BRANCH   6   7
HETATM    7  C   UNL     1     -11.159   8.318  71.365  1.00  0.00    -0.302 C  
HETATM    8  C   UNL     1     -12.160   7.266  70.862  1.00  0.00    -0.326 C  
HETATM    9  C   UNL     1     -13.451   7.243  71.679  1.00  0.00    -0.428 C  
HETATM   10  C   UNL     1     -14.108   8.619  71.720  1.00  0.00    -0.499 C  
HETATM   11  C   UNL     1     -13.148   9.707  72.192  1.00  0.00    -0.520 C  
HETATM   12  C   UNL     1     -11.842   9.698  71.400  1.00  0.00    -0.484 C  
ENDBRANCH   6   7
ENDBRANCH   4   6
ENDBRANCH   2   4
TORSDOF 3
ENDMDL
MODEL       68
REMARK 921   NORMALIZED FREE ENERGY PREDICTED BY IDOCK:   -3.36 KCAL/MOL
REMARK 922        TOTAL FREE ENERGY PREDICTED BY IDOCK:   -4.02 KCAL/MOL
REMARK 923 INTER-LIGAND FREE ENERGY PREDICTED BY IDOCK:   -3.83 KCAL/MOL
REMARK 924 INTRA-LIGAND FREE ENERGY PREDICTED BY IDOCK:   -0.19 KCAL/MOL
REMARK 927      BINDING AFFINITY PREDICTED BY RF-SCORE:    0.00 PKD
ROOT
HETATM    1  C   UNL     1     -12.474  12.419  63.646  1.00  0.00    -0.508 C  
HETATM    2  N   UNL     1     -12.697  12.950  64.984  1.00  0.00    -0.724 NA 
HETATM    3  H   UNL     1     -13.623  12.692  65.326  1.00  0.00     0.000 HD 
ENDROOT
BRANCH   2   4
HETATM    4  C   UNL     1     -11.659  12.561  65.952  1.00  0.00    -0.405 C  
HETATM    5  C   UNL     1     -10.341  12.191  65.260  1.00  0.00    -0.310 C  
BRANCH   4   6
HETATM    6  C   UNL     1     -11.398  13.727  66.939  1.00  0.00    -0.345 C  
BRANCH   6   7
HETATM    7  C   UNL     1     -10.132  14.581  66.664  1.00  0.00    -0.275 C  
HETATM    8  C   UNL     1     -10.432  16.076  66.469  1.00  0.00    -0.303 C  
HETATM    9  C   UNL     1     -10.875  16.760  67.760  1.00  0.00    -0.285 C  
HETATM   10  C   UNL     1      -9.848  16.570  68.872  1.00  0.00    -0.260 C  
HETATM   11  C   UNL     1      -9.495  15.101  69.091  1.00  0.00    -0.221 C  
HETATM   12  C   UNL     1      -9.094  14.410  67.790  1.00  0.00    -0.192 C  
ENDBRANCH   6   7
ENDBRANCH   4   6
ENDBRANCH   2   4
TORSDOF 3
ENDMDL
MODEL       69
REMARK 921   NORMALIZED FREE ENERGY PREDICTED BY IDOCK:   -3.35 KCAL/MOL
REMARK 922        TOTAL FREE ENERGY PREDICTED BY IDOCK:   -4.01 KCAL/MOL
REMARK 923 INTER-LIGAND FREE ENERGY PREDICTED BY IDOCK:   -3.75 KCAL/MOL
REMARK 924 INTRA-LIGAND FREE ENERGY PREDICTED BY IDOCK:   -0.26 KCAL/MOL
REMARK 927      BINDING AFFINITY PREDICTED BY RF-SCORE:    0.00 PKD
ROOT
HETATM    1  C   UNL     1      -8.990   8.660  65.855  1.00  0.00    -0.200 C  
HETATM    2  N   UNL     1      -9.920   9.502  65.113  1.00  0.00    -0.384 NA 
HETATM    3  H   UNL     1     -10.750   9.702  65.672  1.00  0.00     0.000 HD 
ENDROOT
BRANCH   2   4
HETATM    4  C   UNL     1      -9.316  10.748  64.615  1.00  0.00    -0.233 C  
HETATM    5  C   UNL     1      -9.697  11.025  63.156  1.00  0.00    -0.398 C  
BRANCH   4   6
HETATM    6  C   UNL     1      -9.778  11.941  65.490  1.00  0.00    -0.237 C  
BRANCH   6   7
HETATM    7  C   UNL     1     -11.221  11.854  66.053  1.00  0.00    -0.377 C  
HETATM    8  C   UNL     1     -11.284  11.915  67.588  1.00  0.00    -0.340 C  
HETATM    9  C   UNL     1     -10.923  13.293  68.138  1.00  0.00    -0.278 C  
HETATM   10  C   UNL     1     -11.802  14.383  67.531  1.00  0.00    -0.418 C  
HETATM   11  C   UNL     1     -11.794  14.352  66.005  1.00  0.00    -0.379 C  
HETATM   12  C   UNL     1     -12.113  12.961  65.460  1.00  0.00    -0.507 C  
ENDBRANCH   6   7
ENDBRANCH   4   6
ENDBRANCH   2   4
TORSDOF 3
ENDMDL
MODEL       70
REMARK 921   NORMALIZED FREE ENERGY PREDICTED BY IDOCK:   -3.35 KCAL/MOL
REMARK 922        TOTAL FREE ENERGY PREDICTED BY IDOCK:   -4.00 KCAL/MOL
REMARK 923 INTER-LIGAND FREE ENERGY PREDICTED BY IDOCK:   -3.77 KCAL/MOL
REMARK 924 INTRA-LIGAND FREE ENERGY PREDICTED BY IDOCK:   -0.23 KCAL/MOL
REMARK 927      BINDING AFFINITY PREDICTED BY RF-SCORE:    0.00 PKD
ROOT
HETATM    1  C   UNL     1     -10.342   4.339  72.399  1.00  0.00    -0.160 C  
HETATM    2  N   UNL     1     -11.224   5.430  72.794  1.00  0.00    -0.290 NA 
HETATM    3  H   UNL     1     -12.005   5.080  73.348  1.00  0.00     0.000 HD 
ENDROOT
BRANCH   2   4
HETATM    4  C   UNL     1     -10.532   6.519  73.500  1.00  0.00    -0.297 C  
HETATM    5  C   UNL     1      -9.008   6.404  73.376  1.00  0.00    -0.131 C  
BRANCH   4   6
HETATM    6  C   UNL     1     -10.981   7.887  72.925  1.00  0.00    -0.452 C  
BRANCH   6   7
HETATM    7  C   UNL     1     -11.924   7.830  71.694  1.00  0.00    -0.330 C  
HETATM    8  C   UNL     1     -13.289   8.493  71.938  1.00  0.00    -0.401 C  
HETATM    9  C   UNL     1     -13.192  10.012  72.064  1.00  0.00    -0.545 C  
HETATM   10  C   UNL     1     -12.518  10.630  70.842  1.00  0.00    -0.495 C  
HETATM   11  C   UNL     1     -11.165   9.990  70.541  1.00  0.00    -0.408 C  
HETATM   12  C   UNL     1     -11.260   8.467  70.459  1.00  0.00    -0.262 C  
ENDBRANCH   6   7
ENDBRANCH   4   6
ENDBRANCH   2   4
TORSDOF 3
ENDMDL
MODEL       71
REMARK 921   NORMALIZED FREE ENERGY PREDICTED BY IDOCK:   -3.34 KCAL/MOL
REMARK 922        TOTAL FREE ENERGY PREDICTED BY IDOCK:   -3.99 KCAL/MOL
REMARK 923 INTER-LIGAND FREE ENERGY PREDICTED BY IDOCK:   -3.71 KCAL/MOL
REMARK 924 INTRA-LIGAND FREE ENERGY PREDICTED BY IDOCK:   -0.28 KCAL/MOL
REMARK 927      BINDING AFFINITY PREDICTED BY RF-SCORE:    0.00 PKD
ROOT
HETATM    1  C   UNL     1     -10.009  14.687  68.949  1.00  0.00    -0.228 C  
HETATM    2  N   UNL     1      -8.749  14.969  69.625  1.00  0.00    -0.454 NA 
HETATM    3  H   UNL     1      -8.288  14.104  69.904  1.00  0.00     0.000 HD 
ENDROOT
BRANCH   2   4
HETATM    4  C   UNL     1      -7.837  15.815  68.839  1.00  0.00    -0.190 C  
HETATM    5  C   UNL     1      -7.424  15.144  67.523  1.00  0.00    -0.223 C  
BRANCH   4   6
HETATM    6  C   UNL     1      -8.522  17.168  68.519  1.00  0.00    -0.262 C  
BRANCH   6   7
HETATM    7  C   UNL     1      -8.541  17.585  67.024  1.00  0.00    -0.251 C  
HETATM    8  C   UNL     1      -9.958  17.755  66.454  1.00  0.00    -0.345 C  
HETATM    9  C   UNL     1     -10.680  18.974  67.025  1.00  0.00    -0.516 C  
HETATM   10  C   UNL     1      -9.871  20.250  66.814  1.00  0.00    -0.586 C  
HETATM   11  C   UNL     1      -8.445  20.127  67.343  1.00  0.00    -0.398 C  
HETATM   12  C   UNL     1      -7.741  18.883  66.803  1.00  0.00    -0.252 C  
ENDBRANCH   6   7
ENDBRANCH   4   6
ENDBRANCH   2   4
TORSDOF 3
ENDMDL
MODEL       72
REMARK 921   NORMALIZED FREE ENERGY PREDICTED BY IDOCK:   -3.33 KCAL/MOL
REMARK 922        TOTAL FREE ENERGY PREDICTED BY IDOCK:   -3.97 KCAL/MOL
REMARK 923 INTER-LIGAND FREE ENERGY PREDICTED BY IDOCK:   -3.80 KCAL/MOL
REMARK 924 INTRA-LIGAND FREE ENERGY PREDICTED BY IDOCK:   -0.17 KCAL/MOL
REMARK 927      BINDING AFFINITY PREDICTED BY RF-SCORE:    0.00 PKD
ROOT
HETATM    1  C   UNL     1      -7.731  19.272  68.593  1.00  0.00    -0.359 C  
HETATM    2  N   UNL     1      -8.574  18.470  67.717  1.00  0.00    -0.267 NA 
HETATM    3  H   UNL     1      -8.288  17.491  67.739  1.00  0.00     0.000 HD 
ENDROOT
BRANCH   2   4
HETATM    4  C   UNL     1     -10.011  18.598  68.005  1.00  0.00    -0.351 C  
HETATM    5  C   UNL     1     -10.708  19.553  67.028  1.00  0.00    -0.592 C  
BRANCH   4   6
HETATM    6  C   UNL     1     -10.690  17.207  67.920  1.00  0.00    -0.355 C  
BRANCH   6   7
HETATM    7  C   UNL     1     -10.056  16.086  68.785  1.00  0.00    -0.225 C  
HETATM    8  C   UNL     1     -10.664  15.982  70.193  1.00  0.00    -0.316 C  
HETATM    9  C   UNL     1     -12.098  15.454  70.177  1.00  0.00    -0.400 C  
HETATM   10  C   UNL     1     -12.189  14.109  69.462  1.00  0.00    -0.351 C  
HETATM   11  C   UNL     1     -11.576  14.152  68.065  1.00  0.00    -0.368 C  
HETATM   12  C   UNL     1     -10.158  14.720  68.081  1.00  0.00    -0.221 C  
ENDBRANCH   6   7
ENDBRANCH   4   6
ENDBRANCH   2   4
TORSDOF 3
ENDMDL
MODEL       73
REMARK 921   NORMALIZED FREE ENERGY PREDICTED BY IDOCK:   -3.30 KCAL/MOL
REMARK 922        TOTAL FREE ENERGY PREDICTED BY IDOCK:   -3.94 KCAL/MOL
REMARK 923 INTER-LIGAND FREE ENERGY PREDICTED BY IDOCK:   -3.75 KCAL/MOL
REMARK 924 INTRA-LIGAND FREE ENERGY PREDICTED BY IDOCK:   -0.20 KCAL/MOL
REMARK 927      BINDING AFFINITY PREDICTED BY RF-SCORE:    0.00 PKD
ROOT
HETATM    1  C   UNL     1     -10.648  17.400  68.627  1.00  0.00    -0.318 C  
HETATM    2  N   UNL     1     -10.369  17.225  67.208  1.00  0.00    -0.327 NA 
HETATM    3  H   UNL     1     -11.232  17.070  66.687  1.00  0.00     0.000 HD 
ENDROOT
BRANCH   2   4
HETATM    4  C   UNL     1      -9.598  18.332  66.619  1.00  0.00    -0.315 C  
HETATM    5  C   UNL     1     -10.511  19.417  66.033  1.00  0.00    -0.596 C  
BRANCH   4   6
HETATM    6  C   UNL     1      -8.688  18.970  67.699  1.00  0.00    -0.317 C  
BRANCH   6   7
HETATM    7  C   UNL     1      -7.164  18.728  67.534  1.00  0.00    -0.225 C  
HETATM    8  C   UNL     1      -6.442  19.862  66.788  1.00  0.00    -0.213 C  
HETATM    9  C   UNL     1      -6.367  21.150  67.606  1.00  0.00    -0.417 C  
HETATM   10  C   UNL     1      -5.712  20.911  68.963  1.00  0.00    -0.375 C  
HETATM   11  C   UNL     1      -6.377  19.776  69.736  1.00  0.00    -0.387 C  
HETATM   12  C   UNL     1      -6.489  18.503  68.900  1.00  0.00    -0.254 C  
ENDBRANCH   6   7
ENDBRANCH   4   6
ENDBRANCH   2   4
TORSDOF 3
ENDMDL
MODEL       74
REMARK 921   NORMALIZED FREE ENERGY PREDICTED BY IDOCK:   -3.30 KCAL/MOL
REMARK 922        TOTAL FREE ENERGY PREDICTED BY IDOCK:   -3.94 KCAL/MOL
REMARK 923 INTER-LIGAND FREE ENERGY PREDICTED BY IDOCK:   -3.70 KCAL/MOL
REMARK 924 INTRA-LIGAND FREE ENERGY PREDICTED BY IDOCK:   -0.23 KCAL/MOL
REMARK 927      BINDING AFFINITY PREDICTED BY RF-SCORE:    0.00 PKD
ROOT
HETATM    1  C   UNL     1     -11.369  15.478  67.935  1.00  0.00    -0.308 C  
HETATM    2  N   UNL     1     -10.976  14.974  66.626  1.00  0.00    -0.323 NA 
HETATM    3  H   UNL     1     -10.120  14.423  66.694  1.00  0.00     0.000 HD 
ENDROOT
BRANCH   2   4
HETATM    4  C   UNL     1     -12.034  14.208  65.949  1.00  0.00    -0.409 C  
HETATM    5  C   UNL     1     -12.179  14.610  64.476  1.00  0.00    -0.473 C  
BRANCH   4   6
HETATM    6  C   UNL     1     -11.718  12.693  66.027  1.00  0.00    -0.470 C  
BRANCH   6   7
HETATM    7  C   UNL     1     -10.278  12.321  66.471  1.00  0.00    -0.235 C  
HETATM    8  C   UNL     1     -10.233  11.475  67.753  1.00  0.00    -0.200 C  
HETATM    9  C   UNL     1     -10.765  10.058  67.543  1.00  0.00    -0.339 C  
HETATM   10  C   UNL     1     -10.024   9.346  66.416  1.00  0.00    -0.346 C  
HETATM   11  C   UNL     1     -10.018  10.156  65.123  1.00  0.00    -0.379 C  
HETATM   12  C   UNL     1      -9.526  11.585  65.346  1.00  0.00    -0.220 C  
ENDBRANCH   6   7
ENDBRANCH   4   6
ENDBRANCH   2   4
TORSDOF 3
ENDMDL
MODEL       75
REMARK 921   NORMALIZED FREE ENERGY PREDICTED BY IDOCK:   -3.29 KCAL/MOL
REMARK 922        TOTAL FREE ENERGY PREDICTED BY IDOCK:   -3.94 KCAL/MOL
REMARK 923 INTER-LIGAND FREE ENERGY PREDICTED BY IDOCK:   -3.69 KCAL/MOL
REMARK 924 INTRA-LIGAND FREE ENERGY PREDICTED BY IDOCK:   -0.24 KCAL/MOL
REMARK 927      BINDING AFFINITY PREDICTED BY RF-SCORE:    0.00 PKD
ROOT
HETATM    1  C   UNL     1     -12.917  10.840  71.224  1.00  0.00    -0.402 C  
HETATM    2  N   UNL     1     -12.902   9.475  70.714  1.00  0.00    -0.535 NA 
HETATM    3  H   UNL     1     -12.073   9.312  70.143  1.00  0.00     0.000 HD 
ENDROOT
BRANCH   2   4
HETATM    4  C   UNL     1     -13.017   8.454  71.767  1.00  0.00    -0.344 C  
HETATM    5  C   UNL     1     -14.303   7.630  71.629  1.00  0.00    -0.613 C  
BRANCH   4   6
HETATM    6  C   UNL     1     -11.799   7.497  71.705  1.00  0.00    -0.322 C  
BRANCH   6   7
HETATM    7  C   UNL     1     -10.909   7.610  70.438  1.00  0.00    -0.252 C  
HETATM    8  C   UNL     1      -9.431   7.892  70.751  1.00  0.00    -0.163 C  
HETATM    9  C   UNL     1      -8.729   6.701  71.400  1.00  0.00    -0.129 C  
HETATM   10  C   UNL     1      -8.856   5.445  70.543  1.00  0.00    -0.148 C  
HETATM   11  C   UNL     1     -10.305   5.132  70.183  1.00  0.00    -0.340 C  
HETATM   12  C   UNL     1     -11.016   6.339  69.574  1.00  0.00    -0.445 C  
ENDBRANCH   6   7
ENDBRANCH   4   6
ENDBRANCH   2   4
TORSDOF 3
ENDMDL
MODEL       76
REMARK 921   NORMALIZED FREE ENERGY PREDICTED BY IDOCK:   -3.29 KCAL/MOL
REMARK 922        TOTAL FREE ENERGY PREDICTED BY IDOCK:   -3.93 KCAL/MOL
REMARK 923 INTER-LIGAND FREE ENERGY PREDICTED BY IDOCK:   -3.63 KCAL/MOL
REMARK 924 INTRA-LIGAND FREE ENERGY PREDICTED BY IDOCK:   -0.30 KCAL/MOL
REMARK 927      BINDING AFFINITY PREDICTED BY RF-SCORE:    0.00 PKD
ROOT
HETATM    1  C   UNL     1     -10.702   9.771  70.299  1.00  0.00    -0.302 C  
HETATM    2  N   UNL     1      -9.611  10.529  69.700  1.00  0.00    -0.420 NA 
HETATM    3  H   UNL     1      -8.742   9.997  69.732  1.00  0.00     0.000 HD 
ENDROOT
BRANCH   2   4
HETATM    4  C   UNL     1      -9.894  10.980  68.328  1.00  0.00    -0.178 C  
HETATM    5  C   UNL     1     -11.094  10.246  67.719  1.00  0.00    -0.335 C  
BRANCH   4   6
HETATM    6  C   UNL     1     -10.182  12.503  68.327  1.00  0.00    -0.235 C  
BRANCH   6   7
HETATM    7  C   UNL     1     -11.678  12.912  68.395  1.00  0.00    -0.382 C  
HETATM    8  C   UNL     1     -12.099  13.465  69.765  1.00  0.00    -0.374 C  
HETATM    9  C   UNL     1     -11.490  14.833  70.061  1.00  0.00    -0.321 C  
HETATM   10  C   UNL     1     -11.821  15.840  68.964  1.00  0.00    -0.367 C  
HETATM   11  C   UNL     1     -11.443  15.330  67.576  1.00  0.00    -0.271 C  
HETATM   12  C   UNL     1     -12.019  13.942  67.301  1.00  0.00    -0.446 C  
ENDBRANCH   6   7
ENDBRANCH   4   6
ENDBRANCH   2   4
TORSDOF 3
ENDMDL
MODEL       77
REMARK 921   NORMALIZED FREE ENERGY PREDICTED BY IDOCK:   -3.28 KCAL/MOL
REMARK 922        TOTAL FREE ENERGY PREDICTED BY IDOCK:   -3.92 KCAL/MOL
REMARK 923 INTER-LIGAND FREE ENERGY PREDICTED BY IDOCK:   -3.78 KCAL/MOL
REMARK 924 INTRA-LIGAND FREE ENERGY PREDICTED BY IDOCK:   -0.14 KCAL/MOL
REMARK 927      BINDING AFFINITY PREDICTED BY RF-SCORE:    0.00 PKD
ROOT
HETATM    1  C   UNL     1      -6.795  12.295  67.246  1.00  0.00    -0.140 C  
HETATM    2  N   UNL     1      -8.070  12.412  66.549  1.00  0.00    -0.391 NA 
HETATM    3  H   UNL     1      -8.565  11.520  66.550  1.00  0.00     0.000 HD 
ENDROOT
BRANCH   2   4
HETATM    4  C   UNL     1      -8.929  13.485  67.072  1.00  0.00    -0.231 C  
HETATM    5  C   UNL     1      -8.113  14.697  67.537  1.00  0.00    -0.200 C  
BRANCH   4   6
HETATM    6  C   UNL     1      -9.925  13.941  65.975  1.00  0.00    -0.325 C  
BRANCH   6   7
HETATM    7  C   UNL     1     -11.380  13.417  66.116  1.00  0.00    -0.324 C  
HETATM    8  C   UNL     1     -12.371  14.101  65.162  1.00  0.00    -0.460 C  
HETATM    9  C   UNL     1     -12.146  13.714  63.702  1.00  0.00    -0.397 C  
HETATM   10  C   UNL     1     -12.191  12.201  63.513  1.00  0.00    -0.670 C  
HETATM   11  C   UNL     1     -11.239  11.470  64.455  1.00  0.00    -0.301 C  
HETATM   12  C   UNL     1     -11.440  11.892  65.910  1.00  0.00    -0.340 C  
ENDBRANCH   6   7
ENDBRANCH   4   6
ENDBRANCH   2   4
TORSDOF 3
ENDMDL
MODEL       78
REMARK 921   NORMALIZED FREE ENERGY PREDICTED BY IDOCK:   -3.27 KCAL/MOL
REMARK 922        TOTAL FREE ENERGY PREDICTED BY IDOCK:   -3.91 KCAL/MOL
REMARK 923 INTER-LIGAND FREE ENERGY PREDICTED BY IDOCK:   -3.68 KCAL/MOL
REMARK 924 INTRA-LIGAND FREE ENERGY PREDICTED BY IDOCK:   -0.22 KCAL/MOL
REMARK 927      BINDING AFFINITY PREDICTED BY RF-SCORE:    0.00 PKD
ROOT
HETATM    1  C   UNL     1     -10.473   6.427  73.779  1.00  0.00    -0.303 C  
HETATM    2  N   UNL     1     -11.260   7.635  73.565  1.00  0.00    -0.525 NA 
HETATM    3  H   UNL     1     -10.796   8.445  73.975  1.00  0.00     0.000 HD 
ENDROOT
BRANCH   2   4
HETATM    4  C   UNL     1     -11.585   7.882  72.152  1.00  0.00    -0.328 C  
HETATM    5  C   UNL     1     -12.964   7.326  71.776  1.00  0.00    -0.368 C  
BRANCH   4   6
HETATM    6  C   UNL     1     -11.562   9.405  71.866  1.00  0.00    -0.348 C  
BRANCH   6   7
HETATM    7  C   UNL     1     -12.817   9.984  71.160  1.00  0.00    -0.480 C  
HETATM    8  C   UNL     1     -13.519  11.087  71.967  1.00  0.00    -0.286 C  
HETATM    9  C   UNL     1     -12.701  12.375  72.038  1.00  0.00    -0.119 C  
HETATM   10  C   UNL     1     -12.344  12.887  70.646  1.00  0.00    -0.385 C  
HETATM   11  C   UNL     1     -11.665  11.820  69.792  1.00  0.00    -0.408 C  
HETATM   12  C   UNL     1     -12.465  10.519  69.759  1.00  0.00    -0.133 C  
ENDBRANCH   6   7
ENDBRANCH   4   6
ENDBRANCH   2   4
TORSDOF 3
ENDMDL
MODEL       79
REMARK 921   NORMALIZED FREE ENERGY PREDICTED BY IDOCK:   -3.25 KCAL/MOL
REMARK 922        TOTAL FREE ENERGY PREDICTED BY IDOCK:   -3.88 KCAL/MOL
REMARK 923 INTER-LIGAND FREE ENERGY PREDICTED BY IDOCK:   -3.67 KCAL/MOL
REMARK 924 INTRA-LIGAND FREE ENERGY PREDICTED BY IDOCK:   -0.22 KCAL/MOL
REMARK 927      BINDING AFFINITY PREDICTED BY RF-SCORE:    0.00 PKD
ROOT
HETATM    1  C   UNL     1      -9.613   4.546  68.971  1.00  0.00    -0.175 C  
HETATM    2  N   UNL     1      -9.269   5.903  69.374  1.00  0.00    -0.130 NA 
HETATM    3  H   UNL     1      -8.359   6.170  69.000  1.00  0.00     0.000 HD 
ENDROOT
BRANCH   2   4
HETATM    4  C   UNL     1     -10.291   6.899  69.016  1.00  0.00    -0.192 C  
HETATM    5  C   UNL     1     -11.085   6.484  67.771  1.00  0.00    -0.366 C  
BRANCH   4   6
HETATM    6  C   UNL     1     -11.275   7.089  70.199  1.00  0.00    -0.325 C  
BRANCH   6   7
HETATM    7  C   UNL     1     -10.809   8.052  71.324  1.00  0.00    -0.267 C  
HETATM    8  C   UNL     1     -10.353   9.424  70.804  1.00  0.00    -0.366 C  
HETATM    9  C   UNL     1     -11.510  10.265  70.269  1.00  0.00    -0.395 C  
HETATM   10  C   UNL     1     -12.606  10.436  71.317  1.00  0.00    -0.525 C  
HETATM   11  C   UNL     1     -13.079   9.100  71.884  1.00  0.00    -0.478 C  
HETATM   12  C   UNL     1     -11.915   8.245  72.379  1.00  0.00    -0.447 C  
ENDBRANCH   6   7
ENDBRANCH   4   6
ENDBRANCH   2   4
TORSDOF 3
ENDMDL
MODEL       80
REMARK 921   NORMALIZED FREE ENERGY PREDICTED BY IDOCK:   -3.25 KCAL/MOL
REMARK 922        TOTAL FREE ENERGY PREDICTED BY IDOCK:   -3.88 KCAL/MOL
REMARK 923 INTER-LIGAND FREE ENERGY PREDICTED BY IDOCK:   -3.72 KCAL/MOL
REMARK 924 INTRA-LIGAND FREE ENERGY PREDICTED BY IDOCK:   -0.17 KCAL/MOL
REMARK 927      BINDING AFFINITY PREDICTED BY RF-SCORE:    0.00 PKD
ROOT
HETATM    1  C   UNL     1     -10.451   7.760  66.909  1.00  0.00    -0.317 C  
HETATM    2  N   UNL     1     -11.430   6.786  67.373  1.00  0.00    -0.716 NA 
HETATM    3  H   UNL     1     -11.926   6.370  66.585  1.00  0.00     0.000 HD 
ENDROOT
BRANCH   2   4
HETATM    4  C   UNL     1     -10.858   5.742  68.237  1.00  0.00    -0.166 C  
HETATM    5  C   UNL     1      -9.648   5.059  67.586  1.00  0.00    -0.173 C  
BRANCH   4   6
HETATM    6  C   UNL     1     -10.418   6.362  69.587  1.00  0.00    -0.278 C  
BRANCH   6   7
HETATM    7  C   UNL     1     -11.491   7.199  70.334  1.00  0.00    -0.317 C  
HETATM    8  C   UNL     1     -12.046   6.503  71.587  1.00  0.00    -0.381 C  
HETATM    9  C   UNL     1     -11.020   6.417  72.715  1.00  0.00    -0.289 C  
HETATM   10  C   UNL     1     -10.472   7.795  73.076  1.00  0.00    -0.432 C  
HETATM   11  C   UNL     1      -9.928   8.539  71.860  1.00  0.00    -0.365 C  
HETATM   12  C   UNL     1     -10.942   8.586  70.718  1.00  0.00    -0.282 C  
ENDBRANCH   6   7
ENDBRANCH   4   6
ENDBRANCH   2   4
TORSDOF 3
ENDMDL
MODEL       81
REMARK 921   NORMALIZED FREE ENERGY PREDICTED BY IDOCK:   -3.24 KCAL/MOL
REMARK 922        TOTAL FREE ENERGY PREDICTED BY IDOCK:   -3.88 KCAL/MOL
REMARK 923 INTER-LIGAND FREE ENERGY PREDICTED BY IDOCK:   -3.70 KCAL/MOL
REMARK 924 INTRA-LIGAND FREE ENERGY PREDICTED BY IDOCK:   -0.18 KCAL/MOL
REMARK 927      BINDING AFFINITY PREDICTED BY RF-SCORE:    0.00 PKD
ROOT
HETATM    1  C   UNL     1     -10.171  12.695  64.950  1.00  0.00    -0.272 C  
HETATM    2  N   UNL     1      -9.246  12.514  66.062  1.00  0.00    -0.431 NA 
HETATM    3  H   UNL     1      -8.321  12.252  65.723  1.00  0.00     0.000 HD 
ENDROOT
BRANCH   2   4
HETATM    4  C   UNL     1      -9.163  13.681  66.953  1.00  0.00    -0.250 C  
HETATM    5  C   UNL     1      -9.786  14.931  66.319  1.00  0.00    -0.320 C  
BRANCH   4   6
HETATM    6  C   UNL     1      -9.893  13.377  68.286  1.00  0.00    -0.235 C  
BRANCH   6   7
HETATM    7  C   UNL     1     -11.426  13.157  68.187  1.00  0.00    -0.349 C  
HETATM    8  C   UNL     1     -11.868  11.738  68.576  1.00  0.00    -0.365 C  
HETATM    9  C   UNL     1     -11.708  11.460  70.070  1.00  0.00    -0.416 C  
HETATM   10  C   UNL     1     -12.452  12.492  70.911  1.00  0.00    -0.361 C  
HETATM   11  C   UNL     1     -12.067  13.923  70.548  1.00  0.00    -0.426 C  
HETATM   12  C   UNL     1     -12.188  14.184  69.048  1.00  0.00    -0.274 C  
ENDBRANCH   6   7
ENDBRANCH   4   6
ENDBRANCH   2   4
TORSDOF 3
ENDMDL
MODEL       82
REMARK 921   NORMALIZED FREE ENERGY PREDICTED BY IDOCK:   -3.23 KCAL/MOL
REMARK 922        TOTAL FREE ENERGY PREDICTED BY IDOCK:   -3.87 KCAL/MOL
REMARK 923 INTER-LIGAND FREE ENERGY PREDICTED BY IDOCK:   -3.67 KCAL/MOL
REMARK 924 INTRA-LIGAND FREE ENERGY PREDICTED BY IDOCK:   -0.20 KCAL/MOL
REMARK 927      BINDING AFFINITY PREDICTED BY RF-SCORE:    0.00 PKD
ROOT
HETATM    1  C   UNL     1     -10.714   9.450  67.835  1.00  0.00    -0.210 C  
HETATM    2  N   UNL     1     -11.841  10.349  68.044  1.00  0.00    -0.681 NA 
HETATM    3  H   UNL     1     -12.723   9.868  67.869  1.00  0.00     0.000 HD 
ENDROOT
BRANCH   2   4
HETATM    4  C   UNL     1     -11.849  10.982  69.372  1.00  0.00    -0.335 C  
HETATM    5  C   UNL     1     -10.833  10.336  70.321  1.00  0.00    -0.349 C  
BRANCH   4   6
HETATM    6  C   UNL     1     -11.521  12.491  69.235  1.00  0.00    -0.353 C  
BRANCH   6   7
HETATM    7  C   UNL     1     -11.304  13.012  67.789  1.00  0.00    -0.333 C  
HETATM    8  C   UNL     1     -12.027  14.337  67.501  1.00  0.00    -0.411 C  
HETATM    9  C   UNL     1     -11.411  15.518  68.249  1.00  0.00    -0.360 C  
HETATM   10  C   UNL     1      -9.922  15.654  67.946  1.00  0.00    -0.223 C  
HETATM   11  C   UNL     1      -9.159  14.355  68.193  1.00  0.00    -0.194 C  
HETATM   12  C   UNL     1      -9.803  13.169  67.479  1.00  0.00    -0.216 C  
ENDBRANCH   6   7
ENDBRANCH   4   6
ENDBRANCH   2   4
TORSDOF 3
ENDMDL
MODEL       83
REMARK 921   NORMALIZED FREE ENERGY PREDICTED BY IDOCK:   -3.23 KCAL/MOL
REMARK 922        TOTAL FREE ENERGY PREDICTED BY IDOCK:   -3.86 KCAL/MOL
REMARK 923 INTER-LIGAND FREE ENERGY PREDICTED BY IDOCK:   -3.69 KCAL/MOL
REMARK 924 INTRA-LIGAND FREE ENERGY PREDICTED BY IDOCK:   -0.17 KCAL/MOL
REMARK 927      BINDING AFFINITY PREDICTED BY RF-SCORE:    0.00 PKD
ROOT
HETATM    1  C   UNL     1     -10.669  10.300  67.691  1.00  0.00    -0.288 C  
HETATM    2  N   UNL     1     -11.677  11.298  67.353  1.00  0.00    -0.584 NA 
HETATM    3  H   UNL     1     -12.112  11.671  68.197  1.00  0.00     0.000 HD 
ENDROOT
BRANCH   2   4
HETATM    4  C   UNL     1     -11.164  12.387  66.507  1.00  0.00    -0.319 C  
HETATM    5  C   UNL     1     -12.272  13.020  65.656  1.00  0.00    -0.521 C  
BRANCH   4   6
HETATM    6  C   UNL     1     -10.522  13.483  67.395  1.00  0.00    -0.247 C  
BRANCH   6   7
HETATM    7  C   UNL     1     -11.426  14.698  67.736  1.00  0.00    -0.359 C  
HETATM    8  C   UNL     1     -12.411  14.424  68.884  1.00  0.00    -0.104 C  
HETATM    9  C   UNL     1     -11.714  14.289  70.237  1.00  0.00    -0.343 C  
HETATM   10  C   UNL     1     -10.865  15.518  70.552  1.00  0.00    -0.353 C  
HETATM   11  C   UNL     1      -9.885  15.848  69.430  1.00  0.00    -0.280 C  
HETATM   12  C   UNL     1     -10.579  15.939  68.072  1.00  0.00    -0.287 C  
ENDBRANCH   6   7
ENDBRANCH   4   6
ENDBRANCH   2   4
TORSDOF 3
ENDMDL
MODEL       84
REMARK 921   NORMALIZED FREE ENERGY PREDICTED BY IDOCK:   -3.23 KCAL/MOL
REMARK 922        TOTAL FREE ENERGY PREDICTED BY IDOCK:   -3.86 KCAL/MOL
REMARK 923 INTER-LIGAND FREE ENERGY PREDICTED BY IDOCK:   -3.68 KCAL/MOL
REMARK 924 INTRA-LIGAND FREE ENERGY PREDICTED BY IDOCK:   -0.17 KCAL/MOL
REMARK 927      BINDING AFFINITY PREDICTED BY RF-SCORE:    0.00 PKD
ROOT
HETATM    1  C   UNL     1      -7.690  12.938  67.428  1.00  0.00    -0.159 C  
HETATM    2  N   UNL     1      -7.984  11.795  66.572  1.00  0.00    -0.359 NA 
HETATM    3  H   UNL     1      -7.206  11.135  66.572  1.00  0.00     0.000 HD 
ENDROOT
BRANCH   2   4
HETATM    4  C   UNL     1      -9.243  11.114  66.913  1.00  0.00    -0.169 C  
HETATM    5  C   UNL     1      -9.560  11.210  68.410  1.00  0.00    -0.192 C  
BRANCH   4   6
HETATM    6  C   UNL     1     -10.412  11.741  66.111  1.00  0.00    -0.284 C  
BRANCH   6   7
HETATM    7  C   UNL     1     -10.037  12.373  64.744  1.00  0.00    -0.260 C  
HETATM    8  C   UNL     1     -10.745  11.714  63.550  1.00  0.00    -0.495 C  
HETATM    9  C   UNL     1     -12.243  12.008  63.518  1.00  0.00    -0.653 C  
HETATM   10  C   UNL     1     -12.517  13.509  63.529  1.00  0.00    -0.234 C  
HETATM   11  C   UNL     1     -11.815  14.218  64.685  1.00  0.00    -0.459 C  
HETATM   12  C   UNL     1     -10.325  13.887  64.738  1.00  0.00    -0.419 C  
ENDBRANCH   6   7
ENDBRANCH   4   6
ENDBRANCH   2   4
TORSDOF 3
ENDMDL
MODEL       85
REMARK 921   NORMALIZED FREE ENERGY PREDICTED BY IDOCK:   -3.23 KCAL/MOL
REMARK 922        TOTAL FREE ENERGY PREDICTED BY IDOCK:   -3.86 KCAL/MOL
REMARK 923 INTER-LIGAND FREE ENERGY PREDICTED BY IDOCK:   -3.68 KCAL/MOL
REMARK 924 INTRA-LIGAND FREE ENERGY PREDICTED BY IDOCK:   -0.18 KCAL/MOL
REMARK 927      BINDING AFFINITY PREDICTED BY RF-SCORE:    0.00 PKD
ROOT
HETATM    1  C   UNL     1      -9.579  15.668  65.781  1.00  0.00    -0.326 C  
HETATM    2  N   UNL     1     -10.990  15.657  66.147  1.00  0.00    -0.261 NA 
HETATM    3  H   UNL     1     -11.490  16.411  65.676  1.00  0.00     0.000 HD 
ENDROOT
BRANCH   2   4
HETATM    4  C   UNL     1     -11.649  14.365  65.906  1.00  0.00    -0.361 C  
HETATM    5  C   UNL     1     -10.727  13.378  65.179  1.00  0.00    -0.339 C  
BRANCH   4   6
HETATM    6  C   UNL     1     -12.089  13.741  67.255  1.00  0.00    -0.393 C  
BRANCH   6   7
HETATM    7  C   UNL     1     -10.994  13.648  68.351  1.00  0.00    -0.284 C  
HETATM    8  C   UNL     1     -11.225  14.608  69.529  1.00  0.00    -0.300 C  
HETATM    9  C   UNL     1     -12.422  14.207  70.389  1.00  0.00    -0.424 C  
HETATM   10  C   UNL     1     -12.290  12.774  70.895  1.00  0.00    -0.356 C  
HETATM   11  C   UNL     1     -12.036  11.781  69.764  1.00  0.00    -0.392 C  
HETATM   12  C   UNL     1     -10.865  12.208  68.882  1.00  0.00    -0.241 C  
ENDBRANCH   6   7
ENDBRANCH   4   6
ENDBRANCH   2   4
TORSDOF 3
ENDMDL
MODEL       86
REMARK 921   NORMALIZED FREE ENERGY PREDICTED BY IDOCK:   -3.21 KCAL/MOL
REMARK 922        TOTAL FREE ENERGY PREDICTED BY IDOCK:   -3.84 KCAL/MOL
REMARK 923 INTER-LIGAND FREE ENERGY PREDICTED BY IDOCK:   -3.57 KCAL/MOL
REMARK 924 INTRA-LIGAND FREE ENERGY PREDICTED BY IDOCK:   -0.27 KCAL/MOL
REMARK 927      BINDING AFFINITY PREDICTED BY RF-SCORE:    0.00 PKD
ROOT
HETATM    1  C   UNL     1      -5.904  17.350  69.851  1.00  0.00    -0.249 C  
HETATM    2  N   UNL     1      -6.798  16.226  69.604  1.00  0.00    -0.186 NA 
HETATM    3  H   UNL     1      -7.136  15.833  70.482  1.00  0.00     0.000 HD 
ENDROOT
BRANCH   2   4
HETATM    4  C   UNL     1      -7.924  16.555  68.715  1.00  0.00    -0.236 C  
HETATM    5  C   UNL     1      -9.244  15.959  69.218  1.00  0.00    -0.254 C  
BRANCH   4   6
HETATM    6  C   UNL     1      -8.075  18.094  68.608  1.00  0.00    -0.301 C  
BRANCH   6   7
HETATM    7  C   UNL     1      -7.950  18.692  67.182  1.00  0.00    -0.249 C  
HETATM    8  C   UNL     1      -8.768  17.933  66.125  1.00  0.00    -0.119 C  
HETATM    9  C   UNL     1     -10.274  18.118  66.303  1.00  0.00    -0.401 C  
HETATM   10  C   UNL     1     -10.658  19.595  66.306  1.00  0.00    -0.585 C  
HETATM   11  C   UNL     1      -9.855  20.401  67.323  1.00  0.00    -0.597 C  
HETATM   12  C   UNL     1      -8.351  20.179  67.169  1.00  0.00    -0.391 C  
ENDBRANCH   6   7
ENDBRANCH   4   6
ENDBRANCH   2   4
TORSDOF 3
ENDMDL
MODEL       87
REMARK 921   NORMALIZED FREE ENERGY PREDICTED BY IDOCK:   -3.16 KCAL/MOL
REMARK 922        TOTAL FREE ENERGY PREDICTED BY IDOCK:   -3.78 KCAL/MOL
REMARK 923 INTER-LIGAND FREE ENERGY PREDICTED BY IDOCK:   -3.59 KCAL/MOL
REMARK 924 INTRA-LIGAND FREE ENERGY PREDICTED BY IDOCK:   -0.19 KCAL/MOL
REMARK 927      BINDING AFFINITY PREDICTED BY RF-SCORE:    0.00 PKD
ROOT
HETATM    1  C   UNL     1      -8.389   8.267  65.576  1.00  0.00    -0.155 C  
HETATM    2  N   UNL     1      -8.756   9.635  65.234  1.00  0.00    -0.149 NA 
HETATM    3  H   UNL     1      -8.622   9.806  64.237  1.00  0.00     0.000 HD 
ENDROOT
BRANCH   2   4
HETATM    4  C   UNL     1     -10.121   9.998  65.645  1.00  0.00    -0.251 C  
HETATM    5  C   UNL     1     -10.338   9.797  67.150  1.00  0.00    -0.311 C  
BRANCH   4   6
HETATM    6  C   UNL     1     -10.400  11.480  65.290  1.00  0.00    -0.322 C  
BRANCH   6   7
HETATM    7  C   UNL     1     -11.831  11.996  65.596  1.00  0.00    -0.242 C  
HETATM    8  C   UNL     1     -11.851  13.285  66.432  1.00  0.00    -0.446 C  
HETATM    9  C   UNL     1     -11.349  14.500  65.654  1.00  0.00    -0.336 C  
HETATM   10  C   UNL     1     -12.135  14.698  64.362  1.00  0.00    -0.481 C  
HETATM   11  C   UNL     1     -12.166  13.437  63.503  1.00  0.00    -0.468 C  
HETATM   12  C   UNL     1     -12.629  12.216  64.297  1.00  0.00    -0.432 C  
ENDBRANCH   6   7
ENDBRANCH   4   6
ENDBRANCH   2   4
TORSDOF 3
ENDMDL
MODEL       88
REMARK 921   NORMALIZED FREE ENERGY PREDICTED BY IDOCK:   -3.16 KCAL/MOL
REMARK 922        TOTAL FREE ENERGY PREDICTED BY IDOCK:   -3.77 KCAL/MOL
REMARK 923 INTER-LIGAND FREE ENERGY PREDICTED BY IDOCK:   -3.55 KCAL/MOL
REMARK 924 INTRA-LIGAND FREE ENERGY PREDICTED BY IDOCK:   -0.22 KCAL/MOL
REMARK 927      BINDING AFFINITY PREDICTED BY RF-SCORE:    0.00 PKD
ROOT
HETATM    1  C   UNL     1      -8.781   8.773  69.665  1.00  0.00    -0.136 C  
HETATM    2  N   UNL     1      -9.441   9.925  69.065  1.00  0.00    -0.174 NA 
HETATM    3  H   UNL     1      -9.140  10.051  68.099  1.00  0.00     0.000 HD 
ENDROOT
BRANCH   2   4
HETATM    4  C   UNL     1     -10.909   9.873  69.151  1.00  0.00    -0.221 C  
HETATM    5  C   UNL     1     -11.413  10.225  70.556  1.00  0.00    -0.427 C  
BRANCH   4   6
HETATM    6  C   UNL     1     -11.529  10.862  68.132  1.00  0.00    -0.368 C  
BRANCH   6   7
HETATM    7  C   UNL     1     -10.530  11.781  67.381  1.00  0.00    -0.238 C  
HETATM    8  C   UNL     1     -10.809  11.885  65.873  1.00  0.00    -0.342 C  
HETATM    9  C   UNL     1     -12.087  12.660  65.563  1.00  0.00    -0.515 C  
HETATM   10  C   UNL     1     -12.062  14.051  66.190  1.00  0.00    -0.471 C  
HETATM   11  C   UNL     1     -11.765  14.006  67.687  1.00  0.00    -0.412 C  
HETATM   12  C   UNL     1     -10.509  13.193  67.996  1.00  0.00    -0.245 C  
ENDBRANCH   6   7
ENDBRANCH   4   6
ENDBRANCH   2   4
TORSDOF 3
ENDMDL
MODEL       89
REMARK 921   NORMALIZED FREE ENERGY PREDICTED BY IDOCK:   -3.14 KCAL/MOL
REMARK 922        TOTAL FREE ENERGY PREDICTED BY IDOCK:   -3.75 KCAL/MOL
REMARK 923 INTER-LIGAND FREE ENERGY PREDICTED BY IDOCK:   -3.45 KCAL/MOL
REMARK 924 INTRA-LIGAND FREE ENERGY PREDICTED BY IDOCK:   -0.30 KCAL/MOL
REMARK 927      BINDING AFFINITY PREDICTED BY RF-SCORE:    0.00 PKD
ROOT
HETATM    1  C   UNL     1     -10.343   9.481  70.558  1.00  0.00    -0.288 C  
HETATM    2  N   UNL     1      -9.296  10.246  69.894  1.00  0.00    -0.408 NA 
HETATM    3  H   UNL     1      -8.379  10.004  70.269  1.00  0.00     0.000 HD 
ENDROOT
BRANCH   2   4
HETATM    4  C   UNL     1      -9.310  10.113  68.429  1.00  0.00    -0.136 C  
HETATM    5  C   UNL     1     -10.300   9.038  67.961  1.00  0.00    -0.275 C  
BRANCH   4   6
HETATM    6  C   UNL     1      -9.696  11.467  67.782  1.00  0.00    -0.180 C  
BRANCH   6   7
HETATM    7  C   UNL     1     -11.214  11.709  67.563  1.00  0.00    -0.355 C  
HETATM    8  C   UNL     1     -11.886  12.469  68.717  1.00  0.00    -0.347 C  
HETATM    9  C   UNL     1     -11.446  13.930  68.794  1.00  0.00    -0.327 C  
HETATM   10  C   UNL     1     -11.688  14.655  67.473  1.00  0.00    -0.403 C  
HETATM   11  C   UNL     1     -11.060  13.927  66.288  1.00  0.00    -0.304 C  
HETATM   12  C   UNL     1     -11.468  12.456  66.240  1.00  0.00    -0.423 C  
ENDBRANCH   6   7
ENDBRANCH   4   6
ENDBRANCH   2   4
TORSDOF 3
ENDMDL
MODEL       90
REMARK 921   NORMALIZED FREE ENERGY PREDICTED BY IDOCK:   -3.13 KCAL/MOL
REMARK 922        TOTAL FREE ENERGY PREDICTED BY IDOCK:   -3.74 KCAL/MOL
REMARK 923 INTER-LIGAND FREE ENERGY PREDICTED BY IDOCK:   -3.51 KCAL/MOL
REMARK 924 INTRA-LIGAND FREE ENERGY PREDICTED BY IDOCK:   -0.24 KCAL/MOL
REMARK 927      BINDING AFFINITY PREDICTED BY RF-SCORE:    0.00 PKD
ROOT
HETATM    1  C   UNL     1     -10.160  17.301  68.159  1.00  0.00    -0.325 C  
HETATM    2  N   UNL     1     -11.203  16.301  67.973  1.00  0.00    -0.306 NA 
HETATM    3  H   UNL     1     -12.014  16.708  67.508  1.00  0.00     0.000 HD 
ENDROOT
BRANCH   2   4
HETATM    4  C   UNL     1     -10.744  15.098  67.261  1.00  0.00    -0.305 C  
HETATM    5  C   UNL     1      -9.324  15.268  66.707  1.00  0.00    -0.265 C  
BRANCH   4   6
HETATM    6  C   UNL     1     -10.767  13.880  68.219  1.00  0.00    -0.261 C  
BRANCH   6   7
HETATM    7  C   UNL     1     -11.906  12.852  67.985  1.00  0.00    -0.390 C  
HETATM    8  C   UNL     1     -11.899  12.242  66.574  1.00  0.00    -0.378 C  
HETATM    9  C   UNL     1     -10.714  11.306  66.344  1.00  0.00    -0.320 C  
HETATM   10  C   UNL     1     -10.664  10.201  67.396  1.00  0.00    -0.336 C  
HETATM   11  C   UNL     1     -10.693  10.753  68.818  1.00  0.00    -0.243 C  
HETATM   12  C   UNL     1     -11.854  11.722  69.031  1.00  0.00    -0.379 C  
ENDBRANCH   6   7
ENDBRANCH   4   6
ENDBRANCH   2   4
TORSDOF 3
ENDMDL
MODEL       91
REMARK 921   NORMALIZED FREE ENERGY PREDICTED BY IDOCK:   -3.13 KCAL/MOL
REMARK 922        TOTAL FREE ENERGY PREDICTED BY IDOCK:   -3.74 KCAL/MOL
REMARK 923 INTER-LIGAND FREE ENERGY PREDICTED BY IDOCK:   -3.46 KCAL/MOL
REMARK 924 INTRA-LIGAND FREE ENERGY PREDICTED BY IDOCK:   -0.28 KCAL/MOL
REMARK 927      BINDING AFFINITY PREDICTED BY RF-SCORE:    0.00 PKD
ROOT
HETATM    1  C   UNL     1     -10.784  19.525  67.011  1.00  0.00    -0.477 C  
HETATM    2  N   UNL     1     -10.691  18.167  67.532  1.00  0.00    -0.397 NA 
HETATM    3  H   UNL     1     -11.569  17.667  67.396  1.00  0.00     0.000 HD 
ENDROOT
BRANCH   2   4
HETATM    4  C   UNL     1      -9.565  17.400  66.976  1.00  0.00    -0.273 C  
HETATM    5  C   UNL     1     -10.033  16.345  65.967  1.00  0.00    -0.369 C  
BRANCH   4   6
HETATM    6  C   UNL     1      -8.571  18.361  66.275  1.00  0.00    -0.215 C  
BRANCH   6   7
HETATM    7  C   UNL     1      -7.083  18.225  66.693  1.00  0.00    -0.241 C  
HETATM    8  C   UNL     1      -6.180  19.321  66.105  1.00  0.00    -0.195 C  
HETATM    9  C   UNL     1      -6.448  20.695  66.716  1.00  0.00    -0.307 C  
HETATM   10  C   UNL     1      -6.318  20.664  68.236  1.00  0.00    -0.352 C  
HETATM   11  C   UNL     1      -7.179  19.574  68.869  1.00  0.00    -0.397 C  
HETATM   12  C   UNL     1      -6.938  18.210  68.226  1.00  0.00    -0.233 C  
ENDBRANCH   6   7
ENDBRANCH   4   6
ENDBRANCH   2   4
TORSDOF 3
ENDMDL
MODEL       92
REMARK 921   NORMALIZED FREE ENERGY PREDICTED BY IDOCK:   -3.12 KCAL/MOL
REMARK 922        TOTAL FREE ENERGY PREDICTED BY IDOCK:   -3.74 KCAL/MOL
REMARK 923 INTER-LIGAND FREE ENERGY PREDICTED BY IDOCK:   -3.53 KCAL/MOL
REMARK 924 INTRA-LIGAND FREE ENERGY PREDICTED BY IDOCK:   -0.20 KCAL/MOL
REMARK 927      BINDING AFFINITY PREDICTED BY RF-SCORE:    0.00 PKD
ROOT
HETATM    1  C   UNL     1      -6.857  19.956  69.565  1.00  0.00    -0.278 C  
HETATM    2  N   UNL     1      -7.453  19.949  68.235  1.00  0.00    -0.301 NA 
HETATM    3  H   UNL     1      -6.875  19.417  67.584  1.00  0.00     0.000 HD 
ENDROOT
BRANCH   2   4
HETATM    4  C   UNL     1      -8.841  19.463  68.216  1.00  0.00    -0.337 C  
HETATM    5  C   UNL     1      -9.773  20.423  67.466  1.00  0.00    -0.571 C  
BRANCH   4   6
HETATM    6  C   UNL     1      -8.901  18.071  67.537  1.00  0.00    -0.252 C  
BRANCH   6   7
HETATM    7  C   UNL     1     -10.318  17.470  67.341  1.00  0.00    -0.351 C  
HETATM    8  C   UNL     1     -10.393  16.440  66.203  1.00  0.00    -0.354 C  
HETATM    9  C   UNL     1      -9.655  15.144  66.532  1.00  0.00    -0.293 C  
HETATM   10  C   UNL     1     -10.161  14.529  67.833  1.00  0.00    -0.227 C  
HETATM   11  C   UNL     1     -10.129  15.520  68.994  1.00  0.00    -0.234 C  
HETATM   12  C   UNL     1     -10.832  16.831  68.645  1.00  0.00    -0.336 C  
ENDBRANCH   6   7
ENDBRANCH   4   6
ENDBRANCH   2   4
TORSDOF 3
ENDMDL
MODEL       93
REMARK 921   NORMALIZED FREE ENERGY PREDICTED BY IDOCK:   -3.11 KCAL/MOL
REMARK 922        TOTAL FREE ENERGY PREDICTED BY IDOCK:   -3.72 KCAL/MOL
REMARK 923 INTER-LIGAND FREE ENERGY PREDICTED BY IDOCK:   -3.45 KCAL/MOL
REMARK 924 INTRA-LIGAND FREE ENERGY PREDICTED BY IDOCK:   -0.27 KCAL/MOL
REMARK 927      BINDING AFFINITY PREDICTED BY RF-SCORE:    0.00 PKD
ROOT
HETATM    1  C   UNL     1     -13.733   9.399  72.285  1.00  0.00    -0.426 C  
HETATM    2  N   UNL     1     -13.196   9.070  70.971  1.00  0.00    -0.542 NA 
HETATM    3  H   UNL     1     -13.343   9.840  70.318  1.00  0.00     0.000 HD 
ENDROOT
BRANCH   2   4
HETATM    4  C   UNL     1     -11.779   8.674  70.998  1.00  0.00    -0.278 C  
HETATM    5  C   UNL     1     -10.857   9.814  70.546  1.00  0.00    -0.387 C  
BRANCH   4   6
HETATM    6  C   UNL     1     -11.382   8.245  72.433  1.00  0.00    -0.457 C  
BRANCH   6   7
HETATM    7  C   UNL     1     -11.155   6.726  72.651  1.00  0.00    -0.301 C  
HETATM    8  C   UNL     1     -10.486   6.029  71.455  1.00  0.00    -0.278 C  
HETATM    9  C   UNL     1      -9.026   6.439  71.277  1.00  0.00    -0.142 C  
HETATM   10  C   UNL     1      -8.219   6.194  72.548  1.00  0.00    -0.108 C  
HETATM   11  C   UNL     1      -8.854   6.846  73.773  1.00  0.00    -0.179 C  
HETATM   12  C   UNL     1     -10.326   6.467  73.923  1.00  0.00    -0.356 C  
ENDBRANCH   6   7
ENDBRANCH   4   6
ENDBRANCH   2   4
TORSDOF 3
ENDMDL
MODEL       94
REMARK 921   NORMALIZED FREE ENERGY PREDICTED BY IDOCK:   -3.11 KCAL/MOL
REMARK 922        TOTAL FREE ENERGY PREDICTED BY IDOCK:   -3.72 KCAL/MOL
REMARK 923 INTER-LIGAND FREE ENERGY PREDICTED BY IDOCK:   -3.57 KCAL/MOL
REMARK 924 INTRA-LIGAND FREE ENERGY PREDICTED BY IDOCK:   -0.15 KCAL/MOL
REMARK 927      BINDING AFFINITY PREDICTED BY RF-SCORE:    0.00 PKD
ROOT
HETATM    1  C   UNL     1     -10.002  14.898  68.394  1.00  0.00    -0.222 C  
HETATM    2  N   UNL     1     -10.209  13.702  69.200  1.00  0.00    -0.430 NA 
HETATM    3  H   UNL     1     -10.066  13.905  70.189  1.00  0.00     0.000 HD 
ENDROOT
BRANCH   2   4
HETATM    4  C   UNL     1     -11.518  13.066  68.983  1.00  0.00    -0.303 C  
HETATM    5  C   UNL     1     -11.544  12.235  67.694  1.00  0.00    -0.421 C  
BRANCH   4   6
HETATM    6  C   UNL     1     -11.859  12.145  70.182  1.00  0.00    -0.368 C  
BRANCH   6   7
HETATM    7  C   UNL     1     -12.171  10.665  69.835  1.00  0.00    -0.346 C  
HETATM    8  C   UNL     1     -10.986   9.717  70.078  1.00  0.00    -0.319 C  
HETATM    9  C   UNL     1     -10.677   9.529  71.562  1.00  0.00    -0.269 C  
HETATM   10  C   UNL     1     -11.903   9.046  72.330  1.00  0.00    -0.306 C  
HETATM   11  C   UNL     1     -13.118   9.941  72.104  1.00  0.00    -0.497 C  
HETATM   12  C   UNL     1     -13.398  10.161  70.619  1.00  0.00    -0.088 C  
ENDBRANCH   6   7
ENDBRANCH   4   6
ENDBRANCH   2   4
TORSDOF 3
ENDMDL
MODEL       95
REMARK 921   NORMALIZED FREE ENERGY PREDICTED BY IDOCK:   -3.11 KCAL/MOL
REMARK 922        TOTAL FREE ENERGY PREDICTED BY IDOCK:   -3.72 KCAL/MOL
REMARK 923 INTER-LIGAND FREE ENERGY PREDICTED BY IDOCK:   -3.45 KCAL/MOL
REMARK 924 INTRA-LIGAND FREE ENERGY PREDICTED BY IDOCK:   -0.27 KCAL/MOL
REMARK 927      BINDING AFFINITY PREDICTED BY RF-SCORE:    0.00 PKD
ROOT
HETATM    1  C   UNL     1      -6.809  15.506  69.591  1.00  0.00    -0.178 C  
HETATM    2  N   UNL     1      -7.911  14.553  69.561  1.00  0.00    -0.377 NA 
HETATM    3  H   UNL     1      -8.405  14.545  70.453  1.00  0.00     0.000 HD 
ENDROOT
BRANCH   2   4
HETATM    4  C   UNL     1      -8.848  14.774  68.449  1.00  0.00    -0.181 C  
HETATM    5  C   UNL     1      -8.157  15.405  67.234  1.00  0.00    -0.228 C  
BRANCH   4   6
HETATM    6  C   UNL     1      -9.482  13.426  68.022  1.00  0.00    -0.218 C  
BRANCH   6   7
HETATM    7  C   UNL     1     -11.030  13.347  68.098  1.00  0.00    -0.277 C  
HETATM    8  C   UNL     1     -11.737  14.526  67.411  1.00  0.00    -0.425 C  
HETATM    9  C   UNL     1     -11.597  14.491  65.891  1.00  0.00    -0.349 C  
HETATM   10  C   UNL     1     -12.096  13.170  65.315  1.00  0.00    -0.471 C  
HETATM   11  C   UNL     1     -11.441  11.963  65.981  1.00  0.00    -0.344 C  
HETATM   12  C   UNL     1     -11.547  12.023  67.504  1.00  0.00    -0.401 C  
ENDBRANCH   6   7
ENDBRANCH   4   6
ENDBRANCH   2   4
TORSDOF 3
ENDMDL
MODEL       96
REMARK 921   NORMALIZED FREE ENERGY PREDICTED BY IDOCK:   -3.11 KCAL/MOL
REMARK 922        TOTAL FREE ENERGY PREDICTED BY IDOCK:   -3.72 KCAL/MOL
REMARK 923 INTER-LIGAND FREE ENERGY PREDICTED BY IDOCK:   -3.46 KCAL/MOL
REMARK 924 INTRA-LIGAND FREE ENERGY PREDICTED BY IDOCK:   -0.26 KCAL/MOL
REMARK 927      BINDING AFFINITY PREDICTED BY RF-SCORE:    0.00 PKD
ROOT
HETATM    1  C   UNL     1     -12.036  11.322  69.369  1.00  0.00    -0.315 C  
HETATM    2  N   UNL     1     -10.895  10.809  70.116  1.00  0.00    -0.468 NA 
HETATM    3  H   UNL     1     -11.055  10.888  71.120  1.00  0.00     0.000 HD 
ENDROOT
BRANCH   2   4
HETATM    4  C   UNL     1     -10.527   9.431  69.754  1.00  0.00    -0.226 C  
HETATM    5  C   UNL     1      -9.063   9.327  69.309  1.00  0.00    -0.151 C  
BRANCH   4   6
HETATM    6  C   UNL     1     -10.752   8.493  70.967  1.00  0.00    -0.278 C  
BRANCH   6   7
HETATM    7  C   UNL     1     -11.707   7.292  70.730  1.00  0.00    -0.333 C  
HETATM    8  C   UNL     1     -11.224   6.334  69.630  1.00  0.00    -0.506 C  
HETATM    9  C   UNL     1      -9.984   5.543  70.041  1.00  0.00    -0.285 C  
HETATM   10  C   UNL     1     -10.216   4.779  71.341  1.00  0.00    -0.237 C  
HETATM   11  C   UNL     1     -10.721   5.682  72.463  1.00  0.00    -0.285 C  
HETATM   12  C   UNL     1     -11.935   6.503  72.033  1.00  0.00    -0.372 C  
ENDBRANCH   6   7
ENDBRANCH   4   6
ENDBRANCH   2   4
TORSDOF 3
ENDMDL
MODEL       97
REMARK 921   NORMALIZED FREE ENERGY PREDICTED BY IDOCK:   -3.11 KCAL/MOL
REMARK 922        TOTAL FREE ENERGY PREDICTED BY IDOCK:   -3.72 KCAL/MOL
REMARK 923 INTER-LIGAND FREE ENERGY PREDICTED BY IDOCK:   -3.47 KCAL/MOL
REMARK 924 INTRA-LIGAND FREE ENERGY PREDICTED BY IDOCK:   -0.25 KCAL/MOL
REMARK 927      BINDING AFFINITY PREDICTED BY RF-SCORE:    0.00 PKD
ROOT
HETATM    1  C   UNL     1     -12.259  15.087  69.898  1.00  0.00    -0.309 C  
HETATM    2  N   UNL     1     -11.447  13.922  70.225  1.00  0.00    -0.503 NA 
HETATM    3  H   UNL     1     -11.925  13.328  70.903  1.00  0.00     0.000 HD 
ENDROOT
BRANCH   2   4
HETATM    4  C   UNL     1     -11.039  13.141  69.047  1.00  0.00    -0.234 C  
HETATM    5  C   UNL     1     -11.852  11.849  68.906  1.00  0.00    -0.366 C  
BRANCH   4   6
HETATM    6  C   UNL     1     -11.221  13.993  67.765  1.00  0.00    -0.302 C  
BRANCH   6   7
HETATM    7  C   UNL     1      -9.926  14.312  66.970  1.00  0.00    -0.258 C  
HETATM    8  C   UNL     1     -10.178  14.606  65.483  1.00  0.00    -0.395 C  
HETATM    9  C   UNL     1     -10.899  15.934  65.259  1.00  0.00    -0.401 C  
HETATM   10  C   UNL     1     -10.146  17.093  65.905  1.00  0.00    -0.257 C  
HETATM   11  C   UNL     1      -9.849  16.841  67.381  1.00  0.00    -0.252 C  
HETATM   12  C   UNL     1      -9.167  15.493  67.604  1.00  0.00    -0.190 C  
ENDBRANCH   6   7
ENDBRANCH   4   6
ENDBRANCH   2   4
TORSDOF 3
ENDMDL
MODEL       98
REMARK 921   NORMALIZED FREE ENERGY PREDICTED BY IDOCK:   -3.10 KCAL/MOL
REMARK 922        TOTAL FREE ENERGY PREDICTED BY IDOCK:   -3.71 KCAL/MOL
REMARK 923 INTER-LIGAND FREE ENERGY PREDICTED BY IDOCK:   -3.51 KCAL/MOL
REMARK 924 INTRA-LIGAND FREE ENERGY PREDICTED BY IDOCK:   -0.19 KCAL/MOL
REMARK 927      BINDING AFFINITY PREDICTED BY RF-SCORE:    0.00 PKD
ROOT
HETATM    1  C   UNL     1      -6.749  12.410  68.891  1.00  0.00    -0.098 C  
HETATM    2  N   UNL     1      -8.055  11.779  68.741  1.00  0.00    -0.313 NA 
HETATM    3  H   UNL     1      -8.401  11.450  69.642  1.00  0.00     0.000 HD 
ENDROOT
BRANCH   2   4
HETATM    4  C   UNL     1      -9.051  12.640  68.084  1.00  0.00    -0.204 C  
HETATM    5  C   UNL     1      -8.678  14.124  68.181  1.00  0.00    -0.181 C  
BRANCH   4   6
HETATM    6  C   UNL     1      -9.177  12.249  66.589  1.00  0.00    -0.208 C  
BRANCH   6   7
HETATM    7  C   UNL     1     -10.414  11.393  66.212  1.00  0.00    -0.301 C  
HETATM    8  C   UNL     1     -11.739  12.168  66.282  1.00  0.00    -0.389 C  
HETATM    9  C   UNL     1     -11.864  13.221  65.183  1.00  0.00    -0.377 C  
HETATM   10  C   UNL     1     -11.688  12.604  63.798  1.00  0.00    -0.566 C  
HETATM   11  C   UNL     1     -10.395  11.801  63.682  1.00  0.00    -0.476 C  
HETATM   12  C   UNL     1     -10.254  10.779  64.808  1.00  0.00    -0.403 C  
ENDBRANCH   6   7
ENDBRANCH   4   6
ENDBRANCH   2   4
TORSDOF 3
ENDMDL
MODEL       99
REMARK 921   NORMALIZED FREE ENERGY PREDICTED BY IDOCK:   -3.08 KCAL/MOL
REMARK 922        TOTAL FREE ENERGY PREDICTED BY IDOCK:   -3.68 KCAL/MOL
REMARK 923 INTER-LIGAND FREE ENERGY PREDICTED BY IDOCK:   -3.47 KCAL/MOL
REMARK 924 INTRA-LIGAND FREE ENERGY PREDICTED BY IDOCK:   -0.22 KCAL/MOL
REMARK 927      BINDING AFFINITY PREDICTED BY RF-SCORE:    0.00 PKD
ROOT
HETATM    1  C   UNL     1     -10.902   7.430  73.171  1.00  0.00    -0.386 C  
HETATM    2  N   UNL     1     -12.161   8.126  72.942  1.00  0.00    -0.636 NA 
HETATM    3  H   UNL     1     -12.385   8.736  73.729  1.00  0.00     0.000 HD 
ENDROOT
BRANCH   2   4
HETATM    4  C   UNL     1     -12.197   8.876  71.677  1.00  0.00    -0.343 C  
HETATM    5  C   UNL     1     -13.019  10.164  71.796  1.00  0.00    -0.567 C  
BRANCH   4   6
HETATM    6  C   UNL     1     -10.754   9.239  71.242  1.00  0.00    -0.422 C  
BRANCH   6   7
HETATM    7  C   UNL     1     -10.325   8.753  69.832  1.00  0.00    -0.212 C  
HETATM    8  C   UNL     1     -10.774   9.690  68.699  1.00  0.00    -0.233 C  
HETATM    9  C   UNL     1     -10.023  11.021  68.704  1.00  0.00    -0.205 C  
HETATM   10  C   UNL     1      -8.514  10.809  68.646  1.00  0.00    -0.143 C  
HETATM   11  C   UNL     1      -8.018   9.865  69.738  1.00  0.00    -0.181 C  
HETATM   12  C   UNL     1      -8.799   8.553  69.757  1.00  0.00    -0.137 C  
ENDBRANCH   6   7
ENDBRANCH   4   6
ENDBRANCH   2   4
TORSDOF 3
ENDMDL
MODEL      100
REMARK 921   NORMALIZED FREE ENERGY PREDICTED BY IDOCK:   -3.08 KCAL/MOL
REMARK 922        TOTAL FREE ENERGY PREDICTED BY IDOCK:   -3.68 KCAL/MOL
REMARK 923 INTER-LIGAND FREE ENERGY PREDICTED BY IDOCK:   -3.50 KCAL/MOL
REMARK 924 INTRA-LIGAND FREE ENERGY PREDICTED BY IDOCK:   -0.18 KCAL/MOL
REMARK 927      BINDING AFFINITY PREDICTED BY RF-SCORE:    0.00 PKD
ROOT
HETATM    1  C   UNL     1      -8.729   8.262  66.514  1.00  0.00    -0.141 C  
HETATM    2  N   UNL     1     -10.065   8.653  66.948  1.00  0.00    -0.258 NA 
HETATM    3  H   UNL     1     -10.346   8.122  67.772  1.00  0.00     0.000 HD 
ENDROOT
BRANCH   2   4
HETATM    4  C   UNL     1     -10.205  10.098  67.186  1.00  0.00    -0.225 C  
HETATM    5  C   UNL     1     -10.518  10.864  65.894  1.00  0.00    -0.285 C  
BRANCH   4   6
HETATM    6  C   UNL     1     -11.342  10.353  68.209  1.00  0.00    -0.292 C  
BRANCH   6   7
HETATM    7  C   UNL     1     -10.909  10.956  69.572  1.00  0.00    -0.286 C  
HETATM    8  C   UNL     1     -12.076  11.549  70.377  1.00  0.00    -0.471 C  
HETATM    9  C   UNL     1     -13.027  10.479  70.909  1.00  0.00    -0.455 C  
HETATM   10  C   UNL     1     -12.286   9.439  71.744  1.00  0.00    -0.465 C  
HETATM   11  C   UNL     1     -11.100   8.835  70.998  1.00  0.00    -0.328 C  
HETATM   12  C   UNL     1     -10.174   9.909  70.430  1.00  0.00    -0.299 C  
ENDBRANCH   6   7
ENDBRANCH   4   6
ENDBRANCH   2   4
TORSDOF 3
ENDMDL
MODEL      101
REMARK 921   NORMALIZED FREE ENERGY PREDICTED BY IDOCK:   -3.07 KCAL/MOL
REMARK 922        TOTAL FREE ENERGY PREDICTED BY IDOCK:   -3.67 KCAL/MOL
REMARK 923 INTER-LIGAND FREE ENERGY PREDICTED BY IDOCK:   -3.53 KCAL/MOL
REMARK 924 INTRA-LIGAND FREE ENERGY PREDICTED BY IDOCK:   -0.13 KCAL/MOL
REMARK 927      BINDING AFFINITY PREDICTED BY RF-SCORE:    0.00 PKD
ROOT
HETATM    1  C   UNL     1     -11.209  16.212  69.040  1.00  0.00    -0.347 C  
HETATM    2  N   UNL     1     -11.944  15.063  68.525  1.00  0.00    -0.544 NA 
HETATM    3  H   UNL     1     -12.815  15.361  68.084  1.00  0.00     0.000 HD 
ENDROOT
BRANCH   2   4
HETATM    4  C   UNL     1     -11.156  14.224  67.609  1.00  0.00    -0.292 C  
HETATM    5  C   UNL     1      -9.911  14.955  67.091  1.00  0.00    -0.231 C  
BRANCH   4   6
HETATM    6  C   UNL     1     -10.713  12.928  68.334  1.00  0.00    -0.273 C  
BRANCH   6   7
HETATM    7  C   UNL     1     -11.637  11.695  68.149  1.00  0.00    -0.389 C  
HETATM    8  C   UNL     1     -10.902  10.456  67.615  1.00  0.00    -0.361 C  
HETATM    9  C   UNL     1      -9.943   9.852  68.639  1.00  0.00    -0.177 C  
HETATM   10  C   UNL     1     -10.660   9.518  69.944  1.00  0.00    -0.269 C  
HETATM   11  C   UNL     1     -11.427  10.712  70.506  1.00  0.00    -0.407 C  
HETATM   12  C   UNL     1     -12.353  11.338  69.465  1.00  0.00    -0.243 C  
ENDBRANCH   6   7
ENDBRANCH   4   6
ENDBRANCH   2   4
TORSDOF 3
ENDMDL
MODEL      102
REMARK 921   NORMALIZED FREE ENERGY PREDICTED BY IDOCK:   -3.06 KCAL/MOL
REMARK 922        TOTAL FREE ENERGY PREDICTED BY IDOCK:   -3.67 KCAL/MOL
REMARK 923 INTER-LIGAND FREE ENERGY PREDICTED BY IDOCK:   -3.46 KCAL/MOL
REMARK 924 INTRA-LIGAND FREE ENERGY PREDICTED BY IDOCK:   -0.20 KCAL/MOL
REMARK 927      BINDING AFFINITY PREDICTED BY RF-SCORE:    0.00 PKD
ROOT
HETATM    1  C   UNL     1     -10.277  15.189  69.107  1.00  0.00    -0.249 C  
HETATM    2  N   UNL     1      -9.893  13.953  68.437  1.00  0.00    -0.227 NA 
HETATM    3  H   UNL     1     -10.056  13.149  69.043  1.00  0.00     0.000 HD 
ENDROOT
BRANCH   2   4
HETATM    4  C   UNL     1     -10.547  13.763  67.133  1.00  0.00    -0.277 C  
HETATM    5  C   UNL     1     -10.473  15.025  66.266  1.00  0.00    -0.309 C  
BRANCH   4   6
HETATM    6  C   UNL     1      -9.874  12.591  66.374  1.00  0.00    -0.260 C  
BRANCH   6   7
HETATM    7  C   UNL     1     -10.834  11.537  65.760  1.00  0.00    -0.319 C  
HETATM    8  C   UNL     1     -11.486  11.996  64.446  1.00  0.00    -0.413 C  
HETATM    9  C   UNL     1     -10.489  12.077  63.291  1.00  0.00    -0.403 C  
HETATM   10  C   UNL     1      -9.766  10.749  63.085  1.00  0.00    -0.394 C  
HETATM   11  C   UNL     1      -9.120  10.235  64.369  1.00  0.00    -0.275 C  
HETATM   12  C   UNL     1     -10.109  10.197  65.531  1.00  0.00    -0.338 C  
ENDBRANCH   6   7
ENDBRANCH   4   6
ENDBRANCH   2   4
TORSDOF 3
ENDMDL
MODEL      103
REMARK 921   NORMALIZED FREE ENERGY PREDICTED BY IDOCK:   -3.06 KCAL/MOL
REMARK 922        TOTAL FREE ENERGY PREDICTED BY IDOCK:   -3.66 KCAL/MOL
REMARK 923 INTER-LIGAND FREE ENERGY PREDICTED BY IDOCK:   -3.47 KCAL/MOL
REMARK 924 INTRA-LIGAND FREE ENERGY PREDICTED BY IDOCK:   -0.19 KCAL/MOL
REMARK 927      BINDING AFFINITY PREDICTED BY RF-SCORE:    0.00 PKD
ROOT
HETATM    1  C   UNL     1      -8.958   4.967  72.273  1.00  0.00    -0.130 C  
HETATM    2  N   UNL     1      -8.805   6.196  71.505  1.00  0.00    -0.135 NA 
HETATM    3  H   UNL     1      -7.828   6.345  71.253  1.00  0.00     0.000 HD 
ENDROOT
BRANCH   2   4
HETATM    4  C   UNL     1      -9.665   6.255  70.313  1.00  0.00    -0.164 C  
HETATM    5  C   UNL     1     -10.121   4.860  69.866  1.00  0.00    -0.332 C  
BRANCH   4   6
HETATM    6  C   UNL     1     -10.915   7.121  70.610  1.00  0.00    -0.283 C  
BRANCH   6   7
HETATM    7  C   UNL     1     -10.744   8.211  71.701  1.00  0.00    -0.299 C  
HETATM    8  C   UNL     1     -10.330   9.580  71.139  1.00  0.00    -0.330 C  
HETATM    9  C   UNL     1     -11.446  10.251  70.341  1.00  0.00    -0.415 C  
HETATM   10  C   UNL     1     -12.721  10.385  71.169  1.00  0.00    -0.514 C  
HETATM   11  C   UNL     1     -13.163   9.055  71.772  1.00  0.00    -0.445 C  
HETATM   12  C   UNL     1     -12.031   8.367  72.533  1.00  0.00    -0.418 C  
ENDBRANCH   6   7
ENDBRANCH   4   6
ENDBRANCH   2   4
TORSDOF 3
ENDMDL
MODEL      104
REMARK 921   NORMALIZED FREE ENERGY PREDICTED BY IDOCK:   -3.04 KCAL/MOL
REMARK 922        TOTAL FREE ENERGY PREDICTED BY IDOCK:   -3.63 KCAL/MOL
REMARK 923 INTER-LIGAND FREE ENERGY PREDICTED BY IDOCK:   -3.44 KCAL/MOL
REMARK 924 INTRA-LIGAND FREE ENERGY PREDICTED BY IDOCK:   -0.19 KCAL/MOL
REMARK 927      BINDING AFFINITY PREDICTED BY RF-SCORE:    0.00 PKD
ROOT
HETATM    1  C   UNL     1     -10.700  19.610  67.068  1.00  0.00    -0.455 C  
HETATM    2  N   UNL     1     -10.542  18.283  67.649  1.00  0.00    -0.419 NA 
HETATM    3  H   UNL     1     -11.226  17.634  67.259  1.00  0.00     0.000 HD 
ENDROOT
BRANCH   2   4
HETATM    4  C   UNL     1      -9.180  17.743  67.519  1.00  0.00    -0.244 C  
HETATM    5  C   UNL     1      -8.163  18.552  68.334  1.00  0.00    -0.351 C  
BRANCH   4   6
HETATM    6  C   UNL     1      -9.151  16.270  68.000  1.00  0.00    -0.188 C  
BRANCH   6   7
HETATM    7  C   UNL     1      -8.873  15.203  66.908  1.00  0.00    -0.284 C  
HETATM    8  C   UNL     1      -8.888  13.762  67.443  1.00  0.00    -0.211 C  
HETATM    9  C   UNL     1     -10.286  13.297  67.844  1.00  0.00    -0.239 C  
HETATM   10  C   UNL     1     -11.274  13.441  66.690  1.00  0.00    -0.330 C  
HETATM   11  C   UNL     1     -11.282  14.851  66.106  1.00  0.00    -0.325 C  
HETATM   12  C   UNL     1      -9.876  15.328  65.746  1.00  0.00    -0.395 C  
ENDBRANCH   6   7
ENDBRANCH   4   6
ENDBRANCH   2   4
TORSDOF 3
ENDMDL
MODEL      105
REMARK 921   NORMALIZED FREE ENERGY PREDICTED BY IDOCK:   -3.02 KCAL/MOL
REMARK 922        TOTAL FREE ENERGY PREDICTED BY IDOCK:   -3.61 KCAL/MOL
REMARK 923 INTER-LIGAND FREE ENERGY PREDICTED BY IDOCK:   -3.37 KCAL/MOL
REMARK 924 INTRA-LIGAND FREE ENERGY PREDICTED BY IDOCK:   -0.24 KCAL/MOL
REMARK 927      BINDING AFFINITY PREDICTED BY RF-SCORE:    0.00 PKD
ROOT
HETATM    1  C   UNL     1     -10.689   3.708  63.810  1.00  0.00    -0.261 C  
HETATM    2  N   UNL     1     -11.346   4.423  64.897  1.00  0.00    -1.085 NA 
HETATM    3  H   UNL     1     -12.252   4.005  65.108  1.00  0.00     0.000 HD 
ENDROOT
BRANCH   2   4
HETATM    4  C   UNL     1     -10.525   4.527  66.113  1.00  0.00    -0.159 C  
HETATM    5  C   UNL     1      -9.312   3.590  66.067  1.00  0.00    -0.163 C  
BRANCH   4   6
HETATM    6  C   UNL     1     -10.029   5.984  66.288  1.00  0.00    -0.085 C  
BRANCH   6   7
HETATM    7  C   UNL     1     -10.863   6.877  67.245  1.00  0.00    -0.426 C  
HETATM    8  C   UNL     1     -11.158   6.213  68.599  1.00  0.00    -0.378 C  
HETATM    9  C   UNL     1      -9.911   6.073  69.470  1.00  0.00    -0.225 C  
HETATM   10  C   UNL     1      -9.225   7.419  69.682  1.00  0.00    -0.146 C  
HETATM   11  C   UNL     1      -8.930   8.133  68.366  1.00  0.00    -0.136 C  
HETATM   12  C   UNL     1     -10.170   8.233  67.480  1.00  0.00    -0.309 C  
ENDBRANCH   6   7
ENDBRANCH   4   6
ENDBRANCH   2   4
TORSDOF 3
ENDMDL
MODEL      106
REMARK 921   NORMALIZED FREE ENERGY PREDICTED BY IDOCK:   -3.01 KCAL/MOL
REMARK 922        TOTAL FREE ENERGY PREDICTED BY IDOCK:   -3.60 KCAL/MOL
REMARK 923 INTER-LIGAND FREE ENERGY PREDICTED BY IDOCK:   -3.38 KCAL/MOL
REMARK 924 INTRA-LIGAND FREE ENERGY PREDICTED BY IDOCK:   -0.22 KCAL/MOL
REMARK 927      BINDING AFFINITY PREDICTED BY RF-SCORE:    0.00 PKD
ROOT
HETATM    1  C   UNL     1      -9.854   7.963  66.659  1.00  0.00    -0.241 C  
HETATM    2  N   UNL     1     -11.062   7.605  67.391  1.00  0.00    -0.511 NA 
HETATM    3  H   UNL     1     -11.882   7.671  66.788  1.00  0.00     0.000 HD 
ENDROOT
BRANCH   2   4
HETATM    4  C   UNL     1     -10.992   6.282  68.030  1.00  0.00    -0.327 C  
HETATM    5  C   UNL     1      -9.668   5.569  67.726  1.00  0.00    -0.150 C  
BRANCH   4   6
HETATM    6  C   UNL     1     -11.141   6.432  69.565  1.00  0.00    -0.460 C  
BRANCH   6   7
HETATM    7  C   UNL     1     -10.420   7.650  70.203  1.00  0.00    -0.227 C  
HETATM    8  C   UNL     1     -11.359   8.565  71.005  1.00  0.00    -0.313 C  
HETATM    9  C   UNL     1     -11.857   7.913  72.293  1.00  0.00    -0.404 C  
HETATM   10  C   UNL     1     -10.696   7.451  73.169  1.00  0.00    -0.436 C  
HETATM   11  C   UNL     1      -9.719   6.556  72.412  1.00  0.00    -0.158 C  
HETATM   12  C   UNL     1      -9.257   7.194  71.103  1.00  0.00    -0.157 C  
ENDBRANCH   6   7
ENDBRANCH   4   6
ENDBRANCH   2   4
TORSDOF 3
ENDMDL
MODEL      107
REMARK 921   NORMALIZED FREE ENERGY PREDICTED BY IDOCK:   -2.99 KCAL/MOL
REMARK 922        TOTAL FREE ENERGY PREDICTED BY IDOCK:   -3.58 KCAL/MOL
REMARK 923 INTER-LIGAND FREE ENERGY PREDICTED BY IDOCK:   -3.35 KCAL/MOL
REMARK 924 INTRA-LIGAND FREE ENERGY PREDICTED BY IDOCK:   -0.23 KCAL/MOL
REMARK 927      BINDING AFFINITY PREDICTED BY RF-SCORE:    0.00 PKD
ROOT
HETATM    1  C   UNL     1      -9.535   4.191  66.778  1.00  0.00    -0.193 C  
HETATM    2  N   UNL     1     -10.571   5.216  66.810  1.00  0.00    -0.313 NA 
HETATM    3  H   UNL     1     -11.466   4.815  67.089  1.00  0.00     0.000 HD 
ENDROOT
BRANCH   2   4
HETATM    4  C   UNL     1     -10.230   6.369  67.658  1.00  0.00    -0.169 C  
HETATM    5  C   UNL     1     -10.449   7.701  66.929  1.00  0.00    -0.388 C  
BRANCH   4   6
HETATM    6  C   UNL     1     -11.098   6.351  68.942  1.00  0.00    -0.420 C  
BRANCH   6   7
HETATM    7  C   UNL     1     -10.329   6.466  70.285  1.00  0.00    -0.252 C  
HETATM    8  C   UNL     1      -9.775   7.873  70.554  1.00  0.00    -0.174 C  
HETATM    9  C   UNL     1     -10.873   8.893  70.849  1.00  0.00    -0.308 C  
HETATM   10  C   UNL     1     -11.754   8.442  72.011  1.00  0.00    -0.417 C  
HETATM   11  C   UNL     1     -12.313   7.037  71.805  1.00  0.00    -0.391 C  
HETATM   12  C   UNL     1     -11.215   6.030  71.468  1.00  0.00    -0.326 C  
ENDBRANCH   6   7
ENDBRANCH   4   6
ENDBRANCH   2   4
TORSDOF 3
ENDMDL
MODEL      108
REMARK 921   NORMALIZED FREE ENERGY PREDICTED BY IDOCK:   -2.98 KCAL/MOL
REMARK 922        TOTAL FREE ENERGY PREDICTED BY IDOCK:   -3.57 KCAL/MOL
REMARK 923 INTER-LIGAND FREE ENERGY PREDICTED BY IDOCK:   -3.36 KCAL/MOL
REMARK 924 INTRA-LIGAND FREE ENERGY PREDICTED BY IDOCK:   -0.21 KCAL/MOL
REMARK 927      BINDING AFFINITY PREDICTED BY RF-SCORE:    0.00 PKD
ROOT
HETATM    1  C   UNL     1     -12.448   9.063  71.467  1.00  0.00    -0.331 C  
HETATM    2  N   UNL     1     -11.822   9.409  70.197  1.00  0.00    -0.466 NA 
HETATM    3  H   UNL     1     -12.481   9.899  69.592  1.00  0.00     0.000 HD 
ENDROOT
BRANCH   2   4
HETATM    4  C   UNL     1     -10.579  10.181  70.345  1.00  0.00    -0.224 C  
HETATM    5  C   UNL     1      -9.372   9.276  70.619  1.00  0.00    -0.329 C  
BRANCH   4   6
HETATM    6  C   UNL     1     -10.312  10.999  69.056  1.00  0.00    -0.229 C  
BRANCH   6   7
HETATM    7  C   UNL     1     -11.132  10.584  67.805  1.00  0.00    -0.382 C  
HETATM    8  C   UNL     1     -11.463  11.760  66.873  1.00  0.00    -0.364 C  
HETATM    9  C   UNL     1     -10.232  12.304  66.151  1.00  0.00    -0.263 C  
HETATM   10  C   UNL     1      -9.509  11.206  65.377  1.00  0.00    -0.253 C  
HETATM   11  C   UNL     1      -9.177  10.001  66.253  1.00  0.00    -0.199 C  
HETATM   12  C   UNL     1     -10.402   9.487  67.006  1.00  0.00    -0.319 C  
ENDBRANCH   6   7
ENDBRANCH   4   6
ENDBRANCH   2   4
TORSDOF 3
ENDMDL
MODEL      109
REMARK 921   NORMALIZED FREE ENERGY PREDICTED BY IDOCK:   -2.98 KCAL/MOL
REMARK 922        TOTAL FREE ENERGY PREDICTED BY IDOCK:   -3.57 KCAL/MOL
REMARK 923 INTER-LIGAND FREE ENERGY PREDICTED BY IDOCK:   -3.26 KCAL/MOL
REMARK 924 INTRA-LIGAND FREE ENERGY PREDICTED BY IDOCK:   -0.30 KCAL/MOL
REMARK 927      BINDING AFFINITY PREDICTED BY RF-SCORE:    0.00 PKD
ROOT
HETATM    1  C   UNL     1     -11.092   6.154  69.563  1.00  0.00    -0.420 C  
HETATM    2  N   UNL     1     -10.300   6.380  70.766  1.00  0.00    -0.196 NA 
HETATM    3  H   UNL     1      -9.347   6.652  70.525  1.00  0.00     0.000 HD 
ENDROOT
BRANCH   2   4
HETATM    4  C   UNL     1     -10.901   7.354  71.690  1.00  0.00    -0.220 C  
HETATM    5  C   UNL     1      -9.866   7.936  72.661  1.00  0.00    -0.316 C  
BRANCH   4   6
HETATM    6  C   UNL     1     -11.543   8.513  70.886  1.00  0.00    -0.295 C  
BRANCH   6   7
HETATM    7  C   UNL     1     -10.682   9.795  70.734  1.00  0.00    -0.393 C  
HETATM    8  C   UNL     1      -9.710   9.741  69.545  1.00  0.00    -0.228 C  
HETATM    9  C   UNL     1     -10.425   9.803  68.197  1.00  0.00    -0.258 C  
HETATM   10  C   UNL     1     -11.315  11.038  68.094  1.00  0.00    -0.374 C  
HETATM   11  C   UNL     1     -12.285  11.152  69.266  1.00  0.00    -0.295 C  
HETATM   12  C   UNL     1     -11.571  11.047  70.612  1.00  0.00    -0.268 C  
ENDBRANCH   6   7
ENDBRANCH   4   6
ENDBRANCH   2   4
TORSDOF 3
ENDMDL
MODEL      110
REMARK 921   NORMALIZED FREE ENERGY PREDICTED BY IDOCK:   -2.98 KCAL/MOL
REMARK 922        TOTAL FREE ENERGY PREDICTED BY IDOCK:   -3.56 KCAL/MOL
REMARK 923 INTER-LIGAND FREE ENERGY PREDICTED BY IDOCK:   -3.33 KCAL/MOL
REMARK 924 INTRA-LIGAND FREE ENERGY PREDICTED BY IDOCK:   -0.24 KCAL/MOL
REMARK 927      BINDING AFFINITY PREDICTED BY RF-SCORE:    0.00 PKD
ROOT
HETATM    1  C   UNL     1      -8.777  11.936  67.542  1.00  0.00    -0.163 C  
HETATM    2  N   UNL     1      -9.212  11.566  68.883  1.00  0.00    -0.395 NA 
HETATM    3  H   UNL     1      -8.955  12.286  69.557  1.00  0.00     0.000 HD 
ENDROOT
BRANCH   2   4
HETATM    4  C   UNL     1     -10.649  11.260  68.971  1.00  0.00    -0.208 C  
HETATM    5  C   UNL     1     -11.139  10.455  67.761  1.00  0.00    -0.365 C  
BRANCH   4   6
HETATM    6  C   UNL     1     -10.935  10.452  70.262  1.00  0.00    -0.353 C  
BRANCH   6   7
HETATM    7  C   UNL     1     -10.726   8.917  70.163  1.00  0.00    -0.245 C  
HETATM    8  C   UNL     1      -9.344   8.455  70.652  1.00  0.00    -0.182 C  
HETATM    9  C   UNL     1      -9.177   8.597  72.163  1.00  0.00    -0.326 C  
HETATM   10  C   UNL     1     -10.277   7.856  72.918  1.00  0.00    -0.397 C  
HETATM   11  C   UNL     1     -11.673   8.262  72.453  1.00  0.00    -0.463 C  
HETATM   12  C   UNL     1     -11.822   8.160  70.937  1.00  0.00    -0.232 C  
ENDBRANCH   6   7
ENDBRANCH   4   6
ENDBRANCH   2   4
TORSDOF 3
ENDMDL
MODEL      111
REMARK 921   NORMALIZED FREE ENERGY PREDICTED BY IDOCK:   -2.98 KCAL/MOL
REMARK 922        TOTAL FREE ENERGY PREDICTED BY IDOCK:   -3.56 KCAL/MOL
REMARK 923 INTER-LIGAND FREE ENERGY PREDICTED BY IDOCK:   -3.28 KCAL/MOL
REMARK 924 INTRA-LIGAND FREE ENERGY PREDICTED BY IDOCK:   -0.28 KCAL/MOL
REMARK 927      BINDING AFFINITY PREDICTED BY RF-SCORE:    0.00 PKD
ROOT
HETATM    1  C   UNL     1      -6.395  17.404  69.028  1.00  0.00    -0.220 C  
HETATM    2  N   UNL     1      -7.400  18.272  68.427  1.00  0.00    -0.265 NA 
HETATM    3  H   UNL     1      -7.185  18.447  67.445  1.00  0.00     0.000 HD 
ENDROOT
BRANCH   2   4
HETATM    4  C   UNL     1      -8.775  17.772  68.577  1.00  0.00    -0.283 C  
HETATM    5  C   UNL     1      -9.801  18.912  68.593  1.00  0.00    -0.463 C  
BRANCH   4   6
HETATM    6  C   UNL     1      -9.113  16.808  67.411  1.00  0.00    -0.221 C  
BRANCH   6   7
HETATM    7  C   UNL     1      -9.226  15.305  67.782  1.00  0.00    -0.187 C  
HETATM    8  C   UNL     1     -10.219  15.029  68.921  1.00  0.00    -0.235 C  
HETATM    9  C   UNL     1     -11.671  15.255  68.504  1.00  0.00    -0.352 C  
HETATM   10  C   UNL     1     -12.033  14.426  67.275  1.00  0.00    -0.409 C  
HETATM   11  C   UNL     1     -11.061  14.646  66.119  1.00  0.00    -0.334 C  
HETATM   12  C   UNL     1      -9.608  14.461  66.552  1.00  0.00    -0.310 C  
ENDBRANCH   6   7
ENDBRANCH   4   6
ENDBRANCH   2   4
TORSDOF 3
ENDMDL
MODEL      112
REMARK 921   NORMALIZED FREE ENERGY PREDICTED BY IDOCK:   -2.97 KCAL/MOL
REMARK 922        TOTAL FREE ENERGY PREDICTED BY IDOCK:   -3.56 KCAL/MOL
REMARK 923 INTER-LIGAND FREE ENERGY PREDICTED BY IDOCK:   -3.29 KCAL/MOL
REMARK 924 INTRA-LIGAND FREE ENERGY PREDICTED BY IDOCK:   -0.27 KCAL/MOL
REMARK 927      BINDING AFFINITY PREDICTED BY RF-SCORE:    0.00 PKD
ROOT
HETATM    1  C   UNL     1     -11.860  11.529  69.900  1.00  0.00    -0.355 C  
HETATM    2  N   UNL     1     -10.474  11.655  69.469  1.00  0.00    -0.429 NA 
HETATM    3  H   UNL     1     -10.037  10.738  69.387  1.00  0.00     0.000 HD 
ENDROOT
BRANCH   2   4
HETATM    4  C   UNL     1     -10.313  12.422  68.223  1.00  0.00    -0.227 C  
HETATM    5  C   UNL     1     -11.353  12.024  67.168  1.00  0.00    -0.396 C  
BRANCH   4   6
HETATM    6  C   UNL     1     -10.451  13.937  68.519  1.00  0.00    -0.253 C  
BRANCH   6   7
HETATM    7  C   UNL     1      -9.188  14.799  68.255  1.00  0.00    -0.187 C  
HETATM    8  C   UNL     1      -8.631  14.648  66.830  1.00  0.00    -0.233 C  
HETATM    9  C   UNL     1      -9.540  15.272  65.773  1.00  0.00    -0.359 C  
HETATM   10  C   UNL     1      -9.821  16.741  66.076  1.00  0.00    -0.311 C  
HETATM   11  C   UNL     1     -10.355  16.950  67.491  1.00  0.00    -0.318 C  
HETATM   12  C   UNL     1      -9.465  16.287  68.541  1.00  0.00    -0.219 C  
ENDBRANCH   6   7
ENDBRANCH   4   6
ENDBRANCH   2   4
TORSDOF 3
ENDMDL
MODEL      113
REMARK 921   NORMALIZED FREE ENERGY PREDICTED BY IDOCK:   -2.93 KCAL/MOL
REMARK 922        TOTAL FREE ENERGY PREDICTED BY IDOCK:   -3.51 KCAL/MOL
REMARK 923 INTER-LIGAND FREE ENERGY PREDICTED BY IDOCK:   -3.27 KCAL/MOL
REMARK 924 INTRA-LIGAND FREE ENERGY PREDICTED BY IDOCK:   -0.24 KCAL/MOL
REMARK 927      BINDING AFFINITY PREDICTED BY RF-SCORE:    0.00 PKD
ROOT
HETATM    1  C   UNL     1     -10.250  11.958  64.708  1.00  0.00    -0.276 C  
HETATM    2  N   UNL     1      -9.497  11.390  65.819  1.00  0.00    -0.229 NA 
HETATM    3  H   UNL     1      -8.656  10.921  65.482  1.00  0.00     0.000 HD 
ENDROOT
BRANCH   2   4
HETATM    4  C   UNL     1      -9.163  12.369  66.865  1.00  0.00    -0.209 C  
HETATM    5  C   UNL     1      -9.777  13.745  66.579  1.00  0.00    -0.301 C  
BRANCH   4   6
HETATM    6  C   UNL     1      -9.675  11.865  68.238  1.00  0.00    -0.200 C  
BRANCH   6   7
HETATM    7  C   UNL     1     -10.850  10.852  68.196  1.00  0.00    -0.283 C  
HETATM    8  C   UNL     1     -10.510   9.494  68.830  1.00  0.00    -0.235 C  
HETATM    9  C   UNL     1     -10.353   9.576  70.347  1.00  0.00    -0.334 C  
HETATM   10  C   UNL     1     -11.596  10.169  71.005  1.00  0.00    -0.462 C  
HETATM   11  C   UNL     1     -11.991  11.510  70.394  1.00  0.00    -0.459 C  
HETATM   12  C   UNL     1     -12.106  11.434  68.873  1.00  0.00    -0.285 C  
ENDBRANCH   6   7
ENDBRANCH   4   6
ENDBRANCH   2   4
TORSDOF 3
ENDMDL
MODEL      114
REMARK 921   NORMALIZED FREE ENERGY PREDICTED BY IDOCK:   -2.93 KCAL/MOL
REMARK 922        TOTAL FREE ENERGY PREDICTED BY IDOCK:   -3.51 KCAL/MOL
REMARK 923 INTER-LIGAND FREE ENERGY PREDICTED BY IDOCK:   -3.29 KCAL/MOL
REMARK 924 INTRA-LIGAND FREE ENERGY PREDICTED BY IDOCK:   -0.22 KCAL/MOL
REMARK 927      BINDING AFFINITY PREDICTED BY RF-SCORE:    0.00 PKD
ROOT
HETATM    1  C   UNL     1     -10.796  15.905  67.519  1.00  0.00    -0.305 C  
HETATM    2  N   UNL     1     -10.263  17.176  67.992  1.00  0.00    -0.315 NA 
HETATM    3  H   UNL     1      -9.301  17.066  68.312  1.00  0.00     0.000 HD 
ENDROOT
BRANCH   2   4
HETATM    4  C   UNL     1     -10.362  18.259  67.002  1.00  0.00    -0.389 C  
HETATM    5  C   UNL     1     -10.770  19.589  67.647  1.00  0.00    -0.527 C  
BRANCH   4   6
HETATM    6  C   UNL     1      -8.998  18.445  66.289  1.00  0.00    -0.205 C  
BRANCH   6   7
HETATM    7  C   UNL     1      -7.738  18.142  67.142  1.00  0.00    -0.232 C  
HETATM    8  C   UNL     1      -6.591  17.511  66.337  1.00  0.00    -0.290 C  
HETATM    9  C   UNL     1      -5.953  18.492  65.354  1.00  0.00    -0.284 C  
HETATM   10  C   UNL     1      -5.469  19.754  66.062  1.00  0.00    -0.167 C  
HETATM   11  C   UNL     1      -6.566  20.408  66.897  1.00  0.00    -0.279 C  
HETATM   12  C   UNL     1      -7.229  19.414  67.848  1.00  0.00    -0.291 C  
ENDBRANCH   6   7
ENDBRANCH   4   6
ENDBRANCH   2   4
TORSDOF 3
ENDMDL
MODEL      115
REMARK 921   NORMALIZED FREE ENERGY PREDICTED BY IDOCK:   -2.93 KCAL/MOL
REMARK 922        TOTAL FREE ENERGY PREDICTED BY IDOCK:   -3.51 KCAL/MOL
REMARK 923 INTER-LIGAND FREE ENERGY PREDICTED BY IDOCK:   -3.26 KCAL/MOL
REMARK 924 INTRA-LIGAND FREE ENERGY PREDICTED BY IDOCK:   -0.24 KCAL/MOL
REMARK 927      BINDING AFFINITY PREDICTED BY RF-SCORE:    0.00 PKD
ROOT
HETATM    1  C   UNL     1     -10.958  10.601  68.844  1.00  0.00    -0.249 C  
HETATM    2  N   UNL     1     -11.457  11.296  67.664  1.00  0.00    -0.482 NA 
HETATM    3  H   UNL     1     -11.953  12.147  67.930  1.00  0.00     0.000 HD 
ENDROOT
BRANCH   2   4
HETATM    4  C   UNL     1     -10.414  11.592  66.670  1.00  0.00    -0.238 C  
HETATM    5  C   UNL     1     -10.978  11.641  65.245  1.00  0.00    -0.327 C  
BRANCH   4   6
HETATM    6  C   UNL     1      -9.750  12.954  66.996  1.00  0.00    -0.230 C  
BRANCH   6   7
HETATM    7  C   UNL     1     -10.552  14.217  66.583  1.00  0.00    -0.278 C  
HETATM    8  C   UNL     1     -11.173  14.964  67.774  1.00  0.00    -0.329 C  
HETATM    9  C   UNL     1     -10.126  15.652  68.648  1.00  0.00    -0.210 C  
HETATM   10  C   UNL     1      -9.252  16.598  67.831  1.00  0.00    -0.219 C  
HETATM   11  C   UNL     1      -8.629  15.911  66.619  1.00  0.00    -0.320 C  
HETATM   12  C   UNL     1      -9.674  15.188  65.771  1.00  0.00    -0.379 C  
ENDBRANCH   6   7
ENDBRANCH   4   6
ENDBRANCH   2   4
TORSDOF 3
ENDMDL
MODEL      116
REMARK 921   NORMALIZED FREE ENERGY PREDICTED BY IDOCK:   -2.91 KCAL/MOL
REMARK 922        TOTAL FREE ENERGY PREDICTED BY IDOCK:   -3.48 KCAL/MOL
REMARK 923 INTER-LIGAND FREE ENERGY PREDICTED BY IDOCK:   -3.32 KCAL/MOL
REMARK 924 INTRA-LIGAND FREE ENERGY PREDICTED BY IDOCK:   -0.16 KCAL/MOL
REMARK 927      BINDING AFFINITY PREDICTED BY RF-SCORE:    0.00 PKD
ROOT
HETATM    1  C   UNL     1     -11.892  15.731  71.087  1.00  0.00    -0.425 C  
HETATM    2  N   UNL     1     -10.596  15.174  70.721  1.00  0.00    -0.521 NA 
HETATM    3  H   UNL     1     -10.511  14.212  71.050  1.00  0.00     0.000 HD 
ENDROOT
BRANCH   2   4
HETATM    4  C   UNL     1     -10.305  15.259  69.282  1.00  0.00    -0.259 C  
HETATM    5  C   UNL     1     -11.584  15.234  68.436  1.00  0.00    -0.365 C  
BRANCH   4   6
HETATM    6  C   UNL     1      -9.528  16.566  68.980  1.00  0.00    -0.249 C  
BRANCH   6   7
HETATM    7  C   UNL     1      -8.043  16.394  68.562  1.00  0.00    -0.205 C  
HETATM    8  C   UNL     1      -7.833  16.398  67.039  1.00  0.00    -0.247 C  
HETATM    9  C   UNL     1      -8.073  17.771  66.416  1.00  0.00    -0.296 C  
HETATM   10  C   UNL     1      -7.203  18.840  67.071  1.00  0.00    -0.218 C  
HETATM   11  C   UNL     1      -7.357  18.863  68.589  1.00  0.00    -0.343 C  
HETATM   12  C   UNL     1      -7.159  17.479  69.204  1.00  0.00    -0.195 C  
ENDBRANCH   6   7
ENDBRANCH   4   6
ENDBRANCH   2   4
TORSDOF 3
ENDMDL
MODEL      117
REMARK 921   NORMALIZED FREE ENERGY PREDICTED BY IDOCK:   -2.90 KCAL/MOL
REMARK 922        TOTAL FREE ENERGY PREDICTED BY IDOCK:   -3.48 KCAL/MOL
REMARK 923 INTER-LIGAND FREE ENERGY PREDICTED BY IDOCK:   -3.26 KCAL/MOL
REMARK 924 INTRA-LIGAND FREE ENERGY PREDICTED BY IDOCK:   -0.22 KCAL/MOL
REMARK 927      BINDING AFFINITY PREDICTED BY RF-SCORE:    0.00 PKD
ROOT
HETATM    1  C   UNL     1     -12.331  13.665  65.518  1.00  0.00    -0.482 C  
HETATM    2  N   UNL     1     -11.489  14.696  66.112  1.00  0.00    -0.349 NA 
HETATM    3  H   UNL     1     -11.727  15.615  65.738  1.00  0.00     0.000 HD 
ENDROOT
BRANCH   2   4
HETATM    4  C   UNL     1     -11.523  14.708  67.582  1.00  0.00    -0.346 C  
HETATM    5  C   UNL     1     -11.305  13.310  68.172  1.00  0.00    -0.323 C  
BRANCH   4   6
HETATM    6  C   UNL     1     -10.426  15.659  68.125  1.00  0.00    -0.259 C  
BRANCH   6   7
HETATM    7  C   UNL     1      -9.491  16.295  67.062  1.00  0.00    -0.237 C  
HETATM    8  C   UNL     1      -9.515  17.832  67.066  1.00  0.00    -0.271 C  
HETATM    9  C   UNL     1      -8.860  18.427  68.311  1.00  0.00    -0.323 C  
HETATM   10  C   UNL     1      -7.430  17.922  68.484  1.00  0.00    -0.270 C  
HETATM   11  C   UNL     1      -7.347  16.399  68.463  1.00  0.00    -0.181 C  
HETATM   12  C   UNL     1      -8.041  15.805  67.238  1.00  0.00    -0.217 C  
ENDBRANCH   6   7
ENDBRANCH   4   6
ENDBRANCH   2   4
TORSDOF 3
ENDMDL
MODEL      118
REMARK 921   NORMALIZED FREE ENERGY PREDICTED BY IDOCK:   -2.88 KCAL/MOL
REMARK 922        TOTAL FREE ENERGY PREDICTED BY IDOCK:   -3.45 KCAL/MOL
REMARK 923 INTER-LIGAND FREE ENERGY PREDICTED BY IDOCK:   -3.28 KCAL/MOL
REMARK 924 INTRA-LIGAND FREE ENERGY PREDICTED BY IDOCK:   -0.17 KCAL/MOL
REMARK 927      BINDING AFFINITY PREDICTED BY RF-SCORE:    0.00 PKD
ROOT
HETATM    1  C   UNL     1     -11.043   6.604  67.285  1.00  0.00    -0.345 C  
HETATM    2  N   UNL     1     -10.948   7.541  68.397  1.00  0.00    -0.431 NA 
HETATM    3  H   UNL     1     -10.744   7.049  69.267  1.00  0.00     0.000 HD 
ENDROOT
BRANCH   2   4
HETATM    4  C   UNL     1      -9.978   8.624  68.172  1.00  0.00    -0.178 C  
HETATM    5  C   UNL     1      -8.787   8.159  67.325  1.00  0.00    -0.136 C  
BRANCH   4   6
HETATM    6  C   UNL     1     -10.673   9.810  67.455  1.00  0.00    -0.314 C  
BRANCH   6   7
HETATM    7  C   UNL     1      -9.889  11.148  67.437  1.00  0.00    -0.195 C  
HETATM    8  C   UNL     1     -10.043  11.931  66.123  1.00  0.00    -0.257 C  
HETATM    9  C   UNL     1     -11.447  12.504  65.941  1.00  0.00    -0.417 C  
HETATM   10  C   UNL     1     -11.851  13.377  67.125  1.00  0.00    -0.429 C  
HETATM   11  C   UNL     1     -11.693  12.654  68.460  1.00  0.00    -0.372 C  
HETATM   12  C   UNL     1     -10.301  12.046  68.619  1.00  0.00    -0.211 C  
ENDBRANCH   6   7
ENDBRANCH   4   6
ENDBRANCH   2   4
TORSDOF 3
ENDMDL
MODEL      119
REMARK 921   NORMALIZED FREE ENERGY PREDICTED BY IDOCK:   -2.86 KCAL/MOL
REMARK 922        TOTAL FREE ENERGY PREDICTED BY IDOCK:   -3.43 KCAL/MOL
REMARK 923 INTER-LIGAND FREE ENERGY PREDICTED BY IDOCK:   -3.23 KCAL/MOL
REMARK 924 INTRA-LIGAND FREE ENERGY PREDICTED BY IDOCK:   -0.20 KCAL/MOL
REMARK 927      BINDING AFFINITY PREDICTED BY RF-SCORE:    0.00 PKD
ROOT
HETATM    1  C   UNL     1     -12.597  15.621  70.984  1.00  0.00    -0.459 C  
HETATM    2  N   UNL     1     -12.840  14.479  70.113  1.00  0.00    -0.538 NA 
HETATM    3  H   UNL     1     -13.839  14.354  69.953  1.00  0.00     0.000 HD 
ENDROOT
BRANCH   2   4
HETATM    4  C   UNL     1     -12.114  14.549  68.835  1.00  0.00    -0.237 C  
HETATM    5  C   UNL     1     -11.290  15.837  68.715  1.00  0.00    -0.362 C  
BRANCH   4   6
HETATM    6  C   UNL     1     -11.165  13.331  68.703  1.00  0.00    -0.311 C  
BRANCH   6   7
HETATM    7  C   UNL     1     -10.201  13.348  67.487  1.00  0.00    -0.226 C  
HETATM    8  C   UNL     1      -8.768  12.917  67.836  1.00  0.00    -0.186 C  
HETATM    9  C   UNL     1      -8.665  11.430  68.170  1.00  0.00    -0.154 C  
HETATM   10  C   UNL     1      -9.214  10.566  67.039  1.00  0.00    -0.167 C  
HETATM   11  C   UNL     1     -10.630  10.968  66.637  1.00  0.00    -0.315 C  
HETATM   12  C   UNL     1     -10.738  12.463  66.345  1.00  0.00    -0.277 C  
ENDBRANCH   6   7
ENDBRANCH   4   6
ENDBRANCH   2   4
TORSDOF 3
ENDMDL
MODEL      120
REMARK 921   NORMALIZED FREE ENERGY PREDICTED BY IDOCK:   -2.86 KCAL/MOL
REMARK 922        TOTAL FREE ENERGY PREDICTED BY IDOCK:   -3.42 KCAL/MOL
REMARK 923 INTER-LIGAND FREE ENERGY PREDICTED BY IDOCK:   -3.26 KCAL/MOL
REMARK 924 INTRA-LIGAND FREE ENERGY PREDICTED BY IDOCK:   -0.17 KCAL/MOL
REMARK 927      BINDING AFFINITY PREDICTED BY RF-SCORE:    0.00 PKD
ROOT
HETATM    1  C   UNL     1     -12.389  14.023  69.827  1.00  0.00    -0.291 C  
HETATM    2  N   UNL     1     -12.038  12.879  70.659  1.00  0.00    -0.508 NA 
HETATM    3  H   UNL     1     -12.531  12.917  71.551  1.00  0.00     0.000 HD 
ENDROOT
BRANCH   2   4
HETATM    4  C   UNL     1     -12.256  11.583  69.998  1.00  0.00    -0.278 C  
HETATM    5  C   UNL     1     -11.911  11.636  68.505  1.00  0.00    -0.357 C  
BRANCH   4   6
HETATM    6  C   UNL     1     -11.385  10.495  70.677  1.00  0.00    -0.363 C  
BRANCH   6   7
HETATM    7  C   UNL     1     -11.908   9.038  70.567  1.00  0.00    -0.107 C  
HETATM    8  C   UNL     1     -10.882   8.064  69.966  1.00  0.00    -0.235 C  
HETATM    9  C   UNL     1      -9.705   7.798  70.903  1.00  0.00    -0.174 C  
HETATM   10  C   UNL     1     -10.178   7.293  72.263  1.00  0.00    -0.225 C  
HETATM   11  C   UNL     1     -11.219   8.214  72.894  1.00  0.00    -0.312 C  
HETATM   12  C   UNL     1     -12.372   8.512  71.938  1.00  0.00    -0.407 C  
ENDBRANCH   6   7
ENDBRANCH   4   6
ENDBRANCH   2   4
TORSDOF 3
ENDMDL
MODEL      121
REMARK 921   NORMALIZED FREE ENERGY PREDICTED BY IDOCK:   -2.86 KCAL/MOL
REMARK 922        TOTAL FREE ENERGY PREDICTED BY IDOCK:   -3.42 KCAL/MOL
REMARK 923 INTER-LIGAND FREE ENERGY PREDICTED BY IDOCK:   -3.42 KCAL/MOL
REMARK 924 INTRA-LIGAND FREE ENERGY PREDICTED BY IDOCK:    0.00 KCAL/MOL
REMARK 927      BINDING AFFINITY PREDICTED BY RF-SCORE:    0.00 PKD
ROOT
HETATM    1  C   UNL     1     -11.939  15.699  68.890  1.00  0.00    -0.279 C  
HETATM    2  N   UNL     1     -12.590  14.536  68.300  1.00  0.00    -0.321 NA 
HETATM    3  H   UNL     1     -13.593  14.695  68.202  1.00  0.00     0.000 HD 
ENDROOT
BRANCH   2   4
HETATM    4  C   UNL     1     -12.001  14.121  67.017  1.00  0.00    -0.439 C  
HETATM    5  C   UNL     1     -10.779  14.971  66.646  1.00  0.00    -0.312 C  
BRANCH   4   6
HETATM    6  C   UNL     1     -11.574  12.633  67.093  1.00  0.00    -0.434 C  
BRANCH   6   7
HETATM    7  C   UNL     1     -10.070  12.343  66.842  1.00  0.00    -0.230 C  
HETATM    8  C   UNL     1      -9.533  11.151  67.650  1.00  0.00    -0.173 C  
HETATM    9  C   UNL     1     -10.092   9.814  67.167  1.00  0.00    -0.267 C  
HETATM   10  C   UNL     1      -9.828   9.604  65.679  1.00  0.00    -0.369 C  
HETATM   11  C   UNL     1     -10.321  10.773  64.832  1.00  0.00    -0.369 C  
HETATM   12  C   UNL     1      -9.794  12.112  65.344  1.00  0.00    -0.231 C  
ENDBRANCH   6   7
ENDBRANCH   4   6
ENDBRANCH   2   4
TORSDOF 3
ENDMDL
MODEL      122
REMARK 921   NORMALIZED FREE ENERGY PREDICTED BY IDOCK:   -2.85 KCAL/MOL
REMARK 922        TOTAL FREE ENERGY PREDICTED BY IDOCK:   -3.42 KCAL/MOL
REMARK 923 INTER-LIGAND FREE ENERGY PREDICTED BY IDOCK:   -3.27 KCAL/MOL
REMARK 924 INTRA-LIGAND FREE ENERGY PREDICTED BY IDOCK:   -0.15 KCAL/MOL
REMARK 927      BINDING AFFINITY PREDICTED BY RF-SCORE:    0.00 PKD
ROOT
HETATM    1  C   UNL     1     -12.026  15.092  69.630  1.00  0.00    -0.329 C  
HETATM    2  N   UNL     1     -11.409  13.795  69.875  1.00  0.00    -0.469 NA 
HETATM    3  H   UNL     1     -11.645  13.453  70.806  1.00  0.00     0.000 HD 
ENDROOT
BRANCH   2   4
HETATM    4  C   UNL     1     -11.734  12.787  68.853  1.00  0.00    -0.326 C  
HETATM    5  C   UNL     1     -11.867  13.409  67.457  1.00  0.00    -0.408 C  
BRANCH   4   6
HETATM    6  C   UNL     1     -10.628  11.701  68.817  1.00  0.00    -0.241 C  
BRANCH   6   7
HETATM    7  C   UNL     1     -11.109  10.235  68.982  1.00  0.00    -0.277 C  
HETATM    8  C   UNL     1     -10.631   9.304  67.856  1.00  0.00    -0.288 C  
HETATM    9  C   UNL     1      -9.127   9.043  67.907  1.00  0.00    -0.141 C  
HETATM   10  C   UNL     1      -8.703   8.489  69.264  1.00  0.00    -0.133 C  
HETATM   11  C   UNL     1      -9.174   9.366  70.421  1.00  0.00    -0.305 C  
HETATM   12  C   UNL     1     -10.671   9.660  70.342  1.00  0.00    -0.356 C  
ENDBRANCH   6   7
ENDBRANCH   4   6
ENDBRANCH   2   4
TORSDOF 3
ENDMDL
MODEL      123
REMARK 921   NORMALIZED FREE ENERGY PREDICTED BY IDOCK:   -2.85 KCAL/MOL
REMARK 922        TOTAL FREE ENERGY PREDICTED BY IDOCK:   -3.41 KCAL/MOL
REMARK 923 INTER-LIGAND FREE ENERGY PREDICTED BY IDOCK:   -3.16 KCAL/MOL
REMARK 924 INTRA-LIGAND FREE ENERGY PREDICTED BY IDOCK:   -0.25 KCAL/MOL
REMARK 927      BINDING AFFINITY PREDICTED BY RF-SCORE:    0.00 PKD
ROOT
HETATM    1  C   UNL     1     -12.041  14.130  70.656  1.00  0.00    -0.351 C  
HETATM    2  N   UNL     1     -11.418  12.887  70.220  1.00  0.00    -0.493 NA 
HETATM    3  H   UNL     1     -11.106  12.339  71.021  1.00  0.00     0.000 HD 
ENDROOT
BRANCH   2   4
HETATM    4  C   UNL     1     -12.273  12.078  69.338  1.00  0.00    -0.097 C  
HETATM    5  C   UNL     1     -11.939  12.297  67.857  1.00  0.00    -0.240 C  
BRANCH   4   6
HETATM    6  C   UNL     1     -12.101  10.575  69.674  1.00  0.00    -0.241 C  
BRANCH   6   7
HETATM    7  C   UNL     1     -10.812  10.195  70.450  1.00  0.00    -0.365 C  
HETATM    8  C   UNL     1     -11.065   9.235  71.624  1.00  0.00    -0.438 C  
HETATM    9  C   UNL     1     -11.459   7.833  71.163  1.00  0.00    -0.295 C  
HETATM   10  C   UNL     1     -10.417   7.244  70.216  1.00  0.00    -0.231 C  
HETATM   11  C   UNL     1     -10.111   8.171  69.043  1.00  0.00    -0.211 C  
HETATM   12  C   UNL     1      -9.760   9.583  69.506  1.00  0.00    -0.201 C  
ENDBRANCH   6   7
ENDBRANCH   4   6
ENDBRANCH   2   4
TORSDOF 3
ENDMDL
MODEL      124
REMARK 921   NORMALIZED FREE ENERGY PREDICTED BY IDOCK:   -2.84 KCAL/MOL
REMARK 922        TOTAL FREE ENERGY PREDICTED BY IDOCK:   -3.40 KCAL/MOL
REMARK 923 INTER-LIGAND FREE ENERGY PREDICTED BY IDOCK:   -3.15 KCAL/MOL
REMARK 924 INTRA-LIGAND FREE ENERGY PREDICTED BY IDOCK:   -0.25 KCAL/MOL
REMARK 927      BINDING AFFINITY PREDICTED BY RF-SCORE:    0.00 PKD
ROOT
HETATM    1  C   UNL     1     -10.067   7.586  67.074  1.00  0.00    -0.261 C  
HETATM    2  N   UNL     1     -10.678   8.019  68.324  1.00  0.00    -0.421 NA 
HETATM    3  H   UNL     1     -11.116   7.232  68.802  1.00  0.00     0.000 HD 
ENDROOT
BRANCH   2   4
HETATM    4  C   UNL     1      -9.748   8.721  69.221  1.00  0.00    -0.172 C  
HETATM    5  C   UNL     1      -8.685   9.507  68.443  1.00  0.00    -0.124 C  
BRANCH   4   6
HETATM    6  C   UNL     1     -10.533   9.701  70.129  1.00  0.00    -0.321 C  
BRANCH   6   7
HETATM    7  C   UNL     1     -11.903  10.186  69.583  1.00  0.00    -0.114 C  
HETATM    8  C   UNL     1     -12.960  10.391  70.679  1.00  0.00    -0.357 C  
HETATM    9  C   UNL     1     -12.653  11.589  71.576  1.00  0.00    -0.363 C  
HETATM   10  C   UNL     1     -12.483  12.867  70.761  1.00  0.00    -0.370 C  
HETATM   11  C   UNL     1     -11.459  12.709  69.641  1.00  0.00    -0.252 C  
HETATM   12  C   UNL     1     -11.746  11.486  68.772  1.00  0.00    -0.397 C  
ENDBRANCH   6   7
ENDBRANCH   4   6
ENDBRANCH   2   4
TORSDOF 3
ENDMDL
MODEL      125
REMARK 921   NORMALIZED FREE ENERGY PREDICTED BY IDOCK:   -2.83 KCAL/MOL
REMARK 922        TOTAL FREE ENERGY PREDICTED BY IDOCK:   -3.39 KCAL/MOL
REMARK 923 INTER-LIGAND FREE ENERGY PREDICTED BY IDOCK:   -3.14 KCAL/MOL
REMARK 924 INTRA-LIGAND FREE ENERGY PREDICTED BY IDOCK:   -0.25 KCAL/MOL
REMARK 927      BINDING AFFINITY PREDICTED BY RF-SCORE:    0.00 PKD
ROOT
HETATM    1  C   UNL     1     -13.242   8.437  71.833  1.00  0.00    -0.357 C  
HETATM    2  N   UNL     1     -12.287   8.661  70.755  1.00  0.00    -0.489 NA 
HETATM    3  H   UNL     1     -12.763   8.978  69.912  1.00  0.00     0.000 HD 
ENDROOT
BRANCH   2   4
HETATM    4  C   UNL     1     -11.199   9.582  71.117  1.00  0.00    -0.376 C  
HETATM    5  C   UNL     1     -10.018   8.848  71.764  1.00  0.00    -0.397 C  
BRANCH   4   6
HETATM    6  C   UNL     1     -10.697  10.323  69.851  1.00  0.00    -0.344 C  
BRANCH   6   7
HETATM    7  C   UNL     1      -9.468   9.699  69.139  1.00  0.00    -0.172 C  
HETATM    8  C   UNL     1      -9.839   8.848  67.913  1.00  0.00    -0.205 C  
HETATM    9  C   UNL     1     -10.357   9.689  66.748  1.00  0.00    -0.292 C  
HETATM   10  C   UNL     1      -9.357  10.772  66.355  1.00  0.00    -0.198 C  
HETATM   11  C   UNL     1      -8.937  11.633  67.543  1.00  0.00    -0.165 C  
HETATM   12  C   UNL     1      -8.460  10.786  68.721  1.00  0.00    -0.148 C  
ENDBRANCH   6   7
ENDBRANCH   4   6
ENDBRANCH   2   4
TORSDOF 3
ENDMDL
MODEL      126
REMARK 921   NORMALIZED FREE ENERGY PREDICTED BY IDOCK:   -2.82 KCAL/MOL
REMARK 922        TOTAL FREE ENERGY PREDICTED BY IDOCK:   -3.38 KCAL/MOL
REMARK 923 INTER-LIGAND FREE ENERGY PREDICTED BY IDOCK:   -3.26 KCAL/MOL
REMARK 924 INTRA-LIGAND FREE ENERGY PREDICTED BY IDOCK:   -0.12 KCAL/MOL
REMARK 927      BINDING AFFINITY PREDICTED BY RF-SCORE:    0.00 PKD
ROOT
HETATM    1  C   UNL     1      -9.886   8.286  66.856  1.00  0.00    -0.247 C  
HETATM    2  N   UNL     1     -10.749   8.866  67.877  1.00  0.00    -0.449 NA 
HETATM    3  H   UNL     1     -11.377   8.160  68.261  1.00  0.00     0.000 HD 
ENDROOT
BRANCH   2   4
HETATM    4  C   UNL     1     -10.011   9.547  68.952  1.00  0.00    -0.179 C  
HETATM    5  C   UNL     1      -9.676  10.998  68.587  1.00  0.00    -0.198 C  
BRANCH   4   6
HETATM    6  C   UNL     1     -10.854   9.537  70.253  1.00  0.00    -0.319 C  
BRANCH   6   7
HETATM    7  C   UNL     1     -10.221   8.808  71.468  1.00  0.00    -0.371 C  
HETATM    8  C   UNL     1     -11.259   8.190  72.419  1.00  0.00    -0.452 C  
HETATM    9  C   UNL     1     -11.982   6.993  71.803  1.00  0.00    -0.361 C  
HETATM   10  C   UNL     1     -10.996   5.927  71.335  1.00  0.00    -0.327 C  
HETATM   11  C   UNL     1      -9.927   6.494  70.405  1.00  0.00    -0.202 C  
HETATM   12  C   UNL     1      -9.237   7.717  71.006  1.00  0.00    -0.158 C  
ENDBRANCH   6   7
ENDBRANCH   4   6
ENDBRANCH   2   4
TORSDOF 3
ENDMDL
MODEL      127
REMARK 921   NORMALIZED FREE ENERGY PREDICTED BY IDOCK:   -2.82 KCAL/MOL
REMARK 922        TOTAL FREE ENERGY PREDICTED BY IDOCK:   -3.38 KCAL/MOL
REMARK 923 INTER-LIGAND FREE ENERGY PREDICTED BY IDOCK:   -3.25 KCAL/MOL
REMARK 924 INTRA-LIGAND FREE ENERGY PREDICTED BY IDOCK:   -0.13 KCAL/MOL
REMARK 927      BINDING AFFINITY PREDICTED BY RF-SCORE:    0.00 PKD
ROOT
HETATM    1  C   UNL     1     -11.268  11.514  68.819  1.00  0.00    -0.249 C  
HETATM    2  N   UNL     1     -12.111  10.503  69.444  1.00  0.00    -0.538 NA 
HETATM    3  H   UNL     1     -11.992   9.600  68.985  1.00  0.00     0.000 HD 
ENDROOT
BRANCH   2   4
HETATM    4  C   UNL     1     -11.905  10.382  70.895  1.00  0.00    -0.377 C  
HETATM    5  C   UNL     1     -13.220  10.516  71.674  1.00  0.00    -0.493 C  
BRANCH   4   6
HETATM    6  C   UNL     1     -11.266   9.008  71.221  1.00  0.00    -0.385 C  
BRANCH   6   7
HETATM    7  C   UNL     1      -9.861   8.750  70.615  1.00  0.00    -0.237 C  
HETATM    8  C   UNL     1      -8.778   8.484  71.672  1.00  0.00    -0.262 C  
HETATM    9  C   UNL     1      -8.958   7.140  72.374  1.00  0.00    -0.145 C  
HETATM   10  C   UNL     1      -9.009   5.990  71.372  1.00  0.00    -0.145 C  
HETATM   11  C   UNL     1     -10.055   6.216  70.284  1.00  0.00    -0.237 C  
HETATM   12  C   UNL     1      -9.898   7.579  69.614  1.00  0.00    -0.180 C  
ENDBRANCH   6   7
ENDBRANCH   4   6
ENDBRANCH   2   4
TORSDOF 3
ENDMDL
MODEL      128
REMARK 921   NORMALIZED FREE ENERGY PREDICTED BY IDOCK:   -2.82 KCAL/MOL
REMARK 922        TOTAL FREE ENERGY PREDICTED BY IDOCK:   -3.38 KCAL/MOL
REMARK 923 INTER-LIGAND FREE ENERGY PREDICTED BY IDOCK:   -3.20 KCAL/MOL
REMARK 924 INTRA-LIGAND FREE ENERGY PREDICTED BY IDOCK:   -0.17 KCAL/MOL
REMARK 927      BINDING AFFINITY PREDICTED BY RF-SCORE:    0.00 PKD
ROOT
HETATM    1  C   UNL     1     -10.638  17.069  67.895  1.00  0.00    -0.365 C  
HETATM    2  N   UNL     1      -9.761  17.130  66.732  1.00  0.00    -0.260 NA 
HETATM    3  H   UNL     1     -10.211  16.711  65.919  1.00  0.00     0.000 HD 
ENDROOT
BRANCH   2   4
HETATM    4  C   UNL     1      -9.289  18.488  66.423  1.00  0.00    -0.282 C  
HETATM    5  C   UNL     1     -10.422  19.386  65.911  1.00  0.00    -0.561 C  
BRANCH   4   6
HETATM    6  C   UNL     1      -8.673  19.131  67.693  1.00  0.00    -0.329 C  
BRANCH   6   7
HETATM    7  C   UNL     1      -7.238  19.701  67.539  1.00  0.00    -0.266 C  
HETATM    8  C   UNL     1      -6.489  19.841  68.873  1.00  0.00    -0.338 C  
HETATM    9  C   UNL     1      -6.118  18.491  69.484  1.00  0.00    -0.277 C  
HETATM   10  C   UNL     1      -5.305  17.643  68.511  1.00  0.00    -0.150 C  
HETATM   11  C   UNL     1      -5.995  17.491  67.158  1.00  0.00    -0.164 C  
HETATM   12  C   UNL     1      -6.403  18.841  66.571  1.00  0.00    -0.211 C  
ENDBRANCH   6   7
ENDBRANCH   4   6
ENDBRANCH   2   4
TORSDOF 3
ENDMDL
MODEL      129
REMARK 921   NORMALIZED FREE ENERGY PREDICTED BY IDOCK:   -2.82 KCAL/MOL
REMARK 922        TOTAL FREE ENERGY PREDICTED BY IDOCK:   -3.38 KCAL/MOL
REMARK 923 INTER-LIGAND FREE ENERGY PREDICTED BY IDOCK:   -3.09 KCAL/MOL
REMARK 924 INTRA-LIGAND FREE ENERGY PREDICTED BY IDOCK:   -0.29 KCAL/MOL
REMARK 927      BINDING AFFINITY PREDICTED BY RF-SCORE:    0.00 PKD
ROOT
HETATM    1  C   UNL     1      -8.750   8.640  65.634  1.00  0.00    -0.182 C  
HETATM    2  N   UNL     1     -10.002   9.361  65.441  1.00  0.00    -0.407 NA 
HETATM    3  H   UNL     1     -10.767   8.889  65.924  1.00  0.00     0.000 HD 
ENDROOT
BRANCH   2   4
HETATM    4  C   UNL     1      -9.932  10.776  65.835  1.00  0.00    -0.250 C  
HETATM    5  C   UNL     1     -10.247  11.714  64.663  1.00  0.00    -0.327 C  
BRANCH   4   6
HETATM    6  C   UNL     1     -10.937  11.052  66.983  1.00  0.00    -0.333 C  
BRANCH   6   7
HETATM    7  C   UNL     1     -10.316  11.381  68.367  1.00  0.00    -0.209 C  
HETATM    8  C   UNL     1      -9.173  12.406  68.296  1.00  0.00    -0.189 C  
HETATM    9  C   UNL     1      -9.662  13.809  67.941  1.00  0.00    -0.229 C  
HETATM   10  C   UNL     1     -10.738  14.287  68.911  1.00  0.00    -0.268 C  
HETATM   11  C   UNL     1     -11.888  13.292  69.037  1.00  0.00    -0.365 C  
HETATM   12  C   UNL     1     -11.392  11.882  69.349  1.00  0.00    -0.327 C  
ENDBRANCH   6   7
ENDBRANCH   4   6
ENDBRANCH   2   4
TORSDOF 3
ENDMDL
MODEL      130
REMARK 921   NORMALIZED FREE ENERGY PREDICTED BY IDOCK:   -2.82 KCAL/MOL
REMARK 922        TOTAL FREE ENERGY PREDICTED BY IDOCK:   -3.37 KCAL/MOL
REMARK 923 INTER-LIGAND FREE ENERGY PREDICTED BY IDOCK:   -3.17 KCAL/MOL
REMARK 924 INTRA-LIGAND FREE ENERGY PREDICTED BY IDOCK:   -0.21 KCAL/MOL
REMARK 927      BINDING AFFINITY PREDICTED BY RF-SCORE:    0.00 PKD
ROOT
HETATM    1  C   UNL     1      -6.632   7.982  72.627  1.00  0.00    -0.078 C  
HETATM    2  N   UNL     1      -7.875   8.699  72.367  1.00  0.00    -0.353 NA 
HETATM    3  H   UNL     1      -7.692   9.687  72.194  1.00  0.00     0.000 HD 
ENDROOT
BRANCH   2   4
HETATM    4  C   UNL     1      -8.670   8.118  71.274  1.00  0.00    -0.145 C  
HETATM    5  C   UNL     1      -7.993   6.884  70.665  1.00  0.00    -0.109 C  
BRANCH   4   6
HETATM    6  C   UNL     1     -10.070   7.713  71.803  1.00  0.00    -0.210 C  
BRANCH   6   7
HETATM    7  C   UNL     1     -11.229   7.769  70.772  1.00  0.00    -0.281 C  
HETATM    8  C   UNL     1     -12.617   7.568  71.401  1.00  0.00    -0.382 C  
HETATM    9  C   UNL     1     -13.046   8.748  72.271  1.00  0.00    -0.458 C  
HETATM   10  C   UNL     1     -13.007  10.059  71.491  1.00  0.00    -0.535 C  
HETATM   11  C   UNL     1     -11.654  10.296  70.825  1.00  0.00    -0.446 C  
HETATM   12  C   UNL     1     -11.209   9.097  69.991  1.00  0.00    -0.168 C  
ENDBRANCH   6   7
ENDBRANCH   4   6
ENDBRANCH   2   4
TORSDOF 3
ENDMDL
MODEL      131
REMARK 921   NORMALIZED FREE ENERGY PREDICTED BY IDOCK:   -2.81 KCAL/MOL
REMARK 922        TOTAL FREE ENERGY PREDICTED BY IDOCK:   -3.37 KCAL/MOL
REMARK 923 INTER-LIGAND FREE ENERGY PREDICTED BY IDOCK:   -3.19 KCAL/MOL
REMARK 924 INTRA-LIGAND FREE ENERGY PREDICTED BY IDOCK:   -0.18 KCAL/MOL
REMARK 927      BINDING AFFINITY PREDICTED BY RF-SCORE:    0.00 PKD
ROOT
HETATM    1  C   UNL     1      -8.889  15.342  67.055  1.00  0.00    -0.237 C  
HETATM    2  N   UNL     1      -9.548  16.619  66.812  1.00  0.00    -0.246 NA 
HETATM    3  H   UNL     1     -10.443  16.480  66.344  1.00  0.00     0.000 HD 
ENDROOT
BRANCH   2   4
HETATM    4  C   UNL     1      -9.717  17.433  68.026  1.00  0.00    -0.281 C  
HETATM    5  C   UNL     1     -10.321  16.623  69.180  1.00  0.00    -0.326 C  
BRANCH   4   6
HETATM    6  C   UNL     1      -8.345  17.998  68.474  1.00  0.00    -0.313 C  
BRANCH   6   7
HETATM    7  C   UNL     1      -8.155  19.530  68.313  1.00  0.00    -0.369 C  
HETATM    8  C   UNL     1      -6.765  20.023  68.745  1.00  0.00    -0.344 C  
HETATM    9  C   UNL     1      -5.658  19.569  67.795  1.00  0.00    -0.197 C  
HETATM   10  C   UNL     1      -5.946  19.997  66.359  1.00  0.00    -0.181 C  
HETATM   11  C   UNL     1      -7.327  19.552  65.887  1.00  0.00    -0.314 C  
HETATM   12  C   UNL     1      -8.426  19.971  66.862  1.00  0.00    -0.385 C  
ENDBRANCH   6   7
ENDBRANCH   4   6
ENDBRANCH   2   4
TORSDOF 3
ENDMDL
MODEL      132
REMARK 921   NORMALIZED FREE ENERGY PREDICTED BY IDOCK:   -2.79 KCAL/MOL
REMARK 922        TOTAL FREE ENERGY PREDICTED BY IDOCK:   -3.34 KCAL/MOL
REMARK 923 INTER-LIGAND FREE ENERGY PREDICTED BY IDOCK:   -3.11 KCAL/MOL
REMARK 924 INTRA-LIGAND FREE ENERGY PREDICTED BY IDOCK:   -0.23 KCAL/MOL
REMARK 927      BINDING AFFINITY PREDICTED BY RF-SCORE:    0.00 PKD
ROOT
HETATM    1  C   UNL     1      -7.135  16.322  66.940  1.00  0.00    -0.211 C  
HETATM    2  N   UNL     1      -8.591  16.294  66.870  1.00  0.00    -0.195 NA 
HETATM    3  H   UNL     1      -8.913  16.590  65.949  1.00  0.00     0.000 HD 
ENDROOT
BRANCH   2   4
HETATM    4  C   UNL     1      -9.171  14.991  67.230  1.00  0.00    -0.201 C  
HETATM    5  C   UNL     1      -8.102  13.897  67.336  1.00  0.00    -0.190 C  
BRANCH   4   6
HETATM    6  C   UNL     1      -9.910  15.104  68.588  1.00  0.00    -0.218 C  
BRANCH   6   7
HETATM    7  C   UNL     1     -11.460  15.045  68.526  1.00  0.00    -0.335 C  
HETATM    8  C   UNL     1     -12.000  13.704  68.006  1.00  0.00    -0.385 C  
HETATM    9  C   UNL     1     -11.782  12.558  68.992  1.00  0.00    -0.368 C  
HETATM   10  C   UNL     1     -12.386  12.876  70.357  1.00  0.00    -0.333 C  
HETATM   11  C   UNL     1     -11.899  14.212  70.910  1.00  0.00    -0.294 C  
HETATM   12  C   UNL     1     -12.080  15.347  69.904  1.00  0.00    -0.382 C  
ENDBRANCH   6   7
ENDBRANCH   4   6
ENDBRANCH   2   4
TORSDOF 3
ENDMDL
MODEL      133
REMARK 921   NORMALIZED FREE ENERGY PREDICTED BY IDOCK:   -2.79 KCAL/MOL
REMARK 922        TOTAL FREE ENERGY PREDICTED BY IDOCK:   -3.34 KCAL/MOL
REMARK 923 INTER-LIGAND FREE ENERGY PREDICTED BY IDOCK:   -3.20 KCAL/MOL
REMARK 924 INTRA-LIGAND FREE ENERGY PREDICTED BY IDOCK:   -0.14 KCAL/MOL
REMARK 927      BINDING AFFINITY PREDICTED BY RF-SCORE:    0.00 PKD
ROOT
HETATM    1  C   UNL     1     -11.637   9.471  71.192  1.00  0.00    -0.367 C  
HETATM    2  N   UNL     1     -11.870   8.338  70.305  1.00  0.00    -0.456 NA 
HETATM    3  H   UNL     1     -11.562   8.553  69.357  1.00  0.00     0.000 HD 
ENDROOT
BRANCH   2   4
HETATM    4  C   UNL     1     -11.260   7.086  70.779  1.00  0.00    -0.285 C  
HETATM    5  C   UNL     1     -12.102   6.416  71.872  1.00  0.00    -0.362 C  
BRANCH   4   6
HETATM    6  C   UNL     1     -11.097   6.100  69.594  1.00  0.00    -0.489 C  
BRANCH   6   7
HETATM    7  C   UNL     1      -9.745   6.164  68.836  1.00  0.00    -0.151 C  
HETATM    8  C   UNL     1      -8.914   4.877  68.957  1.00  0.00    -0.134 C  
HETATM    9  C   UNL     1      -9.530   3.705  68.196  1.00  0.00    -0.215 C  
HETATM   10  C   UNL     1      -9.755   4.051  66.727  1.00  0.00    -0.216 C  
HETATM   11  C   UNL     1     -10.557   5.337  66.550  1.00  0.00    -0.348 C  
HETATM   12  C   UNL     1      -9.962   6.496  67.347  1.00  0.00    -0.180 C  
ENDBRANCH   6   7
ENDBRANCH   4   6
ENDBRANCH   2   4
TORSDOF 3
ENDMDL
MODEL      134
REMARK 921   NORMALIZED FREE ENERGY PREDICTED BY IDOCK:   -2.77 KCAL/MOL
REMARK 922        TOTAL FREE ENERGY PREDICTED BY IDOCK:   -3.32 KCAL/MOL
REMARK 923 INTER-LIGAND FREE ENERGY PREDICTED BY IDOCK:   -3.08 KCAL/MOL
REMARK 924 INTRA-LIGAND FREE ENERGY PREDICTED BY IDOCK:   -0.25 KCAL/MOL
REMARK 927      BINDING AFFINITY PREDICTED BY RF-SCORE:    0.00 PKD
ROOT
HETATM    1  C   UNL     1      -9.923  20.498  67.632  1.00  0.00    -0.314 C  
HETATM    2  N   UNL     1     -10.429  19.355  68.380  1.00  0.00    -0.461 NA 
HETATM    3  H   UNL     1     -11.394  19.512  68.671  1.00  0.00     0.000 HD 
ENDROOT
BRANCH   2   4
HETATM    4  C   UNL     1     -10.304  18.079  67.658  1.00  0.00    -0.388 C  
HETATM    5  C   UNL     1     -10.422  18.265  66.141  1.00  0.00    -0.403 C  
BRANCH   4   6
HETATM    6  C   UNL     1      -8.935  17.426  67.979  1.00  0.00    -0.255 C  
BRANCH   6   7
HETATM    7  C   UNL     1      -8.976  16.180  68.904  1.00  0.00    -0.247 C  
HETATM    8  C   UNL     1      -9.891  15.061  68.383  1.00  0.00    -0.222 C  
HETATM    9  C   UNL     1      -9.336  14.381  67.133  1.00  0.00    -0.226 C  
HETATM   10  C   UNL     1      -7.928  13.843  67.369  1.00  0.00    -0.184 C  
HETATM   11  C   UNL     1      -6.982  14.912  67.911  1.00  0.00    -0.170 C  
HETATM   12  C   UNL     1      -7.560  15.618  69.136  1.00  0.00    -0.206 C  
ENDBRANCH   6   7
ENDBRANCH   4   6
ENDBRANCH   2   4
TORSDOF 3
ENDMDL
MODEL      135
REMARK 921   NORMALIZED FREE ENERGY PREDICTED BY IDOCK:   -2.77 KCAL/MOL
REMARK 922        TOTAL FREE ENERGY PREDICTED BY IDOCK:   -3.32 KCAL/MOL
REMARK 923 INTER-LIGAND FREE ENERGY PREDICTED BY IDOCK:   -3.11 KCAL/MOL
REMARK 924 INTRA-LIGAND FREE ENERGY PREDICTED BY IDOCK:   -0.21 KCAL/MOL
REMARK 927      BINDING AFFINITY PREDICTED BY RF-SCORE:    0.00 PKD
ROOT
HETATM    1  C   UNL     1     -12.430  13.769  65.549  1.00  0.00    -0.512 C  
HETATM    2  N   UNL     1     -11.866  12.583  66.180  1.00  0.00    -0.489 NA 
HETATM    3  H   UNL     1     -11.704  11.850  65.490  1.00  0.00     0.000 HD 
ENDROOT
BRANCH   2   4
HETATM    4  C   UNL     1     -10.641  12.853  66.949  1.00  0.00    -0.253 C  
HETATM    5  C   UNL     1     -10.517  14.334  67.327  1.00  0.00    -0.269 C  
BRANCH   4   6
HETATM    6  C   UNL     1     -10.637  12.001  68.244  1.00  0.00    -0.233 C  
BRANCH   6   7
HETATM    7  C   UNL     1      -9.444  11.022  68.411  1.00  0.00    -0.182 C  
HETATM    8  C   UNL     1      -9.604  10.061  69.599  1.00  0.00    -0.251 C  
HETATM    9  C   UNL     1     -10.702   9.023  69.374  1.00  0.00    -0.202 C  
HETATM   10  C   UNL     1     -10.470   8.237  68.087  1.00  0.00    -0.226 C  
HETATM   11  C   UNL     1     -10.282   9.147  66.877  1.00  0.00    -0.336 C  
HETATM   12  C   UNL     1      -9.212  10.210  67.122  1.00  0.00    -0.157 C  
ENDBRANCH   6   7
ENDBRANCH   4   6
ENDBRANCH   2   4
TORSDOF 3
ENDMDL
MODEL      136
REMARK 921   NORMALIZED FREE ENERGY PREDICTED BY IDOCK:   -2.77 KCAL/MOL
REMARK 922        TOTAL FREE ENERGY PREDICTED BY IDOCK:   -3.32 KCAL/MOL
REMARK 923 INTER-LIGAND FREE ENERGY PREDICTED BY IDOCK:   -3.16 KCAL/MOL
REMARK 924 INTRA-LIGAND FREE ENERGY PREDICTED BY IDOCK:   -0.16 KCAL/MOL
REMARK 927      BINDING AFFINITY PREDICTED BY RF-SCORE:    0.00 PKD
ROOT
HETATM    1  C   UNL     1     -10.915   9.269  69.894  1.00  0.00    -0.213 C  
HETATM    2  N   UNL     1     -10.690   8.366  68.773  1.00  0.00    -0.413 NA 
HETATM    3  H   UNL     1      -9.743   8.472  68.409  1.00  0.00     0.000 HD 
ENDROOT
BRANCH   2   4
HETATM    4  C   UNL     1     -10.971   6.956  69.088  1.00  0.00    -0.199 C  
HETATM    5  C   UNL     1     -10.895   6.065  67.842  1.00  0.00    -0.378 C  
BRANCH   4   6
HETATM    6  C   UNL     1      -9.954   6.440  70.138  1.00  0.00    -0.201 C  
BRANCH   6   7
HETATM    7  C   UNL     1     -10.545   5.601  71.302  1.00  0.00    -0.321 C  
HETATM    8  C   UNL     1      -9.499   5.186  72.349  1.00  0.00    -0.166 C  
HETATM    9  C   UNL     1      -8.991   6.367  73.174  1.00  0.00    -0.133 C  
HETATM   10  C   UNL     1     -10.140   7.114  73.844  1.00  0.00    -0.359 C  
HETATM   11  C   UNL     1     -11.220   7.530  72.850  1.00  0.00    -0.396 C  
HETATM   12  C   UNL     1     -11.695   6.354  71.998  1.00  0.00    -0.376 C  
ENDBRANCH   6   7
ENDBRANCH   4   6
ENDBRANCH   2   4
TORSDOF 3
ENDMDL
MODEL      137
REMARK 921   NORMALIZED FREE ENERGY PREDICTED BY IDOCK:   -2.76 KCAL/MOL
REMARK 922        TOTAL FREE ENERGY PREDICTED BY IDOCK:   -3.31 KCAL/MOL
REMARK 923 INTER-LIGAND FREE ENERGY PREDICTED BY IDOCK:   -3.06 KCAL/MOL
REMARK 924 INTRA-LIGAND FREE ENERGY PREDICTED BY IDOCK:   -0.25 KCAL/MOL
REMARK 927      BINDING AFFINITY PREDICTED BY RF-SCORE:    0.00 PKD
ROOT
HETATM    1  C   UNL     1     -14.356   8.049  71.581  1.00  0.00    -0.473 C  
HETATM    2  N   UNL     1     -13.196   7.325  71.077  1.00  0.00    -0.594 NA 
HETATM    3  H   UNL     1     -12.919   7.681  70.162  1.00  0.00     0.000 HD 
ENDROOT
BRANCH   2   4
HETATM    4  C   UNL     1     -12.054   7.327  72.003  1.00  0.00    -0.290 C  
HETATM    5  C   UNL     1     -11.564   5.907  72.312  1.00  0.00    -0.338 C  
BRANCH   4   6
HETATM    6  C   UNL     1     -10.884   8.140  71.392  1.00  0.00    -0.281 C  
BRANCH   6   7
HETATM    7  C   UNL     1     -10.750   8.083  69.847  1.00  0.00    -0.242 C  
HETATM    8  C   UNL     1     -10.679   9.469  69.187  1.00  0.00    -0.228 C  
HETATM    9  C   UNL     1      -9.372  10.198  69.488  1.00  0.00    -0.230 C  
HETATM   10  C   UNL     1      -8.161   9.361  69.086  1.00  0.00    -0.107 C  
HETATM   11  C   UNL     1      -8.194   7.963  69.697  1.00  0.00    -0.122 C  
HETATM   12  C   UNL     1      -9.520   7.254  69.430  1.00  0.00    -0.154 C  
ENDBRANCH   6   7
ENDBRANCH   4   6
ENDBRANCH   2   4
TORSDOF 3
ENDMDL
MODEL      138
REMARK 921   NORMALIZED FREE ENERGY PREDICTED BY IDOCK:   -2.76 KCAL/MOL
REMARK 922        TOTAL FREE ENERGY PREDICTED BY IDOCK:   -3.31 KCAL/MOL
REMARK 923 INTER-LIGAND FREE ENERGY PREDICTED BY IDOCK:   -3.05 KCAL/MOL
REMARK 924 INTRA-LIGAND FREE ENERGY PREDICTED BY IDOCK:   -0.26 KCAL/MOL
REMARK 927      BINDING AFFINITY PREDICTED BY RF-SCORE:    0.00 PKD
ROOT
HETATM    1  C   UNL     1      -5.158  19.346  69.283  1.00  0.00    -0.177 C  
HETATM    2  N   UNL     1      -6.605  19.400  69.449  1.00  0.00    -0.321 NA 
HETATM    3  H   UNL     1      -6.853  19.919  70.291  1.00  0.00     0.000 HD 
ENDROOT
BRANCH   2   4
HETATM    4  C   UNL     1      -7.310  19.944  68.277  1.00  0.00    -0.292 C  
HETATM    5  C   UNL     1      -6.401  20.016  67.044  1.00  0.00    -0.213 C  
BRANCH   4   6
HETATM    6  C   UNL     1      -8.538  19.057  67.946  1.00  0.00    -0.333 C  
BRANCH   6   7
HETATM    7  C   UNL     1      -8.485  17.598  68.472  1.00  0.00    -0.289 C  
HETATM    8  C   UNL     1      -9.863  17.035  68.852  1.00  0.00    -0.272 C  
HETATM    9  C   UNL     1     -10.755  16.792  67.636  1.00  0.00    -0.305 C  
HETATM   10  C   UNL     1     -10.075  15.880  66.620  1.00  0.00    -0.287 C  
HETATM   11  C   UNL     1      -8.690  16.382  66.225  1.00  0.00    -0.369 C  
HETATM   12  C   UNL     1      -7.816  16.665  67.445  1.00  0.00    -0.188 C  
ENDBRANCH   6   7
ENDBRANCH   4   6
ENDBRANCH   2   4
TORSDOF 3
ENDMDL
MODEL      139
REMARK 921   NORMALIZED FREE ENERGY PREDICTED BY IDOCK:   -2.76 KCAL/MOL
REMARK 922        TOTAL FREE ENERGY PREDICTED BY IDOCK:   -3.31 KCAL/MOL
REMARK 923 INTER-LIGAND FREE ENERGY PREDICTED BY IDOCK:   -3.01 KCAL/MOL
REMARK 924 INTRA-LIGAND FREE ENERGY PREDICTED BY IDOCK:   -0.29 KCAL/MOL
REMARK 927      BINDING AFFINITY PREDICTED BY RF-SCORE:    0.00 PKD
ROOT
HETATM    1  C   UNL     1     -10.491   9.767  69.621  1.00  0.00    -0.242 C  
HETATM    2  N   UNL     1     -11.627   8.883  69.847  1.00  0.00    -0.438 NA 
HETATM    3  H   UNL     1     -11.406   7.930  69.559  1.00  0.00     0.000 HD 
ENDROOT
BRANCH   2   4
HETATM    4  C   UNL     1     -12.122   8.906  71.233  1.00  0.00    -0.306 C  
HETATM    5  C   UNL     1     -13.200   7.842  71.473  1.00  0.00    -0.356 C  
BRANCH   4   6
HETATM    6  C   UNL     1     -10.947   8.662  72.214  1.00  0.00    -0.392 C  
BRANCH   6   7
HETATM    7  C   UNL     1     -10.651   7.180  72.566  1.00  0.00    -0.273 C  
HETATM    8  C   UNL     1      -9.736   6.481  71.548  1.00  0.00    -0.179 C  
HETATM    9  C   UNL     1      -8.301   7.002  71.592  1.00  0.00    -0.108 C  
HETATM   10  C   UNL     1      -7.710   6.891  72.994  1.00  0.00    -0.091 C  
HETATM   11  C   UNL     1      -8.594   7.550  74.049  1.00  0.00    -0.272 C  
HETATM   12  C   UNL     1     -10.038   7.058  73.974  1.00  0.00    -0.355 C  
ENDBRANCH   6   7
ENDBRANCH   4   6
ENDBRANCH   2   4
TORSDOF 3
ENDMDL
MODEL      140
REMARK 921   NORMALIZED FREE ENERGY PREDICTED BY IDOCK:   -2.75 KCAL/MOL
REMARK 922        TOTAL FREE ENERGY PREDICTED BY IDOCK:   -3.29 KCAL/MOL
REMARK 923 INTER-LIGAND FREE ENERGY PREDICTED BY IDOCK:   -3.07 KCAL/MOL
REMARK 924 INTRA-LIGAND FREE ENERGY PREDICTED BY IDOCK:   -0.22 KCAL/MOL
REMARK 927      BINDING AFFINITY PREDICTED BY RF-SCORE:    0.00 PKD
ROOT
HETATM    1  C   UNL     1     -12.822  12.720  71.263  1.00  0.00    -0.262 C  
HETATM    2  N   UNL     1     -11.902  12.115  70.309  1.00  0.00    -0.515 NA 
HETATM    3  H   UNL     1     -12.091  11.118  70.209  1.00  0.00     0.000 HD 
ENDROOT
BRANCH   2   4
HETATM    4  C   UNL     1     -11.897  12.778  68.996  1.00  0.00    -0.297 C  
HETATM    5  C   UNL     1     -11.044  14.052  69.000  1.00  0.00    -0.296 C  
BRANCH   4   6
HETATM    6  C   UNL     1     -11.345  11.807  67.920  1.00  0.00    -0.362 C  
BRANCH   6   7
HETATM    7  C   UNL     1     -10.344  10.733  68.423  1.00  0.00    -0.199 C  
HETATM    8  C   UNL     1     -10.473   9.387  67.692  1.00  0.00    -0.328 C  
HETATM    9  C   UNL     1     -10.000   9.458  66.241  1.00  0.00    -0.353 C  
HETATM   10  C   UNL     1      -8.568   9.974  66.146  1.00  0.00    -0.142 C  
HETATM   11  C   UNL     1      -8.379  11.300  66.878  1.00  0.00    -0.155 C  
HETATM   12  C   UNL     1      -8.893  11.238  68.315  1.00  0.00    -0.158 C  
ENDBRANCH   6   7
ENDBRANCH   4   6
ENDBRANCH   2   4
TORSDOF 3
ENDMDL
MODEL      141
REMARK 921   NORMALIZED FREE ENERGY PREDICTED BY IDOCK:   -2.74 KCAL/MOL
REMARK 922        TOTAL FREE ENERGY PREDICTED BY IDOCK:   -3.29 KCAL/MOL
REMARK 923 INTER-LIGAND FREE ENERGY PREDICTED BY IDOCK:   -3.13 KCAL/MOL
REMARK 924 INTRA-LIGAND FREE ENERGY PREDICTED BY IDOCK:   -0.15 KCAL/MOL
REMARK 927      BINDING AFFINITY PREDICTED BY RF-SCORE:    0.00 PKD
ROOT
HETATM    1  C   UNL     1     -12.003  15.339  68.699  1.00  0.00    -0.235 C  
HETATM    2  N   UNL     1     -11.330  14.917  67.477  1.00  0.00    -0.333 NA 
HETATM    3  H   UNL     1     -10.329  14.806  67.637  1.00  0.00     0.000 HD 
ENDROOT
BRANCH   2   4
HETATM    4  C   UNL     1     -11.901  13.698  66.883  1.00  0.00    -0.411 C  
HETATM    5  C   UNL     1     -12.621  13.989  65.561  1.00  0.00    -0.543 C  
BRANCH   4   6
HETATM    6  C   UNL     1     -10.775  12.664  66.625  1.00  0.00    -0.275 C  
BRANCH   6   7
HETATM    7  C   UNL     1     -10.487  11.670  67.781  1.00  0.00    -0.213 C  
HETATM    8  C   UNL     1     -10.882  10.221  67.455  1.00  0.00    -0.336 C  
HETATM    9  C   UNL     1      -9.978   9.588  66.398  1.00  0.00    -0.339 C  
HETATM   10  C   UNL     1      -8.510   9.655  66.809  1.00  0.00    -0.129 C  
HETATM   11  C   UNL     1      -8.071  11.072  67.168  1.00  0.00    -0.134 C  
HETATM   12  C   UNL     1      -9.003  11.716  68.192  1.00  0.00    -0.182 C  
ENDBRANCH   6   7
ENDBRANCH   4   6
ENDBRANCH   2   4
TORSDOF 3
ENDMDL
MODEL      142
REMARK 921   NORMALIZED FREE ENERGY PREDICTED BY IDOCK:   -2.73 KCAL/MOL
REMARK 922        TOTAL FREE ENERGY PREDICTED BY IDOCK:   -3.27 KCAL/MOL
REMARK 923 INTER-LIGAND FREE ENERGY PREDICTED BY IDOCK:   -3.03 KCAL/MOL
REMARK 924 INTRA-LIGAND FREE ENERGY PREDICTED BY IDOCK:   -0.24 KCAL/MOL
REMARK 927      BINDING AFFINITY PREDICTED BY RF-SCORE:    0.00 PKD
ROOT
HETATM    1  C   UNL     1      -5.753  10.594  65.903  1.00  0.00    -0.132 C  
HETATM    2  N   UNL     1      -7.068  11.127  65.572  1.00  0.00    -0.347 NA 
HETATM    3  H   UNL     1      -7.273  10.993  64.582  1.00  0.00     0.000 HD 
ENDROOT
BRANCH   2   4
HETATM    4  C   UNL     1      -8.150  10.581  66.406  1.00  0.00    -0.135 C  
HETATM    5  C   UNL     1      -7.966  10.935  67.887  1.00  0.00    -0.111 C  
BRANCH   4   6
HETATM    6  C   UNL     1      -9.515  11.135  65.923  1.00  0.00    -0.241 C  
BRANCH   6   7
HETATM    7  C   UNL     1     -10.051  12.379  66.680  1.00  0.00    -0.234 C  
HETATM    8  C   UNL     1      -9.626  13.712  66.044  1.00  0.00    -0.186 C  
HETATM    9  C   UNL     1     -10.309  13.968  64.702  1.00  0.00    -0.337 C  
HETATM   10  C   UNL     1     -11.828  13.905  64.828  1.00  0.00    -0.414 C  
HETATM   11  C   UNL     1     -12.303  12.608  65.477  1.00  0.00    -0.455 C  
HETATM   12  C   UNL     1     -11.586  12.335  66.798  1.00  0.00    -0.434 C  
ENDBRANCH   6   7
ENDBRANCH   4   6
ENDBRANCH   2   4
TORSDOF 3
ENDMDL
MODEL      143
REMARK 921   NORMALIZED FREE ENERGY PREDICTED BY IDOCK:   -2.72 KCAL/MOL
REMARK 922        TOTAL FREE ENERGY PREDICTED BY IDOCK:   -3.27 KCAL/MOL
REMARK 923 INTER-LIGAND FREE ENERGY PREDICTED BY IDOCK:   -3.14 KCAL/MOL
REMARK 924 INTRA-LIGAND FREE ENERGY PREDICTED BY IDOCK:   -0.13 KCAL/MOL
REMARK 927      BINDING AFFINITY PREDICTED BY RF-SCORE:    0.00 PKD
ROOT
HETATM    1  C   UNL     1      -6.576   8.842  71.886  1.00  0.00    -0.060 C  
HETATM    2  N   UNL     1      -8.014   8.905  72.110  1.00  0.00    -0.367 NA 
HETATM    3  H   UNL     1      -8.517   8.928  71.223  1.00  0.00     0.000 HD 
ENDROOT
BRANCH   2   4
HETATM    4  C   UNL     1      -8.523   7.825  72.969  1.00  0.00    -0.156 C  
HETATM    5  C   UNL     1      -8.060   7.981  74.423  1.00  0.00    -0.300 C  
BRANCH   4   6
HETATM    6  C   UNL     1     -10.073   7.813  72.934  1.00  0.00    -0.363 C  
BRANCH   6   7
HETATM    7  C   UNL     1     -10.739   6.428  72.719  1.00  0.00    -0.267 C  
HETATM    8  C   UNL     1     -12.121   6.511  72.053  1.00  0.00    -0.358 C  
HETATM    9  C   UNL     1     -12.045   6.941  70.590  1.00  0.00    -0.363 C  
HETATM   10  C   UNL     1     -11.128   6.024  69.787  1.00  0.00    -0.476 C  
HETATM   11  C   UNL     1      -9.745   5.888  70.419  1.00  0.00    -0.217 C  
HETATM   12  C   UNL     1      -9.828   5.500  71.894  1.00  0.00    -0.210 C  
ENDBRANCH   6   7
ENDBRANCH   4   6
ENDBRANCH   2   4
TORSDOF 3
ENDMDL
MODEL      144
REMARK 921   NORMALIZED FREE ENERGY PREDICTED BY IDOCK:   -2.72 KCAL/MOL
REMARK 922        TOTAL FREE ENERGY PREDICTED BY IDOCK:   -3.26 KCAL/MOL
REMARK 923 INTER-LIGAND FREE ENERGY PREDICTED BY IDOCK:   -3.25 KCAL/MOL
REMARK 924 INTRA-LIGAND FREE ENERGY PREDICTED BY IDOCK:   -0.01 KCAL/MOL
REMARK 927      BINDING AFFINITY PREDICTED BY RF-SCORE:    0.00 PKD
ROOT
HETATM    1  C   UNL     1     -12.013  12.964  69.581  1.00  0.00    -0.292 C  
HETATM    2  N   UNL     1     -11.914  13.920  68.485  1.00  0.00    -0.390 NA 
HETATM    3  H   UNL     1     -12.534  13.656  67.720  1.00  0.00     0.000 HD 
ENDROOT
BRANCH   2   4
HETATM    4  C   UNL     1     -12.159  15.311  68.896  1.00  0.00    -0.192 C  
HETATM    5  C   UNL     1     -12.340  15.438  70.414  1.00  0.00    -0.443 C  
BRANCH   4   6
HETATM    6  C   UNL     1     -10.971  16.204  68.455  1.00  0.00    -0.338 C  
BRANCH   6   7
HETATM    7  C   UNL     1      -9.581  15.515  68.412  1.00  0.00    -0.199 C  
HETATM    8  C   UNL     1      -9.226  14.942  67.031  1.00  0.00    -0.249 C  
HETATM    9  C   UNL     1      -8.957  16.030  65.993  1.00  0.00    -0.345 C  
HETATM   10  C   UNL     1      -7.868  16.990  66.461  1.00  0.00    -0.331 C  
HETATM   11  C   UNL     1      -8.161  17.571  67.841  1.00  0.00    -0.231 C  
HETATM   12  C   UNL     1      -8.471  16.482  68.866  1.00  0.00    -0.235 C  
ENDBRANCH   6   7
ENDBRANCH   4   6
ENDBRANCH   2   4
TORSDOF 3
ENDMDL
MODEL      145
REMARK 921   NORMALIZED FREE ENERGY PREDICTED BY IDOCK:   -2.72 KCAL/MOL
REMARK 922        TOTAL FREE ENERGY PREDICTED BY IDOCK:   -3.26 KCAL/MOL
REMARK 923 INTER-LIGAND FREE ENERGY PREDICTED BY IDOCK:   -3.03 KCAL/MOL
REMARK 924 INTRA-LIGAND FREE ENERGY PREDICTED BY IDOCK:   -0.23 KCAL/MOL
REMARK 927      BINDING AFFINITY PREDICTED BY RF-SCORE:    0.00 PKD
ROOT
HETATM    1  C   UNL     1     -11.318  15.677  71.293  1.00  0.00    -0.390 C  
HETATM    2  N   UNL     1     -11.152  16.647  70.218  1.00  0.00    -0.427 NA 
HETATM    3  H   UNL     1     -11.174  17.598  70.585  1.00  0.00     0.000 HD 
ENDROOT
BRANCH   2   4
HETATM    4  C   UNL     1      -9.943  16.428  69.410  1.00  0.00    -0.214 C  
HETATM    5  C   UNL     1      -9.832  14.977  68.926  1.00  0.00    -0.233 C  
BRANCH   4   6
HETATM    6  C   UNL     1      -9.957  17.368  68.178  1.00  0.00    -0.308 C  
BRANCH   6   7
HETATM    7  C   UNL     1      -8.863  18.468  68.149  1.00  0.00    -0.327 C  
HETATM    8  C   UNL     1      -7.538  18.030  68.793  1.00  0.00    -0.277 C  
HETATM    9  C   UNL     1      -6.803  16.976  67.967  1.00  0.00    -0.166 C  
HETATM   10  C   UNL     1      -6.562  17.454  66.539  1.00  0.00    -0.282 C  
HETATM   11  C   UNL     1      -7.845  17.924  65.860  1.00  0.00    -0.097 C  
HETATM   12  C   UNL     1      -8.599  18.947  66.709  1.00  0.00    -0.305 C  
ENDBRANCH   6   7
ENDBRANCH   4   6
ENDBRANCH   2   4
TORSDOF 3
ENDMDL
MODEL      146
REMARK 921   NORMALIZED FREE ENERGY PREDICTED BY IDOCK:   -2.70 KCAL/MOL
REMARK 922        TOTAL FREE ENERGY PREDICTED BY IDOCK:   -3.23 KCAL/MOL
REMARK 923 INTER-LIGAND FREE ENERGY PREDICTED BY IDOCK:   -2.98 KCAL/MOL
REMARK 924 INTRA-LIGAND FREE ENERGY PREDICTED BY IDOCK:   -0.26 KCAL/MOL
REMARK 927      BINDING AFFINITY PREDICTED BY RF-SCORE:    0.00 PKD
ROOT
HETATM    1  C   UNL     1     -11.073  15.245  64.706  1.00  0.00    -0.394 C  
HETATM    2  N   UNL     1     -11.152  14.695  66.053  1.00  0.00    -0.327 NA 
HETATM    3  H   UNL     1     -11.396  13.705  66.025  1.00  0.00     0.000 HD 
ENDROOT
BRANCH   2   4
HETATM    4  C   UNL     1      -9.933  14.907  66.848  1.00  0.00    -0.242 C  
HETATM    5  C   UNL     1      -9.185  13.595  67.111  1.00  0.00    -0.244 C  
BRANCH   4   6
HETATM    6  C   UNL     1      -8.987  15.885  66.105  1.00  0.00    -0.376 C  
BRANCH   6   7
HETATM    7  C   UNL     1      -8.894  17.319  66.691  1.00  0.00    -0.280 C  
HETATM    8  C   UNL     1      -8.697  17.346  68.215  1.00  0.00    -0.261 C  
HETATM    9  C   UNL     1      -7.315  16.852  68.639  1.00  0.00    -0.222 C  
HETATM   10  C   UNL     1      -6.206  17.641  67.950  1.00  0.00    -0.163 C  
HETATM   11  C   UNL     1      -6.367  17.666  66.433  1.00  0.00    -0.265 C  
HETATM   12  C   UNL     1      -7.765  18.120  66.015  1.00  0.00    -0.204 C  
ENDBRANCH   6   7
ENDBRANCH   4   6
ENDBRANCH   2   4
TORSDOF 3
ENDMDL
MODEL      147
REMARK 921   NORMALIZED FREE ENERGY PREDICTED BY IDOCK:   -2.70 KCAL/MOL
REMARK 922        TOTAL FREE ENERGY PREDICTED BY IDOCK:   -3.23 KCAL/MOL
REMARK 923 INTER-LIGAND FREE ENERGY PREDICTED BY IDOCK:   -2.98 KCAL/MOL
REMARK 924 INTRA-LIGAND FREE ENERGY PREDICTED BY IDOCK:   -0.25 KCAL/MOL
REMARK 927      BINDING AFFINITY PREDICTED BY RF-SCORE:    0.00 PKD
ROOT
HETATM    1  C   UNL     1     -10.975  11.394  69.107  1.00  0.00    -0.236 C  
HETATM    2  N   UNL     1     -10.492  12.123  67.941  1.00  0.00    -0.203 NA 
HETATM    3  H   UNL     1     -10.852  11.708  67.082  1.00  0.00     0.000 HD 
ENDROOT
BRANCH   2   4
HETATM    4  C   UNL     1     -10.785  13.564  67.985  1.00  0.00    -0.251 C  
HETATM    5  C   UNL     1     -11.615  13.942  69.218  1.00  0.00    -0.358 C  
BRANCH   4   6
HETATM    6  C   UNL     1      -9.460  14.368  68.005  1.00  0.00    -0.209 C  
BRANCH   6   7
HETATM    7  C   UNL     1      -9.300  15.443  66.897  1.00  0.00    -0.255 C  
HETATM    8  C   UNL     1     -10.468  16.441  66.839  1.00  0.00    -0.289 C  
HETATM    9  C   UNL     1     -10.501  17.379  68.044  1.00  0.00    -0.383 C  
HETATM   10  C   UNL     1      -9.179  18.124  68.206  1.00  0.00    -0.307 C  
HETATM   11  C   UNL     1      -7.982  17.178  68.246  1.00  0.00    -0.236 C  
HETATM   12  C   UNL     1      -7.976  16.213  67.062  1.00  0.00    -0.254 C  
ENDBRANCH   6   7
ENDBRANCH   4   6
ENDBRANCH   2   4
TORSDOF 3
ENDMDL
MODEL      148
REMARK 921   NORMALIZED FREE ENERGY PREDICTED BY IDOCK:   -2.69 KCAL/MOL
REMARK 922        TOTAL FREE ENERGY PREDICTED BY IDOCK:   -3.23 KCAL/MOL
REMARK 923 INTER-LIGAND FREE ENERGY PREDICTED BY IDOCK:   -3.09 KCAL/MOL
REMARK 924 INTRA-LIGAND FREE ENERGY PREDICTED BY IDOCK:   -0.14 KCAL/MOL
REMARK 927      BINDING AFFINITY PREDICTED BY RF-SCORE:    0.00 PKD
ROOT
HETATM    1  C   UNL     1     -11.935  13.705  68.913  1.00  0.00    -0.356 C  
HETATM    2  N   UNL     1     -10.525  13.416  69.147  1.00  0.00    -0.433 NA 
HETATM    3  H   UNL     1     -10.414  12.511  69.604  1.00  0.00     0.000 HD 
ENDROOT
BRANCH   2   4
HETATM    4  C   UNL     1      -9.701  13.490  67.931  1.00  0.00    -0.225 C  
HETATM    5  C   UNL     1     -10.118  12.444  66.890  1.00  0.00    -0.230 C  
BRANCH   4   6
HETATM    6  C   UNL     1      -9.821  14.901  67.301  1.00  0.00    -0.229 C  
BRANCH   6   7
HETATM    7  C   UNL     1      -9.357  16.086  68.190  1.00  0.00    -0.200 C  
HETATM    8  C   UNL     1      -7.881  16.462  67.986  1.00  0.00    -0.159 C  
HETATM    9  C   UNL     1      -7.620  17.103  66.625  1.00  0.00    -0.299 C  
HETATM   10  C   UNL     1      -8.511  18.322  66.402  1.00  0.00    -0.266 C  
HETATM   11  C   UNL     1      -9.989  18.007  66.616  1.00  0.00    -0.362 C  
HETATM   12  C   UNL     1     -10.239  17.328  67.961  1.00  0.00    -0.332 C  
ENDBRANCH   6   7
ENDBRANCH   4   6
ENDBRANCH   2   4
TORSDOF 3
ENDMDL
MODEL      149
REMARK 921   NORMALIZED FREE ENERGY PREDICTED BY IDOCK:   -2.66 KCAL/MOL
REMARK 922        TOTAL FREE ENERGY PREDICTED BY IDOCK:   -3.19 KCAL/MOL
REMARK 923 INTER-LIGAND FREE ENERGY PREDICTED BY IDOCK:   -3.18 KCAL/MOL
REMARK 924 INTRA-LIGAND FREE ENERGY PREDICTED BY IDOCK:   -0.01 KCAL/MOL
REMARK 927      BINDING AFFINITY PREDICTED BY RF-SCORE:    0.00 PKD
ROOT
HETATM    1  C   UNL     1      -9.647   4.156  71.339  1.00  0.00    -0.168 C  
HETATM    2  N   UNL     1     -10.570   3.809  72.412  1.00  0.00    -0.053 NA 
HETATM    3  H   UNL     1     -10.166   3.095  73.019  1.00  0.00     0.000 HD 
ENDROOT
BRANCH   2   4
HETATM    4  C   UNL     1     -11.018   4.968  73.200  1.00  0.00    -0.309 C  
HETATM    5  C   UNL     1     -10.313   5.044  74.560  1.00  0.00    -0.315 C  
BRANCH   4   6
HETATM    6  C   UNL     1     -10.738   6.275  72.415  1.00  0.00    -0.257 C  
BRANCH   6   7
HETATM    7  C   UNL     1     -11.916   6.824  71.566  1.00  0.00    -0.396 C  
HETATM    8  C   UNL     1     -12.225   8.305  71.834  1.00  0.00    -0.383 C  
HETATM    9  C   UNL     1     -11.133   9.238  71.313  1.00  0.00    -0.427 C  
HETATM   10  C   UNL     1     -10.871   9.015  69.827  1.00  0.00    -0.215 C  
HETATM   11  C   UNL     1     -10.582   7.552  69.502  1.00  0.00    -0.239 C  
HETATM   12  C   UNL     1     -11.654   6.619  70.061  1.00  0.00    -0.423 C  
ENDBRANCH   6   7
ENDBRANCH   4   6
ENDBRANCH   2   4
TORSDOF 3
ENDMDL
MODEL      150
REMARK 921   NORMALIZED FREE ENERGY PREDICTED BY IDOCK:   -2.66 KCAL/MOL
REMARK 922        TOTAL FREE ENERGY PREDICTED BY IDOCK:   -3.19 KCAL/MOL
REMARK 923 INTER-LIGAND FREE ENERGY PREDICTED BY IDOCK:   -2.98 KCAL/MOL
REMARK 924 INTRA-LIGAND FREE ENERGY PREDICTED BY IDOCK:   -0.20 KCAL/MOL
REMARK 927      BINDING AFFINITY PREDICTED BY RF-SCORE:    0.00 PKD
ROOT
HETATM    1  C   UNL     1     -10.814   7.177  66.967  1.00  0.00    -0.312 C  
HETATM    2  N   UNL     1     -11.534   6.532  68.057  1.00  0.00    -0.611 NA 
HETATM    3  H   UNL     1     -12.372   6.065  67.710  1.00  0.00     0.000 HD 
ENDROOT
BRANCH   2   4
HETATM    4  C   UNL     1     -10.705   5.600  68.838  1.00  0.00    -0.209 C  
HETATM    5  C   UNL     1      -9.238   5.628  68.394  1.00  0.00    -0.125 C  
BRANCH   4   6
HETATM    6  C   UNL     1     -10.782   5.966  70.343  1.00  0.00    -0.373 C  
BRANCH   6   7
HETATM    7  C   UNL     1      -9.602   5.475  71.223  1.00  0.00    -0.198 C  
HETATM    8  C   UNL     1      -9.361   6.347  72.465  1.00  0.00    -0.145 C  
HETATM    9  C   UNL     1     -10.473   6.212  73.504  1.00  0.00    -0.279 C  
HETATM   10  C   UNL     1     -10.679   4.757  73.914  1.00  0.00    -0.362 C  
HETATM   11  C   UNL     1     -10.900   3.842  72.713  1.00  0.00    -0.116 C  
HETATM   12  C   UNL     1      -9.809   4.011  71.657  1.00  0.00    -0.253 C  
ENDBRANCH   6   7
ENDBRANCH   4   6
ENDBRANCH   2   4
TORSDOF 3
ENDMDL
MODEL      151
REMARK 921   NORMALIZED FREE ENERGY PREDICTED BY IDOCK:   -2.65 KCAL/MOL
REMARK 922        TOTAL FREE ENERGY PREDICTED BY IDOCK:   -3.18 KCAL/MOL
REMARK 923 INTER-LIGAND FREE ENERGY PREDICTED BY IDOCK:   -2.99 KCAL/MOL
REMARK 924 INTRA-LIGAND FREE ENERGY PREDICTED BY IDOCK:   -0.19 KCAL/MOL
REMARK 927      BINDING AFFINITY PREDICTED BY RF-SCORE:    0.00 PKD
ROOT
HETATM    1  C   UNL     1      -7.379   6.876  68.478  1.00  0.00    -0.090 C  
HETATM    2  N   UNL     1      -8.599   6.090  68.615  1.00  0.00    -0.112 NA 
HETATM    3  H   UNL     1      -8.520   5.433  69.391  1.00  0.00     0.000 HD 
ENDROOT
BRANCH   2   4
HETATM    4  C   UNL     1      -9.814   6.908  68.748  1.00  0.00    -0.149 C  
HETATM    5  C   UNL     1     -10.485   7.162  67.392  1.00  0.00    -0.354 C  
BRANCH   4   6
HETATM    6  C   UNL     1     -10.825   6.198  69.684  1.00  0.00    -0.424 C  
BRANCH   6   7
HETATM    7  C   UNL     1     -11.616   7.117  70.653  1.00  0.00    -0.354 C  
HETATM    8  C   UNL     1     -12.280   6.356  71.812  1.00  0.00    -0.312 C  
HETATM    9  C   UNL     1     -11.266   5.811  72.815  1.00  0.00    -0.336 C  
HETATM   10  C   UNL     1     -10.368   6.918  73.358  1.00  0.00    -0.337 C  
HETATM   11  C   UNL     1      -9.701   7.721  72.245  1.00  0.00    -0.241 C  
HETATM   12  C   UNL     1     -10.714   8.229  71.221  1.00  0.00    -0.276 C  
ENDBRANCH   6   7
ENDBRANCH   4   6
ENDBRANCH   2   4
TORSDOF 3
ENDMDL
MODEL      152
REMARK 921   NORMALIZED FREE ENERGY PREDICTED BY IDOCK:   -2.65 KCAL/MOL
REMARK 922        TOTAL FREE ENERGY PREDICTED BY IDOCK:   -3.18 KCAL/MOL
REMARK 923 INTER-LIGAND FREE ENERGY PREDICTED BY IDOCK:   -2.97 KCAL/MOL
REMARK 924 INTRA-LIGAND FREE ENERGY PREDICTED BY IDOCK:   -0.21 KCAL/MOL
REMARK 927      BINDING AFFINITY PREDICTED BY RF-SCORE:    0.00 PKD
ROOT
HETATM    1  C   UNL     1     -10.823   5.923  70.491  1.00  0.00    -0.296 C  
HETATM    2  N   UNL     1     -11.690   7.063  70.220  1.00  0.00    -0.529 NA 
HETATM    3  H   UNL     1     -12.653   6.759  70.078  1.00  0.00     0.000 HD 
ENDROOT
BRANCH   2   4
HETATM    4  C   UNL     1     -11.622   8.111  71.251  1.00  0.00    -0.273 C  
HETATM    5  C   UNL     1     -10.829   7.653  72.481  1.00  0.00    -0.367 C  
BRANCH   4   6
HETATM    6  C   UNL     1     -10.952   9.380  70.665  1.00  0.00    -0.352 C  
BRANCH   6   7
HETATM    7  C   UNL     1     -10.883   9.460  69.117  1.00  0.00    -0.176 C  
HETATM    8  C   UNL     1     -11.708  10.614  68.526  1.00  0.00    -0.200 C  
HETATM    9  C   UNL     1     -11.110  11.985  68.838  1.00  0.00    -0.298 C  
HETATM   10  C   UNL     1      -9.661  12.080  68.370  1.00  0.00    -0.190 C  
HETATM   11  C   UNL     1      -8.801  10.941  68.911  1.00  0.00    -0.143 C  
HETATM   12  C   UNL     1      -9.424   9.574  68.634  1.00  0.00    -0.143 C  
ENDBRANCH   6   7
ENDBRANCH   4   6
ENDBRANCH   2   4
TORSDOF 3
ENDMDL
MODEL      153
REMARK 921   NORMALIZED FREE ENERGY PREDICTED BY IDOCK:   -2.65 KCAL/MOL
REMARK 922        TOTAL FREE ENERGY PREDICTED BY IDOCK:   -3.17 KCAL/MOL
REMARK 923 INTER-LIGAND FREE ENERGY PREDICTED BY IDOCK:   -3.00 KCAL/MOL
REMARK 924 INTRA-LIGAND FREE ENERGY PREDICTED BY IDOCK:   -0.18 KCAL/MOL
REMARK 927      BINDING AFFINITY PREDICTED BY RF-SCORE:    0.00 PKD
ROOT
HETATM    1  C   UNL     1      -7.988   8.841  67.118  1.00  0.00    -0.096 C  
HETATM    2  N   UNL     1      -8.135  10.047  66.312  1.00  0.00    -0.115 NA 
HETATM    3  H   UNL     1      -7.743   9.908  65.381  1.00  0.00     0.000 HD 
ENDROOT
BRANCH   2   4
HETATM    4  C   UNL     1      -9.522  10.530  66.226  1.00  0.00    -0.177 C  
HETATM    5  C   UNL     1     -10.477   9.688  67.081  1.00  0.00    -0.317 C  
BRANCH   4   6
HETATM    6  C   UNL     1      -9.593  12.005  66.697  1.00  0.00    -0.225 C  
BRANCH   6   7
HETATM    7  C   UNL     1     -10.578  12.920  65.922  1.00  0.00    -0.287 C  
HETATM    8  C   UNL     1     -11.975  12.995  66.560  1.00  0.00    -0.457 C  
HETATM    9  C   UNL     1     -11.976  13.754  67.885  1.00  0.00    -0.391 C  
HETATM   10  C   UNL     1     -11.394  15.155  67.726  1.00  0.00    -0.335 C  
HETATM   11  C   UNL     1     -10.014  15.139  67.074  1.00  0.00    -0.242 C  
HETATM   12  C   UNL     1     -10.007  14.343  65.771  1.00  0.00    -0.354 C  
ENDBRANCH   6   7
ENDBRANCH   4   6
ENDBRANCH   2   4
TORSDOF 3
ENDMDL
MODEL      154
REMARK 921   NORMALIZED FREE ENERGY PREDICTED BY IDOCK:   -2.62 KCAL/MOL
REMARK 922        TOTAL FREE ENERGY PREDICTED BY IDOCK:   -3.15 KCAL/MOL
REMARK 923 INTER-LIGAND FREE ENERGY PREDICTED BY IDOCK:   -3.00 KCAL/MOL
REMARK 924 INTRA-LIGAND FREE ENERGY PREDICTED BY IDOCK:   -0.14 KCAL/MOL
REMARK 927      BINDING AFFINITY PREDICTED BY RF-SCORE:    0.00 PKD
ROOT
HETATM    1  C   UNL     1     -11.089   6.145  69.047  1.00  0.00    -0.367 C  
HETATM    2  N   UNL     1     -10.616   5.001  69.816  1.00  0.00    -0.125 NA 
HETATM    3  H   UNL     1      -9.770   4.612  69.400  1.00  0.00     0.000 HD 
ENDROOT
BRANCH   2   4
HETATM    4  C   UNL     1     -10.405   5.298  71.242  1.00  0.00    -0.222 C  
HETATM    5  C   UNL     1      -9.834   4.093  71.999  1.00  0.00    -0.242 C  
BRANCH   4   6
HETATM    6  C   UNL     1      -9.430   6.494  71.390  1.00  0.00    -0.164 C  
BRANCH   6   7
HETATM    7  C   UNL     1      -9.767   7.511  72.513  1.00  0.00    -0.218 C  
HETATM    8  C   UNL     1      -9.311   8.944  72.197  1.00  0.00    -0.142 C  
HETATM    9  C   UNL     1     -10.125   9.587  71.075  1.00  0.00    -0.299 C  
HETATM   10  C   UNL     1     -11.618   9.566  71.388  1.00  0.00    -0.466 C  
HETATM   11  C   UNL     1     -12.119   8.166  71.732  1.00  0.00    -0.357 C  
HETATM   12  C   UNL     1     -11.276   7.511  72.824  1.00  0.00    -0.403 C  
ENDBRANCH   6   7
ENDBRANCH   4   6
ENDBRANCH   2   4
TORSDOF 3
ENDMDL
MODEL      155
REMARK 921   NORMALIZED FREE ENERGY PREDICTED BY IDOCK:   -2.60 KCAL/MOL
REMARK 922        TOTAL FREE ENERGY PREDICTED BY IDOCK:   -3.12 KCAL/MOL
REMARK 923 INTER-LIGAND FREE ENERGY PREDICTED BY IDOCK:   -2.95 KCAL/MOL
REMARK 924 INTRA-LIGAND FREE ENERGY PREDICTED BY IDOCK:   -0.17 KCAL/MOL
REMARK 927      BINDING AFFINITY PREDICTED BY RF-SCORE:    0.00 PKD
ROOT
HETATM    1  C   UNL     1      -8.886   7.261  65.611  1.00  0.00    -0.014 C  
HETATM    2  N   UNL     1      -9.867   8.258  66.020  1.00  0.00    -0.468 NA 
HETATM    3  H   UNL     1     -10.211   8.061  66.960  1.00  0.00     0.000 HD 
ENDROOT
BRANCH   2   4
HETATM    4  C   UNL     1      -9.375   9.641  65.925  1.00  0.00    -0.218 C  
HETATM    5  C   UNL     1      -8.968  10.007  64.492  1.00  0.00    -0.261 C  
BRANCH   4   6
HETATM    6  C   UNL     1     -10.475  10.623  66.401  1.00  0.00    -0.276 C  
BRANCH   6   7
HETATM    7  C   UNL     1     -10.080  11.578  67.560  1.00  0.00    -0.203 C  
HETATM    8  C   UNL     1     -11.286  12.138  68.329  1.00  0.00    -0.343 C  
HETATM    9  C   UNL     1     -11.999  11.075  69.162  1.00  0.00    -0.394 C  
HETATM   10  C   UNL     1     -11.037  10.382  70.123  1.00  0.00    -0.383 C  
HETATM   11  C   UNL     1      -9.807   9.826  69.411  1.00  0.00    -0.217 C  
HETATM   12  C   UNL     1      -9.122  10.882  68.546  1.00  0.00    -0.173 C  
ENDBRANCH   6   7
ENDBRANCH   4   6
ENDBRANCH   2   4
TORSDOF 3
ENDMDL
MODEL      156
REMARK 921   NORMALIZED FREE ENERGY PREDICTED BY IDOCK:   -2.59 KCAL/MOL
REMARK 922        TOTAL FREE ENERGY PREDICTED BY IDOCK:   -3.11 KCAL/MOL
REMARK 923 INTER-LIGAND FREE ENERGY PREDICTED BY IDOCK:   -2.90 KCAL/MOL
REMARK 924 INTRA-LIGAND FREE ENERGY PREDICTED BY IDOCK:   -0.21 KCAL/MOL
REMARK 927      BINDING AFFINITY PREDICTED BY RF-SCORE:    0.00 PKD
ROOT
HETATM    1  C   UNL     1      -7.681   5.758  68.926  1.00  0.00    -0.090 C  
HETATM    2  N   UNL     1      -8.017   4.772  69.946  1.00  0.00    -0.068 NA 
HETATM    3  H   UNL     1      -7.434   4.895  70.773  1.00  0.00     0.000 HD 
ENDROOT
BRANCH   2   4
HETATM    4  C   UNL     1      -9.443   4.768  70.311  1.00  0.00    -0.174 C  
HETATM    5  C   UNL     1      -9.769   3.671  71.332  1.00  0.00    -0.241 C  
BRANCH   4   6
HETATM    6  C   UNL     1      -9.836   6.143  70.907  1.00  0.00    -0.215 C  
BRANCH   6   7
HETATM    7  C   UNL     1     -11.128   6.788  70.339  1.00  0.00    -0.357 C  
HETATM    8  C   UNL     1     -12.225   6.993  71.395  1.00  0.00    -0.407 C  
HETATM    9  C   UNL     1     -11.872   8.080  72.407  1.00  0.00    -0.429 C  
HETATM   10  C   UNL     1     -11.552   9.403  71.716  1.00  0.00    -0.433 C  
HETATM   11  C   UNL     1     -10.482   9.250  70.638  1.00  0.00    -0.325 C  
HETATM   12  C   UNL     1     -10.819   8.132  69.653  1.00  0.00    -0.162 C  
ENDBRANCH   6   7
ENDBRANCH   4   6
ENDBRANCH   2   4
TORSDOF 3
ENDMDL
MODEL      157
REMARK 921   NORMALIZED FREE ENERGY PREDICTED BY IDOCK:   -2.58 KCAL/MOL
REMARK 922        TOTAL FREE ENERGY PREDICTED BY IDOCK:   -3.10 KCAL/MOL
REMARK 923 INTER-LIGAND FREE ENERGY PREDICTED BY IDOCK:   -2.86 KCAL/MOL
REMARK 924 INTRA-LIGAND FREE ENERGY PREDICTED BY IDOCK:   -0.24 KCAL/MOL
REMARK 927      BINDING AFFINITY PREDICTED BY RF-SCORE:    0.00 PKD
ROOT
HETATM    1  C   UNL     1      -7.785   6.843  66.878  1.00  0.00    -0.099 C  
HETATM    2  N   UNL     1      -8.725   7.386  67.850  1.00  0.00    -0.124 NA 
HETATM    3  H   UNL     1      -8.418   8.302  68.176  1.00  0.00     0.000 HD 
ENDROOT
BRANCH   2   4
HETATM    4  C   UNL     1     -10.110   7.447  67.357  1.00  0.00    -0.211 C  
HETATM    5  C   UNL     1     -11.002   6.392  68.022  1.00  0.00    -0.400 C  
BRANCH   4   6
HETATM    6  C   UNL     1     -10.703   8.852  67.632  1.00  0.00    -0.221 C  
BRANCH   6   7
HETATM    7  C   UNL     1      -9.905   9.747  68.618  1.00  0.00    -0.168 C  
HETATM    8  C   UNL     1      -9.918  11.236  68.239  1.00  0.00    -0.201 C  
HETATM    9  C   UNL     1     -11.289  11.881  68.429  1.00  0.00    -0.331 C  
HETATM   10  C   UNL     1     -11.799  11.695  69.855  1.00  0.00    -0.434 C  
HETATM   11  C   UNL     1     -11.785  10.232  70.291  1.00  0.00    -0.388 C  
HETATM   12  C   UNL     1     -10.423   9.580  70.059  1.00  0.00    -0.283 C  
ENDBRANCH   6   7
ENDBRANCH   4   6
ENDBRANCH   2   4
TORSDOF 3
ENDMDL
MODEL      158
REMARK 921   NORMALIZED FREE ENERGY PREDICTED BY IDOCK:   -2.58 KCAL/MOL
REMARK 922        TOTAL FREE ENERGY PREDICTED BY IDOCK:   -3.10 KCAL/MOL
REMARK 923 INTER-LIGAND FREE ENERGY PREDICTED BY IDOCK:   -2.83 KCAL/MOL
REMARK 924 INTRA-LIGAND FREE ENERGY PREDICTED BY IDOCK:   -0.27 KCAL/MOL
REMARK 927      BINDING AFFINITY PREDICTED BY RF-SCORE:    0.00 PKD
ROOT
HETATM    1  C   UNL     1      -5.173   8.893  71.386  1.00  0.00    -0.037 C  
HETATM    2  N   UNL     1      -6.456   9.475  71.760  1.00  0.00    -0.301 NA 
HETATM    3  H   UNL     1      -6.421  10.493  71.703  1.00  0.00     0.000 HD 
ENDROOT
BRANCH   2   4
HETATM    4  C   UNL     1      -7.588   8.949  70.981  1.00  0.00    -0.118 C  
HETATM    5  C   UNL     1      -7.125   8.021  69.851  1.00  0.00    -0.057 C  
BRANCH   4   6
HETATM    6  C   UNL     1      -8.547   8.166  71.914  1.00  0.00    -0.202 C  
BRANCH   6   7
HETATM    7  C   UNL     1     -10.006   8.690  71.985  1.00  0.00    -0.399 C  
HETATM    8  C   UNL     1     -10.656   8.880  70.605  1.00  0.00    -0.277 C  
HETATM    9  C   UNL     1     -10.938   7.555  69.900  1.00  0.00    -0.223 C  
HETATM   10  C   UNL     1     -11.797   6.636  70.764  1.00  0.00    -0.441 C  
HETATM   11  C   UNL     1     -11.207   6.433  72.157  1.00  0.00    -0.319 C  
HETATM   12  C   UNL     1     -10.886   7.760  72.841  1.00  0.00    -0.453 C  
ENDBRANCH   6   7
ENDBRANCH   4   6
ENDBRANCH   2   4
TORSDOF 3
ENDMDL
MODEL      159
REMARK 921   NORMALIZED FREE ENERGY PREDICTED BY IDOCK:   -2.54 KCAL/MOL
REMARK 922        TOTAL FREE ENERGY PREDICTED BY IDOCK:   -3.05 KCAL/MOL
REMARK 923 INTER-LIGAND FREE ENERGY PREDICTED BY IDOCK:   -2.82 KCAL/MOL
REMARK 924 INTRA-LIGAND FREE ENERGY PREDICTED BY IDOCK:   -0.23 KCAL/MOL
REMARK 927      BINDING AFFINITY PREDICTED BY RF-SCORE:    0.00 PKD
ROOT
HETATM    1  C   UNL     1     -10.456   5.512  69.485  1.00  0.00    -0.297 C  
HETATM    2  N   UNL     1     -11.686   6.293  69.542  1.00  0.00    -0.473 NA 
HETATM    3  H   UNL     1     -12.502   5.683  69.508  1.00  0.00     0.000 HD 
ENDROOT
BRANCH   2   4
HETATM    4  C   UNL     1     -11.757   7.194  70.703  1.00  0.00    -0.307 C  
HETATM    5  C   UNL     1     -12.967   6.885  71.593  1.00  0.00    -0.359 C  
BRANCH   4   6
HETATM    6  C   UNL     1     -10.465   7.063  71.548  1.00  0.00    -0.222 C  
BRANCH   6   7
HETATM    7  C   UNL     1     -10.011   8.342  72.300  1.00  0.00    -0.383 C  
HETATM    8  C   UNL     1      -8.693   8.164  73.071  1.00  0.00    -0.309 C  
HETATM    9  C   UNL     1      -7.486   8.021  72.146  1.00  0.00    -0.111 C  
HETATM   10  C   UNL     1      -7.378   9.199  71.183  1.00  0.00    -0.091 C  
HETATM   11  C   UNL     1      -8.671   9.435  70.408  1.00  0.00    -0.278 C  
HETATM   12  C   UNL     1      -9.882   9.535  71.334  1.00  0.00     0.012 C  
ENDBRANCH   6   7
ENDBRANCH   4   6
ENDBRANCH   2   4
TORSDOF 3
ENDMDL
MODEL      160
REMARK 921   NORMALIZED FREE ENERGY PREDICTED BY IDOCK:   -2.52 KCAL/MOL
REMARK 922        TOTAL FREE ENERGY PREDICTED BY IDOCK:   -3.03 KCAL/MOL
REMARK 923 INTER-LIGAND FREE ENERGY PREDICTED BY IDOCK:   -2.82 KCAL/MOL
REMARK 924 INTRA-LIGAND FREE ENERGY PREDICTED BY IDOCK:   -0.21 KCAL/MOL
REMARK 927      BINDING AFFINITY PREDICTED BY RF-SCORE:    0.00 PKD
ROOT
HETATM    1  C   UNL     1     -11.923  14.169  68.380  1.00  0.00    -0.331 C  
HETATM    2  N   UNL     1     -10.997  13.073  68.124  1.00  0.00    -0.234 NA 
HETATM    3  H   UNL     1     -10.607  12.719  68.997  1.00  0.00     0.000 HD 
ENDROOT
BRANCH   2   4
HETATM    4  C   UNL     1     -11.586  11.979  67.336  1.00  0.00    -0.318 C  
HETATM    5  C   UNL     1     -11.005  11.917  65.918  1.00  0.00    -0.354 C  
BRANCH   4   6
HETATM    6  C   UNL     1     -11.327  10.624  68.044  1.00  0.00    -0.350 C  
BRANCH   6   7
HETATM    7  C   UNL     1      -9.947   9.968  67.774  1.00  0.00    -0.203 C  
HETATM    8  C   UNL     1      -8.866  10.378  68.787  1.00  0.00    -0.157 C  
HETATM    9  C   UNL     1      -9.112   9.796  70.178  1.00  0.00    -0.240 C  
HETATM   10  C   UNL     1      -9.241   8.276  70.131  1.00  0.00    -0.155 C  
HETATM   11  C   UNL     1     -10.287   7.814  69.120  1.00  0.00    -0.219 C  
HETATM   12  C   UNL     1     -10.062   8.432  67.742  1.00  0.00    -0.263 C  
ENDBRANCH   6   7
ENDBRANCH   4   6
ENDBRANCH   2   4
TORSDOF 3
ENDMDL
MODEL      161
REMARK 921   NORMALIZED FREE ENERGY PREDICTED BY IDOCK:   -2.52 KCAL/MOL
REMARK 922        TOTAL FREE ENERGY PREDICTED BY IDOCK:   -3.03 KCAL/MOL
REMARK 923 INTER-LIGAND FREE ENERGY PREDICTED BY IDOCK:   -2.84 KCAL/MOL
REMARK 924 INTRA-LIGAND FREE ENERGY PREDICTED BY IDOCK:   -0.19 KCAL/MOL
REMARK 927      BINDING AFFINITY PREDICTED BY RF-SCORE:    0.00 PKD
ROOT
HETATM    1  C   UNL     1      -6.475  12.376  67.425  1.00  0.00    -0.154 C  
HETATM    2  N   UNL     1      -7.612  11.854  66.678  1.00  0.00    -0.367 NA 
HETATM    3  H   UNL     1      -7.372  10.972  66.226  1.00  0.00     0.000 HD 
ENDROOT
BRANCH   2   4
HETATM    4  C   UNL     1      -8.831  11.709  67.488  1.00  0.00    -0.158 C  
HETATM    5  C   UNL     1      -8.601  10.818  68.715  1.00  0.00    -0.156 C  
BRANCH   4   6
HETATM    6  C   UNL     1      -9.315  13.103  67.962  1.00  0.00    -0.219 C  
BRANCH   6   7
HETATM    7  C   UNL     1      -9.817  14.063  66.852  1.00  0.00    -0.267 C  
HETATM    8  C   UNL     1     -11.250  14.569  67.083  1.00  0.00    -0.341 C  
HETATM    9  C   UNL     1     -11.351  15.534  68.262  1.00  0.00    -0.360 C  
HETATM   10  C   UNL     1     -10.396  16.713  68.100  1.00  0.00    -0.303 C  
HETATM   11  C   UNL     1      -8.960  16.265  67.844  1.00  0.00    -0.187 C  
HETATM   12  C   UNL     1      -8.869  15.267  66.692  1.00  0.00    -0.328 C  
ENDBRANCH   6   7
ENDBRANCH   4   6
ENDBRANCH   2   4
TORSDOF 3
ENDMDL
MODEL      162
REMARK 921   NORMALIZED FREE ENERGY PREDICTED BY IDOCK:   -2.52 KCAL/MOL
REMARK 922        TOTAL FREE ENERGY PREDICTED BY IDOCK:   -3.03 KCAL/MOL
REMARK 923 INTER-LIGAND FREE ENERGY PREDICTED BY IDOCK:   -2.84 KCAL/MOL
REMARK 924 INTRA-LIGAND FREE ENERGY PREDICTED BY IDOCK:   -0.19 KCAL/MOL
REMARK 927      BINDING AFFINITY PREDICTED BY RF-SCORE:    0.00 PKD
ROOT
HETATM    1  C   UNL     1     -10.365   5.730  67.894  1.00  0.00    -0.214 C  
HETATM    2  N   UNL     1     -11.236   6.550  68.726  1.00  0.00    -0.545 NA 
HETATM    3  H   UNL     1     -11.690   5.983  69.442  1.00  0.00     0.000 HD 
ENDROOT
BRANCH   2   4
HETATM    4  C   UNL     1     -10.555   7.705  69.331  1.00  0.00    -0.215 C  
HETATM    5  C   UNL     1      -9.552   7.277  70.410  1.00  0.00    -0.165 C  
BRANCH   4   6
HETATM    6  C   UNL     1      -9.804   8.504  68.236  1.00  0.00    -0.190 C  
BRANCH   6   7
HETATM    7  C   UNL     1     -10.661   9.507  67.417  1.00  0.00    -0.297 C  
HETATM    8  C   UNL     1     -10.943  10.821  68.163  1.00  0.00    -0.308 C  
HETATM    9  C   UNL     1      -9.696  11.687  68.322  1.00  0.00    -0.197 C  
HETATM   10  C   UNL     1      -9.042  11.976  66.974  1.00  0.00    -0.191 C  
HETATM   11  C   UNL     1      -8.761  10.702  66.181  1.00  0.00    -0.178 C  
HETATM   12  C   UNL     1     -10.001   9.819  66.061  1.00  0.00    -0.342 C  
ENDBRANCH   6   7
ENDBRANCH   4   6
ENDBRANCH   2   4
TORSDOF 3
ENDMDL
MODEL      163
REMARK 921   NORMALIZED FREE ENERGY PREDICTED BY IDOCK:   -2.52 KCAL/MOL
REMARK 922        TOTAL FREE ENERGY PREDICTED BY IDOCK:   -3.02 KCAL/MOL
REMARK 923 INTER-LIGAND FREE ENERGY PREDICTED BY IDOCK:   -2.82 KCAL/MOL
REMARK 924 INTRA-LIGAND FREE ENERGY PREDICTED BY IDOCK:   -0.20 KCAL/MOL
REMARK 927      BINDING AFFINITY PREDICTED BY RF-SCORE:    0.00 PKD
ROOT
HETATM    1  C   UNL     1     -11.548  12.946  69.447  1.00  0.00    -0.302 C  
HETATM    2  N   UNL     1     -11.066  11.602  69.741  1.00  0.00    -0.478 NA 
HETATM    3  H   UNL     1     -11.402  11.289  70.651  1.00  0.00     0.000 HD 
ENDROOT
BRANCH   2   4
HETATM    4  C   UNL     1     -11.397  10.618  68.698  1.00  0.00    -0.281 C  
HETATM    5  C   UNL     1     -10.963  11.092  67.305  1.00  0.00    -0.356 C  
BRANCH   4   6
HETATM    6  C   UNL     1     -10.700   9.269  69.010  1.00  0.00    -0.189 C  
BRANCH   6   7
HETATM    7  C   UNL     1     -10.275   8.423  67.780  1.00  0.00    -0.283 C  
HETATM    8  C   UNL     1      -8.762   8.163  67.710  1.00  0.00    -0.130 C  
HETATM    9  C   UNL     1      -8.277   7.211  68.802  1.00  0.00    -0.122 C  
HETATM   10  C   UNL     1      -9.041   5.891  68.770  1.00  0.00    -0.116 C  
HETATM   11  C   UNL     1     -10.553   6.094  68.814  1.00  0.00    -0.330 C  
HETATM   12  C   UNL     1     -11.028   7.079  67.748  1.00  0.00    -0.234 C  
ENDBRANCH   6   7
ENDBRANCH   4   6
ENDBRANCH   2   4
TORSDOF 3
ENDMDL
MODEL      164
REMARK 921   NORMALIZED FREE ENERGY PREDICTED BY IDOCK:   -2.52 KCAL/MOL
REMARK 922        TOTAL FREE ENERGY PREDICTED BY IDOCK:   -3.02 KCAL/MOL
REMARK 923 INTER-LIGAND FREE ENERGY PREDICTED BY IDOCK:   -2.80 KCAL/MOL
REMARK 924 INTRA-LIGAND FREE ENERGY PREDICTED BY IDOCK:   -0.22 KCAL/MOL
REMARK 927      BINDING AFFINITY PREDICTED BY RF-SCORE:    0.00 PKD
ROOT
HETATM    1  C   UNL     1      -7.998   6.145  66.453  1.00  0.00    -0.106 C  
HETATM    2  N   UNL     1      -8.790   7.173  65.789  1.00  0.00    -0.314 NA 
HETATM    3  H   UNL     1      -9.430   6.754  65.114  1.00  0.00     0.000 HD 
ENDROOT
BRANCH   2   4
HETATM    4  C   UNL     1      -9.516   8.049  66.721  1.00  0.00    -0.202 C  
HETATM    5  C   UNL     1      -8.616   8.549  67.857  1.00  0.00    -0.134 C  
BRANCH   4   6
HETATM    6  C   UNL     1     -10.086   9.271  65.957  1.00  0.00    -0.262 C  
BRANCH   6   7
HETATM    7  C   UNL     1      -9.079  10.410  65.648  1.00  0.00    -0.206 C  
HETATM    8  C   UNL     1      -8.499  10.347  64.226  1.00  0.00    -0.159 C  
HETATM    9  C   UNL     1      -9.534  10.681  63.154  1.00  0.00    -0.360 C  
HETATM   10  C   UNL     1     -10.174  12.043  63.401  1.00  0.00    -0.457 C  
HETATM   11  C   UNL     1     -10.745  12.168  64.811  1.00  0.00    -0.342 C  
HETATM   12  C   UNL     1      -9.720  11.792  65.878  1.00  0.00    -0.259 C  
ENDBRANCH   6   7
ENDBRANCH   4   6
ENDBRANCH   2   4
TORSDOF 3
ENDMDL
MODEL      165
REMARK 921   NORMALIZED FREE ENERGY PREDICTED BY IDOCK:   -2.51 KCAL/MOL
REMARK 922        TOTAL FREE ENERGY PREDICTED BY IDOCK:   -3.02 KCAL/MOL
REMARK 923 INTER-LIGAND FREE ENERGY PREDICTED BY IDOCK:   -2.77 KCAL/MOL
REMARK 924 INTRA-LIGAND FREE ENERGY PREDICTED BY IDOCK:   -0.24 KCAL/MOL
REMARK 927      BINDING AFFINITY PREDICTED BY RF-SCORE:    0.00 PKD
ROOT
HETATM    1  C   UNL     1     -12.526   7.869  71.630  1.00  0.00    -0.319 C  
HETATM    2  N   UNL     1     -11.868   7.644  70.350  1.00  0.00    -0.490 NA 
HETATM    3  H   UNL     1     -11.684   8.529  69.878  1.00  0.00     0.000 HD 
ENDROOT
BRANCH   2   4
HETATM    4  C   UNL     1     -10.637   6.845  70.454  1.00  0.00    -0.219 C  
HETATM    5  C   UNL     1      -9.496   7.634  71.107  1.00  0.00    -0.163 C  
BRANCH   4   6
HETATM    6  C   UNL     1     -10.909   5.569  71.290  1.00  0.00    -0.250 C  
BRANCH   6   7
HETATM    7  C   UNL     1      -9.714   5.033  72.123  1.00  0.00    -0.208 C  
HETATM    8  C   UNL     1     -10.097   4.637  73.558  1.00  0.00    -0.195 C  
HETATM    9  C   UNL     1     -10.971   3.386  73.610  1.00  0.00    -0.329 C  
HETATM   10  C   UNL     1     -10.305   2.211  72.899  1.00  0.00    -0.229 C  
HETATM   11  C   UNL     1      -9.883   2.560  71.474  1.00  0.00    -0.196 C  
HETATM   12  C   UNL     1      -9.045   3.836  71.423  1.00  0.00    -0.177 C  
ENDBRANCH   6   7
ENDBRANCH   4   6
ENDBRANCH   2   4
TORSDOF 3
ENDMDL
MODEL      166
REMARK 921   NORMALIZED FREE ENERGY PREDICTED BY IDOCK:   -2.48 KCAL/MOL
REMARK 922        TOTAL FREE ENERGY PREDICTED BY IDOCK:   -2.97 KCAL/MOL
REMARK 923 INTER-LIGAND FREE ENERGY PREDICTED BY IDOCK:   -2.77 KCAL/MOL
REMARK 924 INTRA-LIGAND FREE ENERGY PREDICTED BY IDOCK:   -0.20 KCAL/MOL
REMARK 927      BINDING AFFINITY PREDICTED BY RF-SCORE:    0.00 PKD
ROOT
HETATM    1  C   UNL     1      -6.799  14.674  69.204  1.00  0.00    -0.126 C  
HETATM    2  N   UNL     1      -8.071  13.964  69.155  1.00  0.00    -0.333 NA 
HETATM    3  H   UNL     1      -8.851  14.618  69.217  1.00  0.00     0.000 HD 
ENDROOT
BRANCH   2   4
HETATM    4  C   UNL     1      -8.213  13.095  67.977  1.00  0.00    -0.158 C  
HETATM    5  C   UNL     1      -6.865  12.827  67.296  1.00  0.00    -0.087 C  
BRANCH   4   6
HETATM    6  C   UNL     1      -8.841  11.741  68.396  1.00  0.00    -0.161 C  
BRANCH   6   7
HETATM    7  C   UNL     1     -10.220  11.407  67.767  1.00  0.00    -0.202 C  
HETATM    8  C   UNL     1     -10.823  10.089  68.278  1.00  0.00    -0.286 C  
HETATM    9  C   UNL     1     -11.268  10.172  69.737  1.00  0.00    -0.325 C  
HETATM   10  C   UNL     1     -12.249  11.320  69.956  1.00  0.00    -0.389 C  
HETATM   11  C   UNL     1     -11.708  12.651  69.442  1.00  0.00    -0.387 C  
HETATM   12  C   UNL     1     -11.225  12.552  67.997  1.00  0.00    -0.316 C  
ENDBRANCH   6   7
ENDBRANCH   4   6
ENDBRANCH   2   4
TORSDOF 3
ENDMDL
MODEL      167
REMARK 921   NORMALIZED FREE ENERGY PREDICTED BY IDOCK:   -2.47 KCAL/MOL
REMARK 922        TOTAL FREE ENERGY PREDICTED BY IDOCK:   -2.97 KCAL/MOL
REMARK 923 INTER-LIGAND FREE ENERGY PREDICTED BY IDOCK:   -2.74 KCAL/MOL
REMARK 924 INTRA-LIGAND FREE ENERGY PREDICTED BY IDOCK:   -0.23 KCAL/MOL
REMARK 927      BINDING AFFINITY PREDICTED BY RF-SCORE:    0.00 PKD
ROOT
HETATM    1  C   UNL     1     -10.075   4.285  65.563  1.00  0.00    -0.223 C  
HETATM    2  N   UNL     1      -9.602   5.578  66.042  1.00  0.00    -0.259 NA 
HETATM    3  H   UNL     1      -9.461   6.221  65.264  1.00  0.00     0.000 HD 
ENDROOT
BRANCH   2   4
HETATM    4  C   UNL     1     -10.473   6.181  67.063  1.00  0.00    -0.277 C  
HETATM    5  C   UNL     1      -9.855   6.099  68.464  1.00  0.00    -0.157 C  
BRANCH   4   6
HETATM    6  C   UNL     1     -10.737   7.668  66.716  1.00  0.00    -0.143 C  
BRANCH   6   7
HETATM    7  C   UNL     1      -9.561   8.647  66.978  1.00  0.00    -0.240 C  
HETATM    8  C   UNL     1      -8.907   9.175  65.692  1.00  0.00    -0.222 C  
HETATM    9  C   UNL     1      -9.813  10.132  64.921  1.00  0.00    -0.390 C  
HETATM   10  C   UNL     1     -10.269  11.296  65.796  1.00  0.00    -0.301 C  
HETATM   11  C   UNL     1     -10.906  10.825  67.101  1.00  0.00    -0.335 C  
HETATM   12  C   UNL     1     -10.014   9.835  67.847  1.00  0.00    -0.196 C  
ENDBRANCH   6   7
ENDBRANCH   4   6
ENDBRANCH   2   4
TORSDOF 3
ENDMDL
MODEL      168
REMARK 921   NORMALIZED FREE ENERGY PREDICTED BY IDOCK:   -2.46 KCAL/MOL
REMARK 922        TOTAL FREE ENERGY PREDICTED BY IDOCK:   -2.95 KCAL/MOL
REMARK 923 INTER-LIGAND FREE ENERGY PREDICTED BY IDOCK:   -2.74 KCAL/MOL
REMARK 924 INTRA-LIGAND FREE ENERGY PREDICTED BY IDOCK:   -0.22 KCAL/MOL
REMARK 927      BINDING AFFINITY PREDICTED BY RF-SCORE:    0.00 PKD
ROOT
HETATM    1  C   UNL     1      -8.342   7.763  71.977  1.00  0.00    -0.115 C  
HETATM    2  N   UNL     1      -9.307   8.841  72.153  1.00  0.00    -0.351 NA 
HETATM    3  H   UNL     1      -8.832   9.721  72.353  1.00  0.00     0.000 HD 
ENDROOT
BRANCH   2   4
HETATM    4  C   UNL     1     -10.231   8.994  71.018  1.00  0.00    -0.277 C  
HETATM    5  C   UNL     1     -11.535   9.687  71.431  1.00  0.00    -0.455 C  
BRANCH   4   6
HETATM    6  C   UNL     1      -9.553   9.824  69.899  1.00  0.00    -0.269 C  
BRANCH   6   7
HETATM    7  C   UNL     1      -9.527   9.174  68.490  1.00  0.00    -0.151 C  
HETATM    8  C   UNL     1     -10.768   9.500  67.643  1.00  0.00    -0.314 C  
HETATM    9  C   UNL     1     -10.812  10.962  67.203  1.00  0.00    -0.337 C  
HETATM   10  C   UNL     1      -9.543  11.357  66.453  1.00  0.00    -0.228 C  
HETATM   11  C   UNL     1      -8.278  11.031  67.242  1.00  0.00    -0.125 C  
HETATM   12  C   UNL     1      -8.258   9.580  67.717  1.00  0.00    -0.114 C  
ENDBRANCH   6   7
ENDBRANCH   4   6
ENDBRANCH   2   4
TORSDOF 3
ENDMDL
MODEL      169
REMARK 921   NORMALIZED FREE ENERGY PREDICTED BY IDOCK:   -2.45 KCAL/MOL
REMARK 922        TOTAL FREE ENERGY PREDICTED BY IDOCK:   -2.94 KCAL/MOL
REMARK 923 INTER-LIGAND FREE ENERGY PREDICTED BY IDOCK:   -2.81 KCAL/MOL
REMARK 924 INTRA-LIGAND FREE ENERGY PREDICTED BY IDOCK:   -0.13 KCAL/MOL
REMARK 927      BINDING AFFINITY PREDICTED BY RF-SCORE:    0.00 PKD
ROOT
HETATM    1  C   UNL     1      -8.315   8.571  65.500  1.00  0.00    -0.156 C  
HETATM    2  N   UNL     1      -9.667   8.681  66.034  1.00  0.00    -0.433 NA 
HETATM    3  H   UNL     1      -9.999   7.775  66.366  1.00  0.00     0.000 HD 
ENDROOT
BRANCH   2   4
HETATM    4  C   UNL     1      -9.803   9.702  67.084  1.00  0.00    -0.186 C  
HETATM    5  C   UNL     1     -10.482  10.974  66.562  1.00  0.00    -0.309 C  
BRANCH   4   6
HETATM    6  C   UNL     1     -10.635   9.135  68.262  1.00  0.00    -0.223 C  
BRANCH   6   7
HETATM    7  C   UNL     1      -9.825   8.512  69.431  1.00  0.00    -0.185 C  
HETATM    8  C   UNL     1     -10.643   8.340  70.720  1.00  0.00    -0.236 C  
HETATM    9  C   UNL     1     -11.711   7.255  70.598  1.00  0.00    -0.310 C  
HETATM   10  C   UNL     1     -11.103   5.920  70.178  1.00  0.00    -0.395 C  
HETATM   11  C   UNL     1     -10.258   6.040  68.913  1.00  0.00    -0.246 C  
HETATM   12  C   UNL     1      -9.220   7.155  69.023  1.00  0.00    -0.135 C  
ENDBRANCH   6   7
ENDBRANCH   4   6
ENDBRANCH   2   4
TORSDOF 3
ENDMDL
MODEL      170
REMARK 921   NORMALIZED FREE ENERGY PREDICTED BY IDOCK:   -2.45 KCAL/MOL
REMARK 922        TOTAL FREE ENERGY PREDICTED BY IDOCK:   -2.94 KCAL/MOL
REMARK 923 INTER-LIGAND FREE ENERGY PREDICTED BY IDOCK:   -2.80 KCAL/MOL
REMARK 924 INTRA-LIGAND FREE ENERGY PREDICTED BY IDOCK:   -0.14 KCAL/MOL
REMARK 927      BINDING AFFINITY PREDICTED BY RF-SCORE:    0.00 PKD
ROOT
HETATM    1  C   UNL     1     -10.641   4.844  66.210  1.00  0.00    -0.255 C  
HETATM    2  N   UNL     1     -10.748   6.294  66.308  1.00  0.00    -0.468 NA 
HETATM    3  H   UNL     1     -11.600   6.624  65.855  1.00  0.00     0.000 HD 
ENDROOT
BRANCH   2   4
HETATM    4  C   UNL     1     -10.663   6.798  67.687  1.00  0.00    -0.288 C  
HETATM    5  C   UNL     1     -10.039   5.768  68.636  1.00  0.00    -0.227 C  
BRANCH   4   6
HETATM    6  C   UNL     1      -9.812   8.093  67.722  1.00  0.00    -0.209 C  
BRANCH   6   7
HETATM    7  C   UNL     1     -10.505   9.347  68.317  1.00  0.00    -0.260 C  
HETATM    8  C   UNL     1      -9.675  10.045  69.407  1.00  0.00    -0.240 C  
HETATM    9  C   UNL     1      -8.430  10.732  68.850  1.00  0.00    -0.149 C  
HETATM   10  C   UNL     1      -8.788  11.723  67.746  1.00  0.00    -0.163 C  
HETATM   11  C   UNL     1      -9.634  11.085  66.647  1.00  0.00    -0.216 C  
HETATM   12  C   UNL     1     -10.854  10.362  67.212  1.00  0.00    -0.324 C  
ENDBRANCH   6   7
ENDBRANCH   4   6
ENDBRANCH   2   4
TORSDOF 3
ENDMDL
MODEL      171
REMARK 921   NORMALIZED FREE ENERGY PREDICTED BY IDOCK:   -2.44 KCAL/MOL
REMARK 922        TOTAL FREE ENERGY PREDICTED BY IDOCK:   -2.93 KCAL/MOL
REMARK 923 INTER-LIGAND FREE ENERGY PREDICTED BY IDOCK:   -2.64 KCAL/MOL
REMARK 924 INTRA-LIGAND FREE ENERGY PREDICTED BY IDOCK:   -0.29 KCAL/MOL
REMARK 927      BINDING AFFINITY PREDICTED BY RF-SCORE:    0.00 PKD
ROOT
HETATM    1  C   UNL     1      -8.606  10.023  66.867  1.00  0.00    -0.125 C  
HETATM    2  N   UNL     1     -10.037   9.757  66.792  1.00  0.00    -0.218 NA 
HETATM    3  H   UNL     1     -10.309   9.515  65.839  1.00  0.00     0.000 HD 
ENDROOT
BRANCH   2   4
HETATM    4  C   UNL     1     -10.494   8.729  67.740  1.00  0.00    -0.229 C  
HETATM    5  C   UNL     1     -10.594   7.347  67.083  1.00  0.00    -0.413 C  
BRANCH   4   6
HETATM    6  C   UNL     1      -9.513   8.646  68.937  1.00  0.00    -0.146 C  
BRANCH   6   7
HETATM    7  C   UNL     1     -10.102   9.009  70.326  1.00  0.00    -0.232 C  
HETATM    8  C   UNL     1     -11.525   8.472  70.546  1.00  0.00    -0.198 C  
HETATM    9  C   UNL     1     -11.565   6.951  70.687  1.00  0.00    -0.402 C  
HETATM   10  C   UNL     1     -10.643   6.471  71.803  1.00  0.00    -0.245 C  
HETATM   11  C   UNL     1      -9.219   6.996  71.645  1.00  0.00    -0.144 C  
HETATM   12  C   UNL     1      -9.187   8.512  71.462  1.00  0.00    -0.288 C  
ENDBRANCH   6   7
ENDBRANCH   4   6
ENDBRANCH   2   4
TORSDOF 3
ENDMDL
MODEL      172
REMARK 921   NORMALIZED FREE ENERGY PREDICTED BY IDOCK:   -2.42 KCAL/MOL
REMARK 922        TOTAL FREE ENERGY PREDICTED BY IDOCK:   -2.91 KCAL/MOL
REMARK 923 INTER-LIGAND FREE ENERGY PREDICTED BY IDOCK:   -2.76 KCAL/MOL
REMARK 924 INTRA-LIGAND FREE ENERGY PREDICTED BY IDOCK:   -0.16 KCAL/MOL
REMARK 927      BINDING AFFINITY PREDICTED BY RF-SCORE:    0.00 PKD
ROOT
HETATM    1  C   UNL     1     -12.569  12.268  63.845  1.00  0.00    -0.440 C  
HETATM    2  N   UNL     1     -11.885  13.324  64.580  1.00  0.00    -0.360 NA 
HETATM    3  H   UNL     1     -12.557  13.982  64.976  1.00  0.00     0.000 HD 
ENDROOT
BRANCH   2   4
HETATM    4  C   UNL     1     -10.975  12.821  65.621  1.00  0.00    -0.273 C  
HETATM    5  C   UNL     1      -9.964  11.814  65.060  1.00  0.00    -0.287 C  
BRANCH   4   6
HETATM    6  C   UNL     1     -10.204  14.004  66.260  1.00  0.00    -0.300 C  
BRANCH   6   7
HETATM    7  C   UNL     1      -9.886  13.871  67.773  1.00  0.00    -0.237 C  
HETATM    8  C   UNL     1      -8.567  13.137  68.059  1.00  0.00    -0.182 C  
HETATM    9  C   UNL     1      -7.340  13.951  67.654  1.00  0.00    -0.186 C  
HETATM   10  C   UNL     1      -7.335  15.322  68.323  1.00  0.00    -0.113 C  
HETATM   11  C   UNL     1      -8.636  16.086  68.090  1.00  0.00    -0.171 C  
HETATM   12  C   UNL     1      -9.862  15.252  68.456  1.00  0.00    -0.210 C  
ENDBRANCH   6   7
ENDBRANCH   4   6
ENDBRANCH   2   4
TORSDOF 3
ENDMDL
MODEL      173
REMARK 921   NORMALIZED FREE ENERGY PREDICTED BY IDOCK:   -2.41 KCAL/MOL
REMARK 922        TOTAL FREE ENERGY PREDICTED BY IDOCK:   -2.89 KCAL/MOL
REMARK 923 INTER-LIGAND FREE ENERGY PREDICTED BY IDOCK:   -2.69 KCAL/MOL
REMARK 924 INTRA-LIGAND FREE ENERGY PREDICTED BY IDOCK:   -0.21 KCAL/MOL
REMARK 927      BINDING AFFINITY PREDICTED BY RF-SCORE:    0.00 PKD
ROOT
HETATM    1  C   UNL     1     -10.726  13.442  68.597  1.00  0.00    -0.255 C  
HETATM    2  N   UNL     1     -11.498  12.241  68.306  1.00  0.00    -0.291 NA 
HETATM    3  H   UNL     1     -12.434  12.309  68.707  1.00  0.00     0.000 HD 
ENDROOT
BRANCH   2   4
HETATM    4  C   UNL     1     -11.568  11.921  66.872  1.00  0.00    -0.285 C  
HETATM    5  C   UNL     1     -12.192  13.062  66.059  1.00  0.00    -0.463 C  
BRANCH   4   6
HETATM    6  C   UNL     1     -10.145  11.636  66.328  1.00  0.00    -0.254 C  
BRANCH   6   7
HETATM    7  C   UNL     1      -9.949  10.270  65.618  1.00  0.00    -0.347 C  
HETATM    8  C   UNL     1      -8.508  10.031  65.139  1.00  0.00    -0.160 C  
HETATM    9  C   UNL     1      -7.532   9.813  66.294  1.00  0.00    -0.100 C  
HETATM   10  C   UNL     1      -7.984   8.670  67.197  1.00  0.00    -0.100 C  
HETATM   11  C   UNL     1      -9.420   8.846  67.683  1.00  0.00    -0.164 C  
HETATM   12  C   UNL     1     -10.386   9.106  66.528  1.00  0.00    -0.269 C  
ENDBRANCH   6   7
ENDBRANCH   4   6
ENDBRANCH   2   4
TORSDOF 3
ENDMDL
MODEL      174
REMARK 921   NORMALIZED FREE ENERGY PREDICTED BY IDOCK:   -2.40 KCAL/MOL
REMARK 922        TOTAL FREE ENERGY PREDICTED BY IDOCK:   -2.88 KCAL/MOL
REMARK 923 INTER-LIGAND FREE ENERGY PREDICTED BY IDOCK:   -2.88 KCAL/MOL
REMARK 924 INTRA-LIGAND FREE ENERGY PREDICTED BY IDOCK:   -0.00 KCAL/MOL
REMARK 927      BINDING AFFINITY PREDICTED BY RF-SCORE:    0.00 PKD
ROOT
HETATM    1  C   UNL     1      -7.513   7.730  71.240  1.00  0.00    -0.078 C  
HETATM    2  N   UNL     1      -8.319   7.230  70.134  1.00  0.00    -0.135 NA 
HETATM    3  H   UNL     1      -8.211   6.221  70.036  1.00  0.00     0.000 HD 
ENDROOT
BRANCH   2   4
HETATM    4  C   UNL     1      -9.742   7.594  70.231  1.00  0.00    -0.179 C  
HETATM    5  C   UNL     1     -10.318   8.020  68.876  1.00  0.00    -0.222 C  
BRANCH   4   6
HETATM    6  C   UNL     1     -10.556   6.388  70.767  1.00  0.00    -0.288 C  
BRANCH   6   7
HETATM    7  C   UNL     1     -11.163   6.553  72.185  1.00  0.00    -0.308 C  
HETATM    8  C   UNL     1     -10.893   7.931  72.810  1.00  0.00    -0.451 C  
HETATM    9  C   UNL     1     -11.663   9.053  72.115  1.00  0.00    -0.366 C  
HETATM   10  C   UNL     1     -13.162   8.770  72.093  1.00  0.00    -0.456 C  
HETATM   11  C   UNL     1     -13.484   7.400  71.502  1.00  0.00    -0.445 C  
HETATM   12  C   UNL     1     -12.681   6.286  72.171  1.00  0.00     0.050 C  
ENDBRANCH   6   7
ENDBRANCH   4   6
ENDBRANCH   2   4
TORSDOF 3
ENDMDL
MODEL      175
REMARK 921   NORMALIZED FREE ENERGY PREDICTED BY IDOCK:   -2.39 KCAL/MOL
REMARK 922        TOTAL FREE ENERGY PREDICTED BY IDOCK:   -2.88 KCAL/MOL
REMARK 923 INTER-LIGAND FREE ENERGY PREDICTED BY IDOCK:   -2.60 KCAL/MOL
REMARK 924 INTRA-LIGAND FREE ENERGY PREDICTED BY IDOCK:   -0.28 KCAL/MOL
REMARK 927      BINDING AFFINITY PREDICTED BY RF-SCORE:    0.00 PKD
ROOT
HETATM    1  C   UNL     1     -10.412   5.761  67.951  1.00  0.00    -0.228 C  
HETATM    2  N   UNL     1     -11.163   6.464  68.983  1.00  0.00    -0.518 NA 
HETATM    3  H   UNL     1     -11.445   5.823  69.725  1.00  0.00     0.000 HD 
ENDROOT
BRANCH   2   4
HETATM    4  C   UNL     1     -10.451   7.624  69.541  1.00  0.00    -0.227 C  
HETATM    5  C   UNL     1      -8.990   7.295  69.872  1.00  0.00    -0.142 C  
BRANCH   4   6
HETATM    6  C   UNL     1     -10.484   8.797  68.528  1.00  0.00    -0.212 C  
BRANCH   6   7
HETATM    7  C   UNL     1      -9.106   9.279  68.000  1.00  0.00    -0.132 C  
HETATM    8  C   UNL     1      -8.826   8.861  66.548  1.00  0.00    -0.160 C  
HETATM    9  C   UNL     1      -9.710   9.597  65.543  1.00  0.00    -0.372 C  
HETATM   10  C   UNL     1      -9.579  11.110  65.689  1.00  0.00    -0.259 C  
HETATM   11  C   UNL     1      -9.825  11.577  67.121  1.00  0.00    -0.210 C  
HETATM   12  C   UNL     1      -8.971  10.809  68.127  1.00  0.00    -0.140 C  
ENDBRANCH   6   7
ENDBRANCH   4   6
ENDBRANCH   2   4
TORSDOF 3
ENDMDL
MODEL      176
REMARK 921   NORMALIZED FREE ENERGY PREDICTED BY IDOCK:   -2.38 KCAL/MOL
REMARK 922        TOTAL FREE ENERGY PREDICTED BY IDOCK:   -2.86 KCAL/MOL
REMARK 923 INTER-LIGAND FREE ENERGY PREDICTED BY IDOCK:   -2.60 KCAL/MOL
REMARK 924 INTRA-LIGAND FREE ENERGY PREDICTED BY IDOCK:   -0.26 KCAL/MOL
REMARK 927      BINDING AFFINITY PREDICTED BY RF-SCORE:    0.00 PKD
ROOT
HETATM    1  C   UNL     1      -6.448  14.783  69.162  1.00  0.00    -0.109 C  
HETATM    2  N   UNL     1      -7.751  14.133  69.098  1.00  0.00    -0.318 NA 
HETATM    3  H   UNL     1      -8.501  14.820  69.182  1.00  0.00     0.000 HD 
ENDROOT
BRANCH   2   4
HETATM    4  C   UNL     1      -7.936  13.304  67.897  1.00  0.00    -0.159 C  
HETATM    5  C   UNL     1      -6.608  12.737  67.383  1.00  0.00    -0.140 C  
BRANCH   4   6
HETATM    6  C   UNL     1      -8.896  12.129  68.214  1.00  0.00    -0.182 C  
BRANCH   6   7
HETATM    7  C   UNL     1     -10.157  12.020  67.315  1.00  0.00    -0.208 C  
HETATM    8  C   UNL     1      -9.839  12.022  65.812  1.00  0.00    -0.263 C  
HETATM    9  C   UNL     1      -9.140  10.743  65.356  1.00  0.00    -0.216 C  
HETATM   10  C   UNL     1      -9.952   9.504  65.720  1.00  0.00    -0.316 C  
HETATM   11  C   UNL     1     -10.316   9.464  67.202  1.00  0.00    -0.326 C  
HETATM   12  C   UNL     1     -10.976  10.762  67.663  1.00  0.00    -0.365 C  
ENDBRANCH   6   7
ENDBRANCH   4   6
ENDBRANCH   2   4
TORSDOF 3
ENDMDL
MODEL      177
REMARK 921   NORMALIZED FREE ENERGY PREDICTED BY IDOCK:   -2.37 KCAL/MOL
REMARK 922        TOTAL FREE ENERGY PREDICTED BY IDOCK:   -2.85 KCAL/MOL
REMARK 923 INTER-LIGAND FREE ENERGY PREDICTED BY IDOCK:   -2.60 KCAL/MOL
REMARK 924 INTRA-LIGAND FREE ENERGY PREDICTED BY IDOCK:   -0.24 KCAL/MOL
REMARK 927      BINDING AFFINITY PREDICTED BY RF-SCORE:    0.00 PKD
ROOT
HETATM    1  C   UNL     1      -7.414   4.137  69.808  1.00  0.00    -0.049 C  
HETATM    2  N   UNL     1      -8.816   4.309  69.452  1.00  0.00    -0.087 NA 
HETATM    3  H   UNL     1      -9.409   3.698  70.013  1.00  0.00     0.000 HD 
ENDROOT
BRANCH   2   4
HETATM    4  C   UNL     1      -9.277   5.704  69.537  1.00  0.00    -0.129 C  
HETATM    5  C   UNL     1      -9.226   6.408  68.176  1.00  0.00    -0.111 C  
BRANCH   4   6
HETATM    6  C   UNL     1     -10.732   5.743  70.070  1.00  0.00    -0.400 C  
BRANCH   6   7
HETATM    7  C   UNL     1     -10.900   6.128  71.564  1.00  0.00    -0.313 C  
HETATM    8  C   UNL     1      -9.917   7.214  72.030  1.00  0.00    -0.178 C  
HETATM    9  C   UNL     1     -10.219   8.582  71.422  1.00  0.00    -0.303 C  
HETATM   10  C   UNL     1     -11.654   9.014  71.706  1.00  0.00    -0.444 C  
HETATM   11  C   UNL     1     -12.672   7.958  71.283  1.00  0.00    -0.251 C  
HETATM   12  C   UNL     1     -12.342   6.582  71.859  1.00  0.00    -0.339 C  
ENDBRANCH   6   7
ENDBRANCH   4   6
ENDBRANCH   2   4
TORSDOF 3
ENDMDL
MODEL      178
REMARK 921   NORMALIZED FREE ENERGY PREDICTED BY IDOCK:   -2.36 KCAL/MOL
REMARK 922        TOTAL FREE ENERGY PREDICTED BY IDOCK:   -2.84 KCAL/MOL
REMARK 923 INTER-LIGAND FREE ENERGY PREDICTED BY IDOCK:   -2.70 KCAL/MOL
REMARK 924 INTRA-LIGAND FREE ENERGY PREDICTED BY IDOCK:   -0.15 KCAL/MOL
REMARK 927      BINDING AFFINITY PREDICTED BY RF-SCORE:    0.00 PKD
ROOT
HETATM    1  C   UNL     1      -6.306  16.104  67.472  1.00  0.00    -0.166 C  
HETATM    2  N   UNL     1      -7.646  15.553  67.634  1.00  0.00    -0.145 NA 
HETATM    3  H   UNL     1      -8.320  16.072  67.072  1.00  0.00     0.000 HD 
ENDROOT
BRANCH   2   4
HETATM    4  C   UNL     1      -7.727  14.112  67.345  1.00  0.00    -0.169 C  
HETATM    5  C   UNL     1      -6.388  13.404  67.585  1.00  0.00    -0.162 C  
BRANCH   4   6
HETATM    6  C   UNL     1      -8.809  13.458  68.240  1.00  0.00    -0.172 C  
BRANCH   6   7
HETATM    7  C   UNL     1      -9.764  12.459  67.534  1.00  0.00    -0.191 C  
HETATM    8  C   UNL     1     -11.121  12.307  68.239  1.00  0.00    -0.282 C  
HETATM    9  C   UNL     1     -11.991  13.557  68.117  1.00  0.00    -0.376 C  
HETATM   10  C   UNL     1     -12.197  13.953  66.658  1.00  0.00    -0.465 C  
HETATM   11  C   UNL     1     -10.877  14.094  65.904  1.00  0.00    -0.294 C  
HETATM   12  C   UNL     1      -9.993  12.859  66.064  1.00  0.00    -0.275 C  
ENDBRANCH   6   7
ENDBRANCH   4   6
ENDBRANCH   2   4
TORSDOF 3
ENDMDL
MODEL      179
REMARK 921   NORMALIZED FREE ENERGY PREDICTED BY IDOCK:   -2.36 KCAL/MOL
REMARK 922        TOTAL FREE ENERGY PREDICTED BY IDOCK:   -2.83 KCAL/MOL
REMARK 923 INTER-LIGAND FREE ENERGY PREDICTED BY IDOCK:   -2.68 KCAL/MOL
REMARK 924 INTRA-LIGAND FREE ENERGY PREDICTED BY IDOCK:   -0.16 KCAL/MOL
REMARK 927      BINDING AFFINITY PREDICTED BY RF-SCORE:    0.00 PKD
ROOT
HETATM    1  C   UNL     1      -8.975   8.164  67.334  1.00  0.00    -0.137 C  
HETATM    2  N   UNL     1      -9.724   7.831  68.539  1.00  0.00    -0.156 NA 
HETATM    3  H   UNL     1     -10.022   6.856  68.521  1.00  0.00     0.000 HD 
ENDROOT
BRANCH   2   4
HETATM    4  C   UNL     1      -8.997   8.130  69.784  1.00  0.00    -0.144 C  
HETATM    5  C   UNL     1      -9.585   9.345  70.512  1.00  0.00    -0.330 C  
BRANCH   4   6
HETATM    6  C   UNL     1      -9.050   6.903  70.729  1.00  0.00    -0.154 C  
BRANCH   6   7
HETATM    7  C   UNL     1     -10.107   5.821  70.382  1.00  0.00    -0.271 C  
HETATM    8  C   UNL     1      -9.751   4.424  70.915  1.00  0.00    -0.267 C  
HETATM    9  C   UNL     1      -9.845   4.333  72.437  1.00  0.00    -0.217 C  
HETATM   10  C   UNL     1     -11.224   4.752  72.936  1.00  0.00    -0.286 C  
HETATM   11  C   UNL     1     -11.637   6.126  72.415  1.00  0.00    -0.338 C  
HETATM   12  C   UNL     1     -11.501   6.226  70.897  1.00  0.00    -0.377 C  
ENDBRANCH   6   7
ENDBRANCH   4   6
ENDBRANCH   2   4
TORSDOF 3
ENDMDL
MODEL      180
REMARK 921   NORMALIZED FREE ENERGY PREDICTED BY IDOCK:   -2.35 KCAL/MOL
REMARK 922        TOTAL FREE ENERGY PREDICTED BY IDOCK:   -2.83 KCAL/MOL
REMARK 923 INTER-LIGAND FREE ENERGY PREDICTED BY IDOCK:   -2.65 KCAL/MOL
REMARK 924 INTRA-LIGAND FREE ENERGY PREDICTED BY IDOCK:   -0.18 KCAL/MOL
REMARK 927      BINDING AFFINITY PREDICTED BY RF-SCORE:    0.00 PKD
ROOT
HETATM    1  C   UNL     1      -9.472   4.107  63.079  1.00  0.00    -0.141 C  
HETATM    2  N   UNL     1      -9.583   4.963  64.253  1.00  0.00    -0.345 NA 
HETATM    3  H   UNL     1     -10.075   5.826  64.025  1.00  0.00     0.000 HD 
ENDROOT
BRANCH   2   4
HETATM    4  C   UNL     1     -10.207   4.299  65.408  1.00  0.00    -0.220 C  
HETATM    5  C   UNL     1      -9.282   3.245  66.032  1.00  0.00    -0.151 C  
BRANCH   4   6
HETATM    6  C   UNL     1     -10.568   5.352  66.487  1.00  0.00    -0.353 C  
BRANCH   6   7
HETATM    7  C   UNL     1      -9.525   5.552  67.619  1.00  0.00    -0.125 C  
HETATM    8  C   UNL     1      -9.021   6.998  67.738  1.00  0.00    -0.121 C  
HETATM    9  C   UNL     1     -10.091   7.953  68.262  1.00  0.00    -0.225 C  
HETATM   10  C   UNL     1     -10.653   7.480  69.599  1.00  0.00    -0.243 C  
HETATM   11  C   UNL     1     -11.148   6.037  69.542  1.00  0.00    -0.468 C  
HETATM   12  C   UNL     1     -10.089   5.093  68.977  1.00  0.00    -0.257 C  
ENDBRANCH   6   7
ENDBRANCH   4   6
ENDBRANCH   2   4
TORSDOF 3
ENDMDL
MODEL      181
REMARK 921   NORMALIZED FREE ENERGY PREDICTED BY IDOCK:   -2.35 KCAL/MOL
REMARK 922        TOTAL FREE ENERGY PREDICTED BY IDOCK:   -2.82 KCAL/MOL
REMARK 923 INTER-LIGAND FREE ENERGY PREDICTED BY IDOCK:   -2.66 KCAL/MOL
REMARK 924 INTRA-LIGAND FREE ENERGY PREDICTED BY IDOCK:   -0.17 KCAL/MOL
REMARK 927      BINDING AFFINITY PREDICTED BY RF-SCORE:    0.00 PKD
ROOT
HETATM    1  C   UNL     1      -6.181   9.556  70.908  1.00  0.00    -0.086 C  
HETATM    2  N   UNL     1      -7.305  10.379  70.478  1.00  0.00    -0.446 NA 
HETATM    3  H   UNL     1      -6.996  11.098  69.823  1.00  0.00     0.000 HD 
ENDROOT
BRANCH   2   4
HETATM    4  C   UNL     1      -8.419   9.603  69.911  1.00  0.00    -0.198 C  
HETATM    5  C   UNL     1      -9.415   9.158  70.989  1.00  0.00    -0.344 C  
BRANCH   4   6
HETATM    6  C   UNL     1      -9.168  10.455  68.855  1.00  0.00    -0.179 C  
BRANCH   6   7
HETATM    7  C   UNL     1      -8.389  10.757  67.547  1.00  0.00    -0.115 C  
HETATM    8  C   UNL     1      -8.346   9.571  66.572  1.00  0.00    -0.119 C  
HETATM    9  C   UNL     1      -9.708   9.275  65.946  1.00  0.00    -0.355 C  
HETATM   10  C   UNL     1     -10.282  10.507  65.252  1.00  0.00    -0.352 C  
HETATM   11  C   UNL     1     -10.324  11.723  66.173  1.00  0.00    -0.266 C  
HETATM   12  C   UNL     1      -8.971  11.990  66.830  1.00  0.00    -0.198 C  
ENDBRANCH   6   7
ENDBRANCH   4   6
ENDBRANCH   2   4
TORSDOF 3
ENDMDL
MODEL      182
REMARK 921   NORMALIZED FREE ENERGY PREDICTED BY IDOCK:   -2.34 KCAL/MOL
REMARK 922        TOTAL FREE ENERGY PREDICTED BY IDOCK:   -2.81 KCAL/MOL
REMARK 923 INTER-LIGAND FREE ENERGY PREDICTED BY IDOCK:   -2.70 KCAL/MOL
REMARK 924 INTRA-LIGAND FREE ENERGY PREDICTED BY IDOCK:   -0.12 KCAL/MOL
REMARK 927      BINDING AFFINITY PREDICTED BY RF-SCORE:    0.00 PKD
ROOT
HETATM    1  C   UNL     1      -6.598   9.146  71.326  1.00  0.00    -0.080 C  
HETATM    2  N   UNL     1      -7.652  10.006  70.804  1.00  0.00    -0.386 NA 
HETATM    3  H   UNL     1      -7.339  10.490  69.962  1.00  0.00     0.000 HD 
ENDROOT
BRANCH   2   4
HETATM    4  C   UNL     1      -8.919   9.300  70.558  1.00  0.00    -0.250 C  
HETATM    5  C   UNL     1      -9.570   8.820  71.861  1.00  0.00    -0.372 C  
BRANCH   4   6
HETATM    6  C   UNL     1      -9.907  10.237  69.818  1.00  0.00    -0.201 C  
BRANCH   6   7
HETATM    7  C   UNL     1      -9.693  10.379  68.287  1.00  0.00    -0.162 C  
HETATM    8  C   UNL     1     -10.999  10.323  67.479  1.00  0.00    -0.344 C  
HETATM    9  C   UNL     1     -11.874  11.557  67.688  1.00  0.00    -0.194 C  
HETATM   10  C   UNL     1     -11.113  12.840  67.370  1.00  0.00    -0.312 C  
HETATM   11  C   UNL     1      -9.793  12.935  68.130  1.00  0.00    -0.227 C  
HETATM   12  C   UNL     1      -8.940  11.681  67.953  1.00  0.00    -0.170 C  
ENDBRANCH   6   7
ENDBRANCH   4   6
ENDBRANCH   2   4
TORSDOF 3
ENDMDL
MODEL      183
REMARK 921   NORMALIZED FREE ENERGY PREDICTED BY IDOCK:   -2.33 KCAL/MOL
REMARK 922        TOTAL FREE ENERGY PREDICTED BY IDOCK:   -2.81 KCAL/MOL
REMARK 923 INTER-LIGAND FREE ENERGY PREDICTED BY IDOCK:   -2.56 KCAL/MOL
REMARK 924 INTRA-LIGAND FREE ENERGY PREDICTED BY IDOCK:   -0.25 KCAL/MOL
REMARK 927      BINDING AFFINITY PREDICTED BY RF-SCORE:    0.00 PKD
ROOT
HETATM    1  C   UNL     1     -12.197   8.516  72.255  1.00  0.00    -0.389 C  
HETATM    2  N   UNL     1     -11.620   8.288  70.936  1.00  0.00    -0.291 NA 
HETATM    3  H   UNL     1     -12.008   8.941  70.255  1.00  0.00     0.000 HD 
ENDROOT
BRANCH   2   4
HETATM    4  C   UNL     1     -10.150   8.333  70.922  1.00  0.00    -0.190 C  
HETATM    5  C   UNL     1      -9.536   7.329  71.905  1.00  0.00    -0.164 C  
BRANCH   4   6
HETATM    6  C   UNL     1      -9.630   8.022  69.495  1.00  0.00    -0.164 C  
BRANCH   6   7
HETATM    7  C   UNL     1     -10.616   7.274  68.559  1.00  0.00    -0.207 C  
HETATM    8  C   UNL     1     -10.642   7.830  67.127  1.00  0.00    -0.401 C  
HETATM    9  C   UNL     1      -9.354   7.537  66.359  1.00  0.00    -0.211 C  
HETATM   10  C   UNL     1      -9.045   6.043  66.338  1.00  0.00    -0.159 C  
HETATM   11  C   UNL     1      -9.031   5.435  67.738  1.00  0.00    -0.108 C  
HETATM   12  C   UNL     1     -10.301   5.766  68.518  1.00  0.00    -0.274 C  
ENDBRANCH   6   7
ENDBRANCH   4   6
ENDBRANCH   2   4
TORSDOF 3
ENDMDL
MODEL      184
REMARK 921   NORMALIZED FREE ENERGY PREDICTED BY IDOCK:   -2.33 KCAL/MOL
REMARK 922        TOTAL FREE ENERGY PREDICTED BY IDOCK:   -2.81 KCAL/MOL
REMARK 923 INTER-LIGAND FREE ENERGY PREDICTED BY IDOCK:   -2.60 KCAL/MOL
REMARK 924 INTRA-LIGAND FREE ENERGY PREDICTED BY IDOCK:   -0.21 KCAL/MOL
REMARK 927      BINDING AFFINITY PREDICTED BY RF-SCORE:    0.00 PKD
ROOT
HETATM    1  C   UNL     1     -12.388   7.122  71.126  1.00  0.00    -0.364 C  
HETATM    2  N   UNL     1     -12.007   6.785  69.760  1.00  0.00    -0.647 NA 
HETATM    3  H   UNL     1     -12.060   7.606  69.158  1.00  0.00     0.000 HD 
ENDROOT
BRANCH   2   4
HETATM    4  C   UNL     1     -10.684   6.149  69.659  1.00  0.00    -0.319 C  
HETATM    5  C   UNL     1     -10.355   5.312  70.901  1.00  0.00    -0.303 C  
BRANCH   4   6
HETATM    6  C   UNL     1     -10.637   5.233  68.409  1.00  0.00    -0.077 C  
BRANCH   6   7
HETATM    7  C   UNL     1      -9.246   4.648  68.046  1.00  0.00    -0.158 C  
HETATM    8  C   UNL     1      -9.249   3.821  66.751  1.00  0.00    -0.193 C  
HETATM    9  C   UNL     1      -9.451   4.681  65.504  1.00  0.00    -0.178 C  
HETATM   10  C   UNL     1      -8.409   5.791  65.418  1.00  0.00    -0.142 C  
HETATM   11  C   UNL     1      -8.348   6.630  66.691  1.00  0.00    -0.117 C  
HETATM   12  C   UNL     1      -8.189   5.764  67.939  1.00  0.00    -0.101 C  
ENDBRANCH   6   7
ENDBRANCH   4   6
ENDBRANCH   2   4
TORSDOF 3
ENDMDL
MODEL      185
REMARK 921   NORMALIZED FREE ENERGY PREDICTED BY IDOCK:   -2.32 KCAL/MOL
REMARK 922        TOTAL FREE ENERGY PREDICTED BY IDOCK:   -2.80 KCAL/MOL
REMARK 923 INTER-LIGAND FREE ENERGY PREDICTED BY IDOCK:   -3.04 KCAL/MOL
REMARK 924 INTRA-LIGAND FREE ENERGY PREDICTED BY IDOCK:    0.25 KCAL/MOL
REMARK 927      BINDING AFFINITY PREDICTED BY RF-SCORE:    0.00 PKD
ROOT
HETATM    1  C   UNL     1     -10.259  19.912  68.489  1.00  0.00    -0.409 C  
HETATM    2  N   UNL     1     -10.086  18.586  69.070  1.00  0.00    -0.442 NA 
HETATM    3  H   UNL     1     -10.910  18.318  69.607  1.00  0.00     0.000 HD 
ENDROOT
BRANCH   2   4
HETATM    4  C   UNL     1      -9.750  17.550  68.081  1.00  0.00    -0.302 C  
HETATM    5  C   UNL     1     -10.955  16.663  67.749  1.00  0.00    -0.234 C  
BRANCH   4   6
HETATM    6  C   UNL     1      -9.240  18.216  66.777  1.00  0.00    -0.281 C  
BRANCH   6   7
HETATM    7  C   UNL     1      -7.798  17.843  66.341  1.00  0.00    -0.307 C  
HETATM    8  C   UNL     1      -6.784  18.978  66.550  1.00  0.00    -0.211 C  
HETATM    9  C   UNL     1      -6.498  19.248  68.026  1.00  0.00    -0.249 C  
HETATM   10  C   UNL     1      -6.030  17.985  68.743  1.00  0.00    -0.197 C  
HETATM   11  C   UNL     1      -6.993  16.817  68.548  1.00  0.00    -0.168 C  
HETATM   12  C   UNL     1      -7.310  16.578  67.073  1.00  0.00    -0.245 C  
ENDBRANCH   6   7
ENDBRANCH   4   6
ENDBRANCH   2   4
TORSDOF 3
ENDMDL
MODEL      186
REMARK 921   NORMALIZED FREE ENERGY PREDICTED BY IDOCK:   -2.31 KCAL/MOL
REMARK 922        TOTAL FREE ENERGY PREDICTED BY IDOCK:   -2.78 KCAL/MOL
REMARK 923 INTER-LIGAND FREE ENERGY PREDICTED BY IDOCK:   -2.58 KCAL/MOL
REMARK 924 INTRA-LIGAND FREE ENERGY PREDICTED BY IDOCK:   -0.20 KCAL/MOL
REMARK 927      BINDING AFFINITY PREDICTED BY RF-SCORE:    0.00 PKD
ROOT
HETATM    1  C   UNL     1      -6.184   8.395  71.992  1.00  0.00    -0.064 C  
HETATM    2  N   UNL     1      -7.554   8.883  72.084  1.00  0.00    -0.346 NA 
HETATM    3  H   UNL     1      -7.840   9.322  71.209  1.00  0.00     0.000 HD 
ENDROOT
BRANCH   2   4
HETATM    4  C   UNL     1      -8.520   7.849  72.487  1.00  0.00    -0.145 C  
HETATM    5  C   UNL     1      -8.001   7.006  73.658  1.00  0.00    -0.121 C  
BRANCH   4   6
HETATM    6  C   UNL     1      -9.858   8.514  72.900  1.00  0.00    -0.125 C  
BRANCH   6   7
HETATM    7  C   UNL     1     -11.140   7.916  72.262  1.00  0.00    -0.376 C  
HETATM    8  C   UNL     1     -12.379   8.811  72.427  1.00  0.00    -0.414 C  
HETATM    9  C   UNL     1     -12.299  10.087  71.590  1.00  0.00    -0.486 C  
HETATM   10  C   UNL     1     -12.068   9.772  70.115  1.00  0.00    -0.018 C  
HETATM   11  C   UNL     1     -10.860   8.865  69.898  1.00  0.00    -0.219 C  
HETATM   12  C   UNL     1     -10.924   7.611  70.768  1.00  0.00    -0.262 C  
ENDBRANCH   6   7
ENDBRANCH   4   6
ENDBRANCH   2   4
TORSDOF 3
ENDMDL
MODEL      187
REMARK 921   NORMALIZED FREE ENERGY PREDICTED BY IDOCK:   -2.30 KCAL/MOL
REMARK 922        TOTAL FREE ENERGY PREDICTED BY IDOCK:   -2.76 KCAL/MOL
REMARK 923 INTER-LIGAND FREE ENERGY PREDICTED BY IDOCK:   -2.52 KCAL/MOL
REMARK 924 INTRA-LIGAND FREE ENERGY PREDICTED BY IDOCK:   -0.24 KCAL/MOL
REMARK 927      BINDING AFFINITY PREDICTED BY RF-SCORE:    0.00 PKD
ROOT
HETATM    1  C   UNL     1      -8.454   6.010  65.958  1.00  0.00    -0.139 C  
HETATM    2  N   UNL     1      -8.960   7.067  66.826  1.00  0.00    -0.127 NA 
HETATM    3  H   UNL     1      -9.812   7.472  66.440  1.00  0.00     0.000 HD 
ENDROOT
BRANCH   2   4
HETATM    4  C   UNL     1      -9.172   6.634  68.216  1.00  0.00    -0.121 C  
HETATM    5  C   UNL     1      -7.856   6.565  69.001  1.00  0.00    -0.110 C  
BRANCH   4   6
HETATM    6  C   UNL     1     -10.132   7.619  68.931  1.00  0.00    -0.202 C  
BRANCH   6   7
HETATM    7  C   UNL     1      -9.474   8.605  69.933  1.00  0.00    -0.168 C  
HETATM    8  C   UNL     1      -9.472  10.062  69.445  1.00  0.00    -0.237 C  
HETATM    9  C   UNL     1     -10.870  10.678  69.427  1.00  0.00    -0.289 C  
HETATM   10  C   UNL     1     -11.540  10.580  70.794  1.00  0.00    -0.432 C  
HETATM   11  C   UNL     1     -11.547   9.153  71.336  1.00  0.00    -0.411 C  
HETATM   12  C   UNL     1     -10.154   8.527  71.312  1.00  0.00    -0.286 C  
ENDBRANCH   6   7
ENDBRANCH   4   6
ENDBRANCH   2   4
TORSDOF 3
ENDMDL
MODEL      188
REMARK 921   NORMALIZED FREE ENERGY PREDICTED BY IDOCK:   -2.26 KCAL/MOL
REMARK 922        TOTAL FREE ENERGY PREDICTED BY IDOCK:   -2.72 KCAL/MOL
REMARK 923 INTER-LIGAND FREE ENERGY PREDICTED BY IDOCK:   -2.56 KCAL/MOL
REMARK 924 INTRA-LIGAND FREE ENERGY PREDICTED BY IDOCK:   -0.16 KCAL/MOL
REMARK 927      BINDING AFFINITY PREDICTED BY RF-SCORE:    0.00 PKD
ROOT
HETATM    1  C   UNL     1      -9.478   8.869  70.303  1.00  0.00    -0.187 C  
HETATM    2  N   UNL     1     -10.298  10.052  70.531  1.00  0.00    -0.394 NA 
HETATM    3  H   UNL     1      -9.846  10.683  71.193  1.00  0.00     0.000 HD 
ENDROOT
BRANCH   2   4
HETATM    4  C   UNL     1     -10.658  10.765  69.295  1.00  0.00    -0.229 C  
HETATM    5  C   UNL     1     -11.503  12.013  69.579  1.00  0.00    -0.351 C  
BRANCH   4   6
HETATM    6  C   UNL     1      -9.371  11.189  68.542  1.00  0.00    -0.190 C  
BRANCH   6   7
HETATM    7  C   UNL     1      -9.511  11.372  67.007  1.00  0.00    -0.186 C  
HETATM    8  C   UNL     1      -8.191  11.176  66.245  1.00  0.00    -0.153 C  
HETATM    9  C   UNL     1      -7.721   9.722  66.245  1.00  0.00    -0.103 C  
HETATM   10  C   UNL     1      -8.794   8.790  65.690  1.00  0.00    -0.239 C  
HETATM   11  C   UNL     1     -10.135   8.962  66.398  1.00  0.00    -0.333 C  
HETATM   12  C   UNL     1     -10.579  10.423  66.432  1.00  0.00    -0.198 C  
ENDBRANCH   6   7
ENDBRANCH   4   6
ENDBRANCH   2   4
TORSDOF 3
ENDMDL
MODEL      189
REMARK 921   NORMALIZED FREE ENERGY PREDICTED BY IDOCK:   -2.26 KCAL/MOL
REMARK 922        TOTAL FREE ENERGY PREDICTED BY IDOCK:   -2.72 KCAL/MOL
REMARK 923 INTER-LIGAND FREE ENERGY PREDICTED BY IDOCK:   -2.44 KCAL/MOL
REMARK 924 INTRA-LIGAND FREE ENERGY PREDICTED BY IDOCK:   -0.28 KCAL/MOL
REMARK 927      BINDING AFFINITY PREDICTED BY RF-SCORE:    0.00 PKD
ROOT
HETATM    1  C   UNL     1      -8.667  10.051  66.835  1.00  0.00    -0.128 C  
HETATM    2  N   UNL     1     -10.049   9.885  66.404  1.00  0.00    -0.240 NA 
HETATM    3  H   UNL     1     -10.089   9.558  65.438  1.00  0.00     0.000 HD 
ENDROOT
BRANCH   2   4
HETATM    4  C   UNL     1     -10.837   9.007  67.283  1.00  0.00    -0.030 C  
HETATM    5  C   UNL     1     -10.710   7.532  66.883  1.00  0.00    -0.299 C  
BRANCH   4   6
HETATM    6  C   UNL     1     -10.364   9.173  68.750  1.00  0.00    -0.235 C  
BRANCH   6   7
HETATM    7  C   UNL     1     -10.033   7.861  69.510  1.00  0.00    -0.189 C  
HETATM    8  C   UNL     1      -8.558   7.752  69.927  1.00  0.00    -0.137 C  
HETATM    9  C   UNL     1      -8.184   8.739  71.032  1.00  0.00    -0.194 C  
HETATM   10  C   UNL     1      -9.090   8.582  72.250  1.00  0.00    -0.318 C  
HETATM   11  C   UNL     1     -10.570   8.659  71.886  1.00  0.00    -0.411 C  
HETATM   12  C   UNL     1     -10.930   7.701  70.752  1.00  0.00    -0.262 C  
ENDBRANCH   6   7
ENDBRANCH   4   6
ENDBRANCH   2   4
TORSDOF 3
ENDMDL
MODEL      190
REMARK 921   NORMALIZED FREE ENERGY PREDICTED BY IDOCK:   -2.24 KCAL/MOL
REMARK 922        TOTAL FREE ENERGY PREDICTED BY IDOCK:   -2.70 KCAL/MOL
REMARK 923 INTER-LIGAND FREE ENERGY PREDICTED BY IDOCK:   -2.42 KCAL/MOL
REMARK 924 INTRA-LIGAND FREE ENERGY PREDICTED BY IDOCK:   -0.28 KCAL/MOL
REMARK 927      BINDING AFFINITY PREDICTED BY RF-SCORE:    0.00 PKD
ROOT
HETATM    1  C   UNL     1     -12.034  10.281  70.755  1.00  0.00    -0.360 C  
HETATM    2  N   UNL     1     -12.333   9.420  71.892  1.00  0.00    -0.375 NA 
HETATM    3  H   UNL     1     -13.289   9.067  71.835  1.00  0.00     0.000 HD 
ENDROOT
BRANCH   2   4
HETATM    4  C   UNL     1     -11.379   8.312  72.057  1.00  0.00    -0.325 C  
HETATM    5  C   UNL     1     -12.078   6.947  72.040  1.00  0.00    -0.331 C  
BRANCH   4   6
HETATM    6  C   UNL     1     -10.326   8.353  70.921  1.00  0.00    -0.234 C  
BRANCH   6   7
HETATM    7  C   UNL     1      -8.842   8.409  71.370  1.00  0.00    -0.230 C  
HETATM    8  C   UNL     1      -8.441   7.258  72.306  1.00  0.00    -0.129 C  
HETATM    9  C   UNL     1      -8.397   5.908  71.592  1.00  0.00    -0.127 C  
HETATM   10  C   UNL     1      -7.471   5.948  70.380  1.00  0.00    -0.089 C  
HETATM   11  C   UNL     1      -7.812   7.091  69.428  1.00  0.00    -0.113 C  
HETATM   12  C   UNL     1      -7.897   8.433  70.153  1.00  0.00    -0.102 C  
ENDBRANCH   6   7
ENDBRANCH   4   6
ENDBRANCH   2   4
TORSDOF 3
ENDMDL
MODEL      191
REMARK 921   NORMALIZED FREE ENERGY PREDICTED BY IDOCK:   -2.18 KCAL/MOL
REMARK 922        TOTAL FREE ENERGY PREDICTED BY IDOCK:   -2.62 KCAL/MOL
REMARK 923 INTER-LIGAND FREE ENERGY PREDICTED BY IDOCK:   -2.44 KCAL/MOL
REMARK 924 INTRA-LIGAND FREE ENERGY PREDICTED BY IDOCK:   -0.18 KCAL/MOL
REMARK 927      BINDING AFFINITY PREDICTED BY RF-SCORE:    0.00 PKD
ROOT
HETATM    1  C   UNL     1     -11.457  10.738  68.785  1.00  0.00    -0.295 C  
HETATM    2  N   UNL     1     -10.663  10.435  67.601  1.00  0.00    -0.264 NA 
HETATM    3  H   UNL     1      -9.755  10.898  67.648  1.00  0.00     0.000 HD 
ENDROOT
BRANCH   2   4
HETATM    4  C   UNL     1     -10.500   8.994  67.356  1.00  0.00    -0.269 C  
HETATM    5  C   UNL     1      -9.343   8.703  66.393  1.00  0.00    -0.271 C  
BRANCH   4   6
HETATM    6  C   UNL     1     -10.234   8.261  68.696  1.00  0.00    -0.223 C  
BRANCH   6   7
HETATM    7  C   UNL     1      -8.813   8.431  69.295  1.00  0.00    -0.142 C  
HETATM    8  C   UNL     1      -8.800   9.182  70.636  1.00  0.00    -0.278 C  
HETATM    9  C   UNL     1      -9.413   8.367  71.772  1.00  0.00    -0.302 C  
HETATM   10  C   UNL     1      -8.728   7.012  71.920  1.00  0.00    -0.127 C  
HETATM   11  C   UNL     1      -8.693   6.234  70.608  1.00  0.00    -0.140 C  
HETATM   12  C   UNL     1      -8.118   7.067  69.465  1.00  0.00    -0.130 C  
ENDBRANCH   6   7
ENDBRANCH   4   6
ENDBRANCH   2   4
TORSDOF 3
ENDMDL
MODEL      192
REMARK 921   NORMALIZED FREE ENERGY PREDICTED BY IDOCK:   -2.17 KCAL/MOL
REMARK 922        TOTAL FREE ENERGY PREDICTED BY IDOCK:   -2.61 KCAL/MOL
REMARK 923 INTER-LIGAND FREE ENERGY PREDICTED BY IDOCK:   -2.43 KCAL/MOL
REMARK 924 INTRA-LIGAND FREE ENERGY PREDICTED BY IDOCK:   -0.18 KCAL/MOL
REMARK 927      BINDING AFFINITY PREDICTED BY RF-SCORE:    0.00 PKD
ROOT
HETATM    1  C   UNL     1     -10.978  13.740  68.628  1.00  0.00    -0.266 C  
HETATM    2  N   UNL     1     -10.616  12.380  69.007  1.00  0.00    -0.410 NA 
HETATM    3  H   UNL     1     -11.442  11.782  69.035  1.00  0.00     0.000 HD 
ENDROOT
BRANCH   2   4
HETATM    4  C   UNL     1      -9.574  11.789  68.153  1.00  0.00    -0.193 C  
HETATM    5  C   UNL     1      -8.275  12.604  68.188  1.00  0.00    -0.170 C  
BRANCH   4   6
HETATM    6  C   UNL     1      -9.272  10.342  68.618  1.00  0.00    -0.159 C  
BRANCH   6   7
HETATM    7  C   UNL     1      -8.587   9.420  67.574  1.00  0.00    -0.122 C  
HETATM    8  C   UNL     1      -8.000   8.137  68.183  1.00  0.00    -0.127 C  
HETATM    9  C   UNL     1      -9.078   7.162  68.654  1.00  0.00    -0.133 C  
HETATM   10  C   UNL     1     -10.046   6.816  67.527  1.00  0.00    -0.215 C  
HETATM   11  C   UNL     1     -10.641   8.058  66.871  1.00  0.00    -0.324 C  
HETATM   12  C   UNL     1      -9.562   9.050  66.440  1.00  0.00    -0.309 C  
ENDBRANCH   6   7
ENDBRANCH   4   6
ENDBRANCH   2   4
TORSDOF 3
ENDMDL
MODEL      193
REMARK 921   NORMALIZED FREE ENERGY PREDICTED BY IDOCK:   -2.16 KCAL/MOL
REMARK 922        TOTAL FREE ENERGY PREDICTED BY IDOCK:   -2.61 KCAL/MOL
REMARK 923 INTER-LIGAND FREE ENERGY PREDICTED BY IDOCK:   -2.74 KCAL/MOL
REMARK 924 INTRA-LIGAND FREE ENERGY PREDICTED BY IDOCK:    0.13 KCAL/MOL
REMARK 927      BINDING AFFINITY PREDICTED BY RF-SCORE:    0.00 PKD
ROOT
HETATM    1  C   UNL     1     -10.737  11.150  65.590  1.00  0.00    -0.185 C  
HETATM    2  N   UNL     1     -11.902  11.675  66.291  1.00  0.00    -0.368 NA 
HETATM    3  H   UNL     1     -12.692  11.036  66.207  1.00  0.00     0.000 HD 
ENDROOT
BRANCH   2   4
HETATM    4  C   UNL     1     -11.642  11.998  67.703  1.00  0.00    -0.321 C  
HETATM    5  C   UNL     1     -11.821  10.776  68.613  1.00  0.00    -0.208 C  
BRANCH   4   6
HETATM    6  C   UNL     1     -10.197  12.534  67.861  1.00  0.00    -0.219 C  
BRANCH   6   7
HETATM    7  C   UNL     1     -10.063  14.052  68.158  1.00  0.00    -0.244 C  
HETATM    8  C   UNL     1      -8.951  14.738  67.349  1.00  0.00    -0.200 C  
HETATM    9  C   UNL     1      -9.284  14.841  65.861  1.00  0.00    -0.076 C  
HETATM   10  C   UNL     1     -10.615  15.551  65.636  1.00  0.00    -0.389 C  
HETATM   11  C   UNL     1     -11.751  14.922  66.438  1.00  0.00    -0.193 C  
HETATM   12  C   UNL     1     -11.397  14.782  67.917  1.00  0.00    -0.331 C  
ENDBRANCH   6   7
ENDBRANCH   4   6
ENDBRANCH   2   4
TORSDOF 3
ENDMDL
MODEL      194
REMARK 921   NORMALIZED FREE ENERGY PREDICTED BY IDOCK:   -2.15 KCAL/MOL
REMARK 922        TOTAL FREE ENERGY PREDICTED BY IDOCK:   -2.59 KCAL/MOL
REMARK 923 INTER-LIGAND FREE ENERGY PREDICTED BY IDOCK:   -2.31 KCAL/MOL
REMARK 924 INTRA-LIGAND FREE ENERGY PREDICTED BY IDOCK:   -0.28 KCAL/MOL
REMARK 927      BINDING AFFINITY PREDICTED BY RF-SCORE:    0.00 PKD
ROOT
HETATM    1  C   UNL     1      -6.854   8.477  71.794  1.00  0.00    -0.086 C  
HETATM    2  N   UNL     1      -6.822   9.395  70.662  1.00  0.00    -0.093 NA 
HETATM    3  H   UNL     1      -5.861   9.648  70.430  1.00  0.00     0.000 HD 
ENDROOT
BRANCH   2   4
HETATM    4  C   UNL     1      -7.527   8.889  69.474  1.00  0.00    -0.075 C  
HETATM    5  C   UNL     1      -6.558   8.316  68.433  1.00  0.00    -0.060 C  
BRANCH   4   6
HETATM    6  C   UNL     1      -8.529   7.781  69.892  1.00  0.00    -0.132 C  
BRANCH   6   7
HETATM    7  C   UNL     1     -10.033   8.132  69.741  1.00  0.00    -0.191 C  
HETATM    8  C   UNL     1     -10.341   8.984  68.500  1.00  0.00    -0.233 C  
HETATM    9  C   UNL     1     -10.171   8.207  67.195  1.00  0.00    -0.366 C  
HETATM   10  C   UNL     1     -11.019   6.939  67.188  1.00  0.00    -0.427 C  
HETATM   11  C   UNL     1     -10.768   6.066  68.414  1.00  0.00    -0.351 C  
HETATM   12  C   UNL     1     -10.897   6.857  69.714  1.00  0.00    -0.295 C  
ENDBRANCH   6   7
ENDBRANCH   4   6
ENDBRANCH   2   4
TORSDOF 3
ENDMDL
MODEL      195
REMARK 921   NORMALIZED FREE ENERGY PREDICTED BY IDOCK:   -2.14 KCAL/MOL
REMARK 922        TOTAL FREE ENERGY PREDICTED BY IDOCK:   -2.58 KCAL/MOL
REMARK 923 INTER-LIGAND FREE ENERGY PREDICTED BY IDOCK:   -2.90 KCAL/MOL
REMARK 924 INTRA-LIGAND FREE ENERGY PREDICTED BY IDOCK:    0.32 KCAL/MOL
REMARK 927      BINDING AFFINITY PREDICTED BY RF-SCORE:    0.00 PKD
ROOT
HETATM    1  C   UNL     1     -11.672  12.637  65.786  1.00  0.00    -0.419 C  
HETATM    2  N   UNL     1     -11.688  14.091  65.683  1.00  0.00    -0.342 NA 
HETATM    3  H   UNL     1     -12.331  14.394  64.951  1.00  0.00     0.000 HD 
ENDROOT
BRANCH   2   4
HETATM    4  C   UNL     1     -11.991  14.767  66.954  1.00  0.00    -0.192 C  
HETATM    5  C   UNL     1     -12.027  13.784  68.131  1.00  0.00    -0.394 C  
BRANCH   4   6
HETATM    6  C   UNL     1     -10.922  15.853  67.239  1.00  0.00    -0.234 C  
BRANCH   6   7
HETATM    7  C   UNL     1     -10.505  16.024  68.723  1.00  0.00    -0.248 C  
HETATM    8  C   UNL     1      -9.498  14.966  69.201  1.00  0.00    -0.158 C  
HETATM    9  C   UNL     1      -8.118  15.139  68.570  1.00  0.00    -0.145 C  
HETATM   10  C   UNL     1      -7.565  16.540  68.814  1.00  0.00    -0.219 C  
HETATM   11  C   UNL     1      -8.539  17.631  68.377  1.00  0.00    -0.284 C  
HETATM   12  C   UNL     1      -9.929  17.430  68.977  1.00  0.00    -0.265 C  
ENDBRANCH   6   7
ENDBRANCH   4   6
ENDBRANCH   2   4
TORSDOF 3
ENDMDL
MODEL      196
REMARK 921   NORMALIZED FREE ENERGY PREDICTED BY IDOCK:   -2.13 KCAL/MOL
REMARK 922        TOTAL FREE ENERGY PREDICTED BY IDOCK:   -2.57 KCAL/MOL
REMARK 923 INTER-LIGAND FREE ENERGY PREDICTED BY IDOCK:   -2.41 KCAL/MOL
REMARK 924 INTRA-LIGAND FREE ENERGY PREDICTED BY IDOCK:   -0.16 KCAL/MOL
REMARK 927      BINDING AFFINITY PREDICTED BY RF-SCORE:    0.00 PKD
ROOT
HETATM    1  C   UNL     1     -10.195   8.039  66.738  1.00  0.00    -0.297 C  
HETATM    2  N   UNL     1     -11.022   8.547  67.825  1.00  0.00    -0.486 NA 
HETATM    3  H   UNL     1     -11.068   7.872  68.589  1.00  0.00     0.000 HD 
ENDROOT
BRANCH   2   4
HETATM    4  C   UNL     1     -10.599   9.866  68.320  1.00  0.00    -0.229 C  
HETATM    5  C   UNL     1     -10.703   9.965  69.847  1.00  0.00    -0.318 C  
BRANCH   4   6
HETATM    6  C   UNL     1      -9.133  10.139  67.897  1.00  0.00    -0.133 C  
BRANCH   6   7
HETATM    7  C   UNL     1      -8.860  11.516  67.236  1.00  0.00    -0.160 C  
HETATM    8  C   UNL     1      -7.844  11.452  66.085  1.00  0.00     0.048 C  
HETATM    9  C   UNL     1      -8.392  10.730  64.856  1.00  0.00    -0.018 C  
HETATM   10  C   UNL     1      -9.695  11.361  64.374  1.00  0.00    -0.266 C  
HETATM   11  C   UNL     1     -10.733  11.470  65.487  1.00  0.00    -0.328 C  
HETATM   12  C   UNL     1     -10.168  12.154  66.730  1.00  0.00    -0.224 C  
ENDBRANCH   6   7
ENDBRANCH   4   6
ENDBRANCH   2   4
TORSDOF 3
ENDMDL
MODEL      197
REMARK 921   NORMALIZED FREE ENERGY PREDICTED BY IDOCK:   -2.12 KCAL/MOL
REMARK 922        TOTAL FREE ENERGY PREDICTED BY IDOCK:   -2.56 KCAL/MOL
REMARK 923 INTER-LIGAND FREE ENERGY PREDICTED BY IDOCK:   -2.37 KCAL/MOL
REMARK 924 INTRA-LIGAND FREE ENERGY PREDICTED BY IDOCK:   -0.19 KCAL/MOL
REMARK 927      BINDING AFFINITY PREDICTED BY RF-SCORE:    0.00 PKD
ROOT
HETATM    1  C   UNL     1      -9.366   9.251  70.383  1.00  0.00    -0.250 C  
HETATM    2  N   UNL     1      -8.306   8.705  69.545  1.00  0.00    -0.115 NA 
HETATM    3  H   UNL     1      -7.485   9.310  69.563  1.00  0.00     0.000 HD 
ENDROOT
BRANCH   2   4
HETATM    4  C   UNL     1      -7.941   7.321  69.886  1.00  0.00    -0.122 C  
HETATM    5  C   UNL     1      -6.472   7.204  70.311  1.00  0.00    -0.043 C  
BRANCH   4   6
HETATM    6  C   UNL     1      -8.840   6.811  71.041  1.00  0.00    -0.141 C  
BRANCH   6   7
HETATM    7  C   UNL     1      -9.802   5.644  70.691  1.00  0.00    -0.244 C  
HETATM    8  C   UNL     1      -9.414   4.313  71.354  1.00  0.00    -0.225 C  
HETATM    9  C   UNL     1      -9.633   4.323  72.866  1.00  0.00    -0.159 C  
HETATM   10  C   UNL     1     -11.071   4.688  73.219  1.00  0.00    -0.403 C  
HETATM   11  C   UNL     1     -11.515   5.994  72.565  1.00  0.00    -0.336 C  
HETATM   12  C   UNL     1     -11.255   5.996  71.060  1.00  0.00    -0.332 C  
ENDBRANCH   6   7
ENDBRANCH   4   6
ENDBRANCH   2   4
TORSDOF 3
ENDMDL
MODEL      198
REMARK 921   NORMALIZED FREE ENERGY PREDICTED BY IDOCK:   -2.09 KCAL/MOL
REMARK 922        TOTAL FREE ENERGY PREDICTED BY IDOCK:   -2.52 KCAL/MOL
REMARK 923 INTER-LIGAND FREE ENERGY PREDICTED BY IDOCK:   -2.42 KCAL/MOL
REMARK 924 INTRA-LIGAND FREE ENERGY PREDICTED BY IDOCK:   -0.10 KCAL/MOL
REMARK 927      BINDING AFFINITY PREDICTED BY RF-SCORE:    0.00 PKD
ROOT
HETATM    1  C   UNL     1     -10.850   9.979  70.363  1.00  0.00    -0.318 C  
HETATM    2  N   UNL     1     -11.065   8.538  70.317  1.00  0.00    -0.307 NA 
HETATM    3  H   UNL     1     -10.299   8.075  69.827  1.00  0.00     0.000 HD 
ENDROOT
BRANCH   2   4
HETATM    4  C   UNL     1     -11.278   7.932  71.641  1.00  0.00    -0.251 C  
HETATM    5  C   UNL     1     -12.711   7.414  71.809  1.00  0.00    -0.367 C  
BRANCH   4   6
HETATM    6  C   UNL     1     -10.290   6.755  71.844  1.00  0.00    -0.217 C  
BRANCH   6   7
HETATM    7  C   UNL     1      -9.874   6.461  73.310  1.00  0.00    -0.181 C  
HETATM    8  C   UNL     1     -10.877   5.574  74.064  1.00  0.00    -0.101 C  
HETATM    9  C   UNL     1     -10.890   4.135  73.553  1.00  0.00    -0.340 C  
HETATM   10  C   UNL     1      -9.497   3.514  73.601  1.00  0.00    -0.123 C  
HETATM   11  C   UNL     1      -8.456   4.369  72.885  1.00  0.00    -0.102 C  
HETATM   12  C   UNL     1      -8.476   5.818  73.369  1.00  0.00    -0.115 C  
ENDBRANCH   6   7
ENDBRANCH   4   6
ENDBRANCH   2   4
TORSDOF 3
ENDMDL
MODEL      199
REMARK 921   NORMALIZED FREE ENERGY PREDICTED BY IDOCK:   -2.09 KCAL/MOL
REMARK 922        TOTAL FREE ENERGY PREDICTED BY IDOCK:   -2.52 KCAL/MOL
REMARK 923 INTER-LIGAND FREE ENERGY PREDICTED BY IDOCK:   -2.29 KCAL/MOL
REMARK 924 INTRA-LIGAND FREE ENERGY PREDICTED BY IDOCK:   -0.23 KCAL/MOL
REMARK 927      BINDING AFFINITY PREDICTED BY RF-SCORE:    0.00 PKD
ROOT
HETATM    1  C   UNL     1      -8.430   3.308  72.551  1.00  0.00    -0.084 C  
HETATM    2  N   UNL     1      -7.773   3.998  73.653  1.00  0.00    -0.079 NA 
HETATM    3  H   UNL     1      -6.770   4.075  73.484  1.00  0.00     0.000 HD 
ENDROOT
BRANCH   2   4
HETATM    4  C   UNL     1      -8.353   5.316  73.951  1.00  0.00    -0.110 C  
HETATM    5  C   UNL     1      -7.307   6.435  73.869  1.00  0.00    -0.085 C  
BRANCH   4   6
HETATM    6  C   UNL     1      -9.496   5.624  72.950  1.00  0.00    -0.155 C  
BRANCH   6   7
HETATM    7  C   UNL     1      -9.412   6.991  72.219  1.00  0.00    -0.154 C  
HETATM    8  C   UNL     1      -9.672   6.894  70.708  1.00  0.00    -0.176 C  
HETATM    9  C   UNL     1     -11.127   6.566  70.381  1.00  0.00    -0.389 C  
HETATM   10  C   UNL     1     -12.082   7.573  71.016  1.00  0.00    -0.305 C  
HETATM   11  C   UNL     1     -11.849   7.726  72.516  1.00  0.00    -0.354 C  
HETATM   12  C   UNL     1     -10.385   8.011  72.842  1.00  0.00    -0.397 C  
ENDBRANCH   6   7
ENDBRANCH   4   6
ENDBRANCH   2   4
TORSDOF 3
ENDMDL
MODEL      200
REMARK 921   NORMALIZED FREE ENERGY PREDICTED BY IDOCK:   -2.08 KCAL/MOL
REMARK 922        TOTAL FREE ENERGY PREDICTED BY IDOCK:   -2.51 KCAL/MOL
REMARK 923 INTER-LIGAND FREE ENERGY PREDICTED BY IDOCK:   -2.34 KCAL/MOL
REMARK 924 INTRA-LIGAND FREE ENERGY PREDICTED BY IDOCK:   -0.17 KCAL/MOL
REMARK 927      BINDING AFFINITY PREDICTED BY RF-SCORE:    0.00 PKD
ROOT
HETATM    1  C   UNL     1     -10.269   7.418  66.980  1.00  0.00    -0.287 C  
HETATM    2  N   UNL     1      -9.383   7.769  68.082  1.00  0.00    -0.145 NA 
HETATM    3  H   UNL     1      -8.911   6.940  68.443  1.00  0.00     0.000 HD 
ENDROOT
BRANCH   2   4
HETATM    4  C   UNL     1      -8.408   8.817  67.742  1.00  0.00    -0.118 C  
HETATM    5  C   UNL     1      -7.402   8.342  66.686  1.00  0.00    -0.082 C  
BRANCH   4   6
HETATM    6  C   UNL     1      -9.149  10.068  67.204  1.00  0.00    -0.154 C  
BRANCH   6   7
HETATM    7  C   UNL     1      -9.511  11.149  68.257  1.00  0.00    -0.182 C  
HETATM    8  C   UNL     1      -8.768  12.478  68.049  1.00  0.00    -0.186 C  
HETATM    9  C   UNL     1      -9.238  13.227  66.803  1.00  0.00    -0.237 C  
HETATM   10  C   UNL     1     -10.745  13.464  66.832  1.00  0.00    -0.274 C  
HETATM   11  C   UNL     1     -11.531  12.176  67.060  1.00  0.00    -0.415 C  
HETATM   12  C   UNL     1     -11.029  11.410  68.282  1.00  0.00    -0.266 C  
ENDBRANCH   6   7
ENDBRANCH   4   6
ENDBRANCH   2   4
TORSDOF 3
ENDMDL
MODEL      201
REMARK 921   NORMALIZED FREE ENERGY PREDICTED BY IDOCK:   -2.07 KCAL/MOL
REMARK 922        TOTAL FREE ENERGY PREDICTED BY IDOCK:   -2.49 KCAL/MOL
REMARK 923 INTER-LIGAND FREE ENERGY PREDICTED BY IDOCK:   -2.43 KCAL/MOL
REMARK 924 INTRA-LIGAND FREE ENERGY PREDICTED BY IDOCK:   -0.06 KCAL/MOL
REMARK 927      BINDING AFFINITY PREDICTED BY RF-SCORE:    0.00 PKD
ROOT
HETATM    1  C   UNL     1      -8.908  11.190  68.012  1.00  0.00    -0.142 C  
HETATM    2  N   UNL     1      -8.388  11.965  69.132  1.00  0.00    -0.322 NA 
HETATM    3  H   UNL     1      -8.021  11.349  69.857  1.00  0.00     0.000 HD 
ENDROOT
BRANCH   2   4
HETATM    4  C   UNL     1      -7.381  12.963  68.739  1.00  0.00    -0.066 C  
HETATM    5  C   UNL     1      -5.977  12.354  68.645  1.00  0.00    -0.059 C  
BRANCH   4   6
HETATM    6  C   UNL     1      -7.757  13.573  67.364  1.00  0.00    -0.149 C  
BRANCH   6   7
HETATM    7  C   UNL     1      -8.381  14.994  67.398  1.00  0.00    -0.210 C  
HETATM    8  C   UNL     1      -9.119  15.369  66.104  1.00  0.00    -0.339 C  
HETATM    9  C   UNL     1     -10.408  14.574  65.910  1.00  0.00    -0.332 C  
HETATM   10  C   UNL     1     -11.340  14.721  67.109  1.00  0.00    -0.363 C  
HETATM   11  C   UNL     1     -10.648  14.383  68.426  1.00  0.00    -0.248 C  
HETATM   12  C   UNL     1      -9.337  15.148  68.596  1.00  0.00    -0.199 C  
ENDBRANCH   6   7
ENDBRANCH   4   6
ENDBRANCH   2   4
TORSDOF 3
ENDMDL
MODEL      202
REMARK 921   NORMALIZED FREE ENERGY PREDICTED BY IDOCK:   -2.05 KCAL/MOL
REMARK 922        TOTAL FREE ENERGY PREDICTED BY IDOCK:   -2.47 KCAL/MOL
REMARK 923 INTER-LIGAND FREE ENERGY PREDICTED BY IDOCK:   -2.27 KCAL/MOL
REMARK 924 INTRA-LIGAND FREE ENERGY PREDICTED BY IDOCK:   -0.20 KCAL/MOL
REMARK 927      BINDING AFFINITY PREDICTED BY RF-SCORE:    0.00 PKD
ROOT
HETATM    1  C   UNL     1      -6.830   8.414  71.697  1.00  0.00    -0.076 C  
HETATM    2  N   UNL     1      -7.100   9.180  70.487  1.00  0.00    -0.075 NA 
HETATM    3  H   UNL     1      -6.246   9.309  69.944  1.00  0.00     0.000 HD 
ENDROOT
BRANCH   2   4
HETATM    4  C   UNL     1      -8.165   8.603  69.652  1.00  0.00    -0.114 C  
HETATM    5  C   UNL     1      -7.615   8.017  68.346  1.00  0.00    -0.108 C  
BRANCH   4   6
HETATM    6  C   UNL     1      -8.898   7.484  70.436  1.00  0.00    -0.145 C  
BRANCH   6   7
HETATM    7  C   UNL     1     -10.442   7.611  70.518  1.00  0.00    -0.221 C  
HETATM    8  C   UNL     1     -11.180   6.290  70.250  1.00  0.00    -0.455 C  
HETATM    9  C   UNL     1     -10.989   5.271  71.372  1.00  0.00    -0.076 C  
HETATM   10  C   UNL     1     -11.408   5.844  72.722  1.00  0.00    -0.305 C  
HETATM   11  C   UNL     1     -10.721   7.172  73.028  1.00  0.00    -0.359 C  
HETATM   12  C   UNL     1     -10.878   8.173  71.885  1.00  0.00    -0.333 C  
ENDBRANCH   6   7
ENDBRANCH   4   6
ENDBRANCH   2   4
TORSDOF 3
ENDMDL
MODEL      203
REMARK 921   NORMALIZED FREE ENERGY PREDICTED BY IDOCK:   -2.03 KCAL/MOL
REMARK 922        TOTAL FREE ENERGY PREDICTED BY IDOCK:   -2.46 KCAL/MOL
REMARK 923 INTER-LIGAND FREE ENERGY PREDICTED BY IDOCK:   -2.22 KCAL/MOL
REMARK 924 INTRA-LIGAND FREE ENERGY PREDICTED BY IDOCK:   -0.23 KCAL/MOL
REMARK 927      BINDING AFFINITY PREDICTED BY RF-SCORE:    0.00 PKD
ROOT
HETATM    1  C   UNL     1      -7.013   6.304  66.392  1.00  0.00    -0.067 C  
HETATM    2  N   UNL     1      -6.847   7.676  65.928  1.00  0.00    -0.056 NA 
HETATM    3  H   UNL     1      -7.194   7.779  64.975  1.00  0.00     0.000 HD 
ENDROOT
BRANCH   2   4
HETATM    4  C   UNL     1      -7.460   8.675  66.817  1.00  0.00    -0.086 C  
HETATM    5  C   UNL     1      -8.331   9.672  66.043  1.00  0.00    -0.123 C  
BRANCH   4   6
HETATM    6  C   UNL     1      -8.335   7.964  67.881  1.00  0.00    -0.126 C  
BRANCH   6   7
HETATM    7  C   UNL     1      -9.871   8.096  67.697  1.00  0.00    -0.216 C  
HETATM    8  C   UNL     1     -10.589   6.744  67.568  1.00  0.00    -0.348 C  
HETATM    9  C   UNL     1     -10.597   5.953  68.875  1.00  0.00    -0.357 C  
HETATM   10  C   UNL     1     -11.205   6.766  70.014  1.00  0.00    -0.380 C  
HETATM   11  C   UNL     1     -10.542   8.131  70.171  1.00  0.00    -0.237 C  
HETATM   12  C   UNL     1     -10.498   8.900  68.852  1.00  0.00    -0.225 C  
ENDBRANCH   6   7
ENDBRANCH   4   6
ENDBRANCH   2   4
TORSDOF 3
ENDMDL
MODEL      204
REMARK 921   NORMALIZED FREE ENERGY PREDICTED BY IDOCK:   -2.03 KCAL/MOL
REMARK 922        TOTAL FREE ENERGY PREDICTED BY IDOCK:   -2.45 KCAL/MOL
REMARK 923 INTER-LIGAND FREE ENERGY PREDICTED BY IDOCK:   -2.22 KCAL/MOL
REMARK 924 INTRA-LIGAND FREE ENERGY PREDICTED BY IDOCK:   -0.23 KCAL/MOL
REMARK 927      BINDING AFFINITY PREDICTED BY RF-SCORE:    0.00 PKD
ROOT
HETATM    1  C   UNL     1     -10.981   5.922  69.484  1.00  0.00    -0.368 C  
HETATM    2  N   UNL     1      -9.952   5.278  70.291  1.00  0.00    -0.219 NA 
HETATM    3  H   UNL     1      -9.442   4.588  69.741  1.00  0.00     0.000 HD 
ENDROOT
BRANCH   2   4
HETATM    4  C   UNL     1      -9.024   6.226  70.926  1.00  0.00    -0.147 C  
HETATM    5  C   UNL     1      -7.704   5.555  71.326  1.00  0.00    -0.108 C  
BRANCH   4   6
HETATM    6  C   UNL     1      -8.720   7.394  69.953  1.00  0.00    -0.141 C  
BRANCH   6   7
HETATM    7  C   UNL     1      -8.619   8.804  70.593  1.00  0.00    -0.203 C  
HETATM    8  C   UNL     1      -7.644   9.740  69.861  1.00  0.00    -0.154 C  
HETATM    9  C   UNL     1      -8.156  10.165  68.487  1.00  0.00    -0.106 C  
HETATM   10  C   UNL     1      -9.535  10.811  68.582  1.00  0.00    -0.188 C  
HETATM   11  C   UNL     1     -10.538   9.931  69.322  1.00  0.00    -0.245 C  
HETATM   12  C   UNL     1     -10.004   9.473  70.678  1.00  0.00    -0.342 C  
ENDBRANCH   6   7
ENDBRANCH   4   6
ENDBRANCH   2   4
TORSDOF 3
ENDMDL
MODEL      205
REMARK 921   NORMALIZED FREE ENERGY PREDICTED BY IDOCK:   -2.03 KCAL/MOL
REMARK 922        TOTAL FREE ENERGY PREDICTED BY IDOCK:   -2.44 KCAL/MOL
REMARK 923 INTER-LIGAND FREE ENERGY PREDICTED BY IDOCK:   -2.18 KCAL/MOL
REMARK 924 INTRA-LIGAND FREE ENERGY PREDICTED BY IDOCK:   -0.26 KCAL/MOL
REMARK 927      BINDING AFFINITY PREDICTED BY RF-SCORE:    0.00 PKD
ROOT
HETATM    1  C   UNL     1      -8.308   4.156  70.596  1.00  0.00    -0.070 C  
HETATM    2  N   UNL     1      -8.776   5.515  70.834  1.00  0.00    -0.133 NA 
HETATM    3  H   UNL     1      -8.121   6.024  71.427  1.00  0.00     0.000 HD 
ENDROOT
BRANCH   2   4
HETATM    4  C   UNL     1      -9.052   6.266  69.599  1.00  0.00    -0.142 C  
HETATM    5  C   UNL     1      -9.931   5.469  68.628  1.00  0.00    -0.222 C  
BRANCH   4   6
HETATM    6  C   UNL     1      -9.765   7.599  69.944  1.00  0.00    -0.175 C  
BRANCH   6   7
HETATM    7  C   UNL     1      -9.063   8.893  69.455  1.00  0.00    -0.145 C  
HETATM    8  C   UNL     1      -8.716   8.872  67.957  1.00  0.00    -0.133 C  
HETATM    9  C   UNL     1      -9.953   8.950  67.066  1.00  0.00    -0.300 C  
HETATM   10  C   UNL     1     -10.800  10.176  67.393  1.00  0.00    -0.323 C  
HETATM   11  C   UNL     1     -11.153  10.258  68.876  1.00  0.00    -0.278 C  
HETATM   12  C   UNL     1      -9.917  10.137  69.765  1.00  0.00    -0.258 C  
ENDBRANCH   6   7
ENDBRANCH   4   6
ENDBRANCH   2   4
TORSDOF 3
ENDMDL
MODEL      206
REMARK 921   NORMALIZED FREE ENERGY PREDICTED BY IDOCK:   -2.02 KCAL/MOL
REMARK 922        TOTAL FREE ENERGY PREDICTED BY IDOCK:   -2.44 KCAL/MOL
REMARK 923 INTER-LIGAND FREE ENERGY PREDICTED BY IDOCK:   -2.29 KCAL/MOL
REMARK 924 INTRA-LIGAND FREE ENERGY PREDICTED BY IDOCK:   -0.15 KCAL/MOL
REMARK 927      BINDING AFFINITY PREDICTED BY RF-SCORE:    0.00 PKD
ROOT
HETATM    1  C   UNL     1     -12.129   8.497  72.266  1.00  0.00    -0.387 C  
HETATM    2  N   UNL     1     -11.330   8.235  71.075  1.00  0.00    -0.265 NA 
HETATM    3  H   UNL     1     -11.593   8.866  70.319  1.00  0.00     0.000 HD 
ENDROOT
BRANCH   2   4
HETATM    4  C   UNL     1      -9.880   8.289  71.318  1.00  0.00    -0.175 C  
HETATM    5  C   UNL     1      -9.547   8.248  72.814  1.00  0.00    -0.338 C  
BRANCH   4   6
HETATM    6  C   UNL     1      -9.186   7.093  70.616  1.00  0.00    -0.158 C  
BRANCH   6   7
HETATM    7  C   UNL     1     -10.076   6.257  69.658  1.00  0.00    -0.215 C  
HETATM    8  C   UNL     1      -9.369   5.867  68.351  1.00  0.00    -0.124 C  
HETATM    9  C   UNL     1      -8.261   4.838  68.565  1.00  0.00    -0.083 C  
HETATM   10  C   UNL     1      -8.786   3.592  69.272  1.00  0.00    -0.156 C  
HETATM   11  C   UNL     1      -9.520   3.926  70.568  1.00  0.00    -0.251 C  
HETATM   12  C   UNL     1     -10.598   4.987  70.357  1.00  0.00    -0.142 C  
ENDBRANCH   6   7
ENDBRANCH   4   6
ENDBRANCH   2   4
TORSDOF 3
ENDMDL
MODEL      207
REMARK 921   NORMALIZED FREE ENERGY PREDICTED BY IDOCK:   -2.02 KCAL/MOL
REMARK 922        TOTAL FREE ENERGY PREDICTED BY IDOCK:   -2.43 KCAL/MOL
REMARK 923 INTER-LIGAND FREE ENERGY PREDICTED BY IDOCK:   -2.22 KCAL/MOL
REMARK 924 INTRA-LIGAND FREE ENERGY PREDICTED BY IDOCK:   -0.21 KCAL/MOL
REMARK 927      BINDING AFFINITY PREDICTED BY RF-SCORE:    0.00 PKD
ROOT
HETATM    1  C   UNL     1      -9.692   8.797  67.016  1.00  0.00    -0.198 C  
HETATM    2  N   UNL     1     -10.159   7.671  66.218  1.00  0.00    -0.464 NA 
HETATM    3  H   UNL     1     -10.194   7.919  65.230  1.00  0.00     0.000 HD 
ENDROOT
BRANCH   2   4
HETATM    4  C   UNL     1      -9.373   6.443  66.418  1.00  0.00    -0.147 C  
HETATM    5  C   UNL     1      -8.113   6.420  65.543  1.00  0.00    -0.130 C  
BRANCH   4   6
HETATM    6  C   UNL     1      -8.954   6.325  67.906  1.00  0.00    -0.113 C  
BRANCH   6   7
HETATM    7  C   UNL     1      -9.631   5.186  68.714  1.00  0.00    -0.198 C  
HETATM    8  C   UNL     1      -8.748   4.628  69.841  1.00  0.00    -0.116 C  
HETATM    9  C   UNL     1      -8.557   5.620  70.987  1.00  0.00    -0.127 C  
HETATM   10  C   UNL     1      -9.897   6.085  71.549  1.00  0.00    -0.197 C  
HETATM   11  C   UNL     1     -10.824   6.629  70.466  1.00  0.00    -0.310 C  
HETATM   12  C   UNL     1     -10.977   5.651  69.302  1.00  0.00    -0.224 C  
ENDBRANCH   6   7
ENDBRANCH   4   6
ENDBRANCH   2   4
TORSDOF 3
ENDMDL
MODEL      208
REMARK 921   NORMALIZED FREE ENERGY PREDICTED BY IDOCK:   -2.00 KCAL/MOL
REMARK 922        TOTAL FREE ENERGY PREDICTED BY IDOCK:   -2.42 KCAL/MOL
REMARK 923 INTER-LIGAND FREE ENERGY PREDICTED BY IDOCK:   -2.18 KCAL/MOL
REMARK 924 INTRA-LIGAND FREE ENERGY PREDICTED BY IDOCK:   -0.24 KCAL/MOL
REMARK 927      BINDING AFFINITY PREDICTED BY RF-SCORE:    0.00 PKD
ROOT
HETATM    1  C   UNL     1     -10.211  17.929  68.751  1.00  0.00    -0.360 C  
HETATM    2  N   UNL     1      -9.410  18.747  67.849  1.00  0.00    -0.292 NA 
HETATM    3  H   UNL     1      -9.717  19.719  67.876  1.00  0.00     0.000 HD 
ENDROOT
BRANCH   2   4
HETATM    4  C   UNL     1      -7.963  18.651  68.098  1.00  0.00    -0.289 C  
HETATM    5  C   UNL     1      -7.433  19.867  68.869  1.00  0.00    -0.233 C  
BRANCH   4   6
HETATM    6  C   UNL     1      -7.654  17.368  68.910  1.00  0.00    -0.224 C  
BRANCH   6   7
HETATM    7  C   UNL     1      -6.612  16.402  68.286  1.00  0.00    -0.134 C  
HETATM    8  C   UNL     1      -6.058  15.373  69.284  1.00  0.00    -0.113 C  
HETATM    9  C   UNL     1      -7.097  14.331  69.693  1.00  0.00    -0.007 C  
HETATM   10  C   UNL     1      -7.684  13.622  68.476  1.00  0.00    -0.129 C  
HETATM   11  C   UNL     1      -8.229  14.602  67.441  1.00  0.00    -0.220 C  
HETATM   12  C   UNL     1      -7.201  15.667  67.067  1.00  0.00    -0.175 C  
ENDBRANCH   6   7
ENDBRANCH   4   6
ENDBRANCH   2   4
TORSDOF 3
ENDMDL
MODEL      209
REMARK 921   NORMALIZED FREE ENERGY PREDICTED BY IDOCK:   -1.97 KCAL/MOL
REMARK 922        TOTAL FREE ENERGY PREDICTED BY IDOCK:   -2.38 KCAL/MOL
REMARK 923 INTER-LIGAND FREE ENERGY PREDICTED BY IDOCK:   -2.08 KCAL/MOL
REMARK 924 INTRA-LIGAND FREE ENERGY PREDICTED BY IDOCK:   -0.30 KCAL/MOL
REMARK 927      BINDING AFFINITY PREDICTED BY RF-SCORE:    0.00 PKD
ROOT
HETATM    1  C   UNL     1     -11.766  10.272  69.610  1.00  0.00    -0.160 C  
HETATM    2  N   UNL     1     -11.076  10.415  70.886  1.00  0.00    -0.343 NA 
HETATM    3  H   UNL     1     -11.483  11.173  71.434  1.00  0.00     0.000 HD 
ENDROOT
BRANCH   2   4
HETATM    4  C   UNL     1     -11.029   9.172  71.672  1.00  0.00    -0.374 C  
HETATM    5  C   UNL     1     -12.010   8.121  71.139  1.00  0.00    -0.296 C  
BRANCH   4   6
HETATM    6  C   UNL     1      -9.595   8.585  71.640  1.00  0.00    -0.319 C  
BRANCH   6   7
HETATM    7  C   UNL     1      -9.330   7.496  70.566  1.00  0.00    -0.160 C  
HETATM    8  C   UNL     1      -8.811   8.064  69.235  1.00  0.00    -0.141 C  
HETATM    9  C   UNL     1      -7.388   8.608  69.343  1.00  0.00    -0.072 C  
HETATM   10  C   UNL     1      -6.426   7.552  69.877  1.00  0.00    -0.034 C  
HETATM   11  C   UNL     1      -6.907   6.938  71.188  1.00  0.00    -0.058 C  
HETATM   12  C   UNL     1      -8.346   6.433  71.088  1.00  0.00    -0.123 C  
ENDBRANCH   6   7
ENDBRANCH   4   6
ENDBRANCH   2   4
TORSDOF 3
ENDMDL
MODEL      210
REMARK 921   NORMALIZED FREE ENERGY PREDICTED BY IDOCK:   -1.95 KCAL/MOL
REMARK 922        TOTAL FREE ENERGY PREDICTED BY IDOCK:   -2.35 KCAL/MOL
REMARK 923 INTER-LIGAND FREE ENERGY PREDICTED BY IDOCK:   -2.23 KCAL/MOL
REMARK 924 INTRA-LIGAND FREE ENERGY PREDICTED BY IDOCK:   -0.13 KCAL/MOL
REMARK 927      BINDING AFFINITY PREDICTED BY RF-SCORE:    0.00 PKD
ROOT
HETATM    1  C   UNL     1      -9.516   2.068  68.358  1.00  0.00    -0.168 C  
HETATM    2  N   UNL     1      -8.917   3.274  67.800  1.00  0.00    -0.133 NA 
HETATM    3  H   UNL     1      -9.614   3.823  67.297  1.00  0.00     0.000 HD 
ENDROOT
BRANCH   2   4
HETATM    4  C   UNL     1      -8.225   4.103  68.799  1.00  0.00    -0.075 C  
HETATM    5  C   UNL     1      -6.701   4.045  68.634  1.00  0.00    -0.046 C  
BRANCH   4   6
HETATM    6  C   UNL     1      -8.689   5.576  68.671  1.00  0.00    -0.108 C  
BRANCH   6   7
HETATM    7  C   UNL     1     -10.223   5.811  68.698  1.00  0.00    -0.254 C  
HETATM    8  C   UNL     1     -10.662   6.869  69.723  1.00  0.00    -0.276 C  
HETATM    9  C   UNL     1     -10.237   8.282  69.329  1.00  0.00    -0.207 C  
HETATM   10  C   UNL     1     -10.746   8.651  67.940  1.00  0.00    -0.158 C  
HETATM   11  C   UNL     1     -10.357   7.618  66.886  1.00  0.00    -0.388 C  
HETATM   12  C   UNL     1     -10.746   6.202  67.303  1.00  0.00    -0.414 C  
ENDBRANCH   6   7
ENDBRANCH   4   6
ENDBRANCH   2   4
TORSDOF 3
ENDMDL
MODEL      211
REMARK 921   NORMALIZED FREE ENERGY PREDICTED BY IDOCK:   -1.93 KCAL/MOL
REMARK 922        TOTAL FREE ENERGY PREDICTED BY IDOCK:   -2.33 KCAL/MOL
REMARK 923 INTER-LIGAND FREE ENERGY PREDICTED BY IDOCK:   -2.10 KCAL/MOL
REMARK 924 INTRA-LIGAND FREE ENERGY PREDICTED BY IDOCK:   -0.23 KCAL/MOL
REMARK 927      BINDING AFFINITY PREDICTED BY RF-SCORE:    0.00 PKD
ROOT
HETATM    1  C   UNL     1     -10.652   9.006  67.194  1.00  0.00    -0.220 C  
HETATM    2  N   UNL     1     -11.030   7.695  67.706  1.00  0.00    -0.501 NA 
HETATM    3  H   UNL     1     -10.915   6.980  66.987  1.00  0.00     0.000 HD 
ENDROOT
BRANCH   2   4
HETATM    4  C   UNL     1     -10.315   7.315  68.935  1.00  0.00    -0.201 C  
HETATM    5  C   UNL     1     -11.273   6.815  70.023  1.00  0.00    -0.380 C  
BRANCH   4   6
HETATM    6  C   UNL     1      -9.285   6.201  68.620  1.00  0.00    -0.123 C  
BRANCH   6   7
HETATM    7  C   UNL     1      -9.426   5.516  67.234  1.00  0.00    -0.119 C  
HETATM    8  C   UNL     1      -8.281   5.855  66.266  1.00  0.00    -0.114 C  
HETATM    9  C   UNL     1      -6.953   5.226  66.681  1.00  0.00    -0.064 C  
HETATM   10  C   UNL     1      -7.078   3.714  66.841  1.00  0.00    -0.063 C  
HETATM   11  C   UNL     1      -8.218   3.321  67.776  1.00  0.00    -0.086 C  
HETATM   12  C   UNL     1      -9.535   3.987  67.382  1.00  0.00    -0.231 C  
ENDBRANCH   6   7
ENDBRANCH   4   6
ENDBRANCH   2   4
TORSDOF 3
ENDMDL
MODEL      212
REMARK 921   NORMALIZED FREE ENERGY PREDICTED BY IDOCK:   -1.88 KCAL/MOL
REMARK 922        TOTAL FREE ENERGY PREDICTED BY IDOCK:   -2.28 KCAL/MOL
REMARK 923 INTER-LIGAND FREE ENERGY PREDICTED BY IDOCK:   -2.14 KCAL/MOL
REMARK 924 INTRA-LIGAND FREE ENERGY PREDICTED BY IDOCK:   -0.14 KCAL/MOL
REMARK 927      BINDING AFFINITY PREDICTED BY RF-SCORE:    0.00 PKD
ROOT
HETATM    1  C   UNL     1     -11.140  14.854  69.478  1.00  0.00    -0.281 C  
HETATM    2  N   UNL     1     -10.466  14.239  68.341  1.00  0.00    -0.242 NA 
HETATM    3  H   UNL     1      -9.527  14.621  68.228  1.00  0.00     0.000 HD 
ENDROOT
BRANCH   2   4
HETATM    4  C   UNL     1     -10.424  12.770  68.407  1.00  0.00    -0.243 C  
HETATM    5  C   UNL     1     -11.768  12.141  68.020  1.00  0.00    -0.409 C  
BRANCH   4   6
HETATM    6  C   UNL     1      -9.325  12.233  67.456  1.00  0.00    -0.183 C  
BRANCH   6   7
HETATM    7  C   UNL     1      -8.365  11.171  68.055  1.00  0.00    -0.134 C  
HETATM    8  C   UNL     1      -8.045  10.020  67.088  1.00  0.00    -0.117 C  
HETATM    9  C   UNL     1      -7.169  10.462  65.917  1.00  0.00    -0.135 C  
HETATM   10  C   UNL     1      -5.880  11.118  66.402  1.00  0.00    -0.148 C  
HETATM   11  C   UNL     1      -6.141  12.255  67.386  1.00  0.00    -0.153 C  
HETATM   12  C   UNL     1      -7.052  11.820  68.532  1.00  0.00    -0.091 C  
ENDBRANCH   6   7
ENDBRANCH   4   6
ENDBRANCH   2   4
TORSDOF 3
ENDMDL
MODEL      213
REMARK 921   NORMALIZED FREE ENERGY PREDICTED BY IDOCK:   -1.88 KCAL/MOL
REMARK 922        TOTAL FREE ENERGY PREDICTED BY IDOCK:   -2.28 KCAL/MOL
REMARK 923 INTER-LIGAND FREE ENERGY PREDICTED BY IDOCK:   -2.08 KCAL/MOL
REMARK 924 INTRA-LIGAND FREE ENERGY PREDICTED BY IDOCK:   -0.20 KCAL/MOL
REMARK 927      BINDING AFFINITY PREDICTED BY RF-SCORE:    0.00 PKD
ROOT
HETATM    1  C   UNL     1     -10.802   9.771  70.772  1.00  0.00    -0.333 C  
HETATM    2  N   UNL     1     -11.228   8.567  70.068  1.00  0.00    -0.429 NA 
HETATM    3  H   UNL     1     -12.242   8.464  70.111  1.00  0.00     0.000 HD 
ENDROOT
BRANCH   2   4
HETATM    4  C   UNL     1     -10.757   8.503  68.676  1.00  0.00    -0.041 C  
HETATM    5  C   UNL     1     -10.720   9.889  68.019  1.00  0.00    -0.296 C  
BRANCH   4   6
HETATM    6  C   UNL     1      -9.336   7.887  68.631  1.00  0.00    -0.145 C  
BRANCH   6   7
HETATM    7  C   UNL     1      -9.130   6.722  67.627  1.00  0.00    -0.117 C  
HETATM    8  C   UNL     1      -7.840   5.924  67.872  1.00  0.00    -0.104 C  
HETATM    9  C   UNL     1      -7.895   5.095  69.154  1.00  0.00    -0.081 C  
HETATM   10  C   UNL     1      -9.102   4.161  69.162  1.00  0.00    -0.191 C  
HETATM   11  C   UNL     1     -10.410   4.902  68.900  1.00  0.00    -0.069 C  
HETATM   12  C   UNL     1     -10.336   5.763  67.640  1.00  0.00    -0.270 C  
ENDBRANCH   6   7
ENDBRANCH   4   6
ENDBRANCH   2   4
TORSDOF 3
ENDMDL
MODEL      214
REMARK 921   NORMALIZED FREE ENERGY PREDICTED BY IDOCK:   -1.86 KCAL/MOL
REMARK 922        TOTAL FREE ENERGY PREDICTED BY IDOCK:   -2.25 KCAL/MOL
REMARK 923 INTER-LIGAND FREE ENERGY PREDICTED BY IDOCK:   -2.01 KCAL/MOL
REMARK 924 INTRA-LIGAND FREE ENERGY PREDICTED BY IDOCK:   -0.25 KCAL/MOL
REMARK 927      BINDING AFFINITY PREDICTED BY RF-SCORE:    0.00 PKD
ROOT
HETATM    1  C   UNL     1      -9.356   1.932  67.383  1.00  0.00    -0.043 C  
HETATM    2  N   UNL     1      -9.777   3.187  66.772  1.00  0.00    -0.402 NA 
HETATM    3  H   UNL     1     -10.593   3.566  67.253  1.00  0.00     0.000 HD 
ENDROOT
BRANCH   2   4
HETATM    4  C   UNL     1      -8.705   4.192  66.695  1.00  0.00    -0.114 C  
HETATM    5  C   UNL     1      -8.996   5.259  65.633  1.00  0.00    -0.160 C  
BRANCH   4   6
HETATM    6  C   UNL     1      -8.536   4.885  68.071  1.00  0.00    -0.103 C  
BRANCH   6   7
HETATM    7  C   UNL     1      -9.572   5.991  68.407  1.00  0.00    -0.130 C  
HETATM    8  C   UNL     1     -10.701   5.511  69.332  1.00  0.00    -0.312 C  
HETATM    9  C   UNL     1     -10.219   5.231  70.754  1.00  0.00    -0.317 C  
HETATM   10  C   UNL     1      -9.525   6.449  71.357  1.00  0.00    -0.164 C  
HETATM   11  C   UNL     1      -8.408   6.982  70.465  1.00  0.00    -0.132 C  
HETATM   12  C   UNL     1      -8.885   7.220  69.033  1.00  0.00    -0.132 C  
ENDBRANCH   6   7
ENDBRANCH   4   6
ENDBRANCH   2   4
TORSDOF 3
ENDMDL
MODEL      215
REMARK 921   NORMALIZED FREE ENERGY PREDICTED BY IDOCK:   -1.86 KCAL/MOL
REMARK 922        TOTAL FREE ENERGY PREDICTED BY IDOCK:   -2.25 KCAL/MOL
REMARK 923 INTER-LIGAND FREE ENERGY PREDICTED BY IDOCK:   -2.09 KCAL/MOL
REMARK 924 INTRA-LIGAND FREE ENERGY PREDICTED BY IDOCK:   -0.17 KCAL/MOL
REMARK 927      BINDING AFFINITY PREDICTED BY RF-SCORE:    0.00 PKD
ROOT
HETATM    1  C   UNL     1      -9.114   4.935  67.715  1.00  0.00    -0.116 C  
HETATM    2  N   UNL     1      -9.250   5.579  69.015  1.00  0.00    -0.117 NA 
HETATM    3  H   UNL     1      -9.299   4.883  69.759  1.00  0.00     0.000 HD 
ENDROOT
BRANCH   2   4
HETATM    4  C   UNL     1      -8.196   6.566  69.295  1.00  0.00    -0.123 C  
HETATM    5  C   UNL     1      -6.805   6.043  68.917  1.00  0.00    -0.066 C  
BRANCH   4   6
HETATM    6  C   UNL     1      -8.475   7.870  68.503  1.00  0.00    -0.128 C  
BRANCH   6   7
HETATM    7  C   UNL     1      -9.947   8.363  68.502  1.00  0.00    -0.203 C  
HETATM    8  C   UNL     1     -10.137   9.722  69.194  1.00  0.00    -0.200 C  
HETATM    9  C   UNL     1      -9.523  10.876  68.403  1.00  0.00    -0.178 C  
HETATM   10  C   UNL     1     -10.070  10.929  66.980  1.00  0.00    -0.244 C  
HETATM   11  C   UNL     1      -9.927   9.594  66.254  1.00  0.00    -0.335 C  
HETATM   12  C   UNL     1     -10.503   8.437  67.067  1.00  0.00    -0.375 C  
ENDBRANCH   6   7
ENDBRANCH   4   6
ENDBRANCH   2   4
TORSDOF 3
ENDMDL
MODEL      216
REMARK 921   NORMALIZED FREE ENERGY PREDICTED BY IDOCK:   -1.80 KCAL/MOL
REMARK 922        TOTAL FREE ENERGY PREDICTED BY IDOCK:   -2.17 KCAL/MOL
REMARK 923 INTER-LIGAND FREE ENERGY PREDICTED BY IDOCK:   -1.93 KCAL/MOL
REMARK 924 INTRA-LIGAND FREE ENERGY PREDICTED BY IDOCK:   -0.24 KCAL/MOL
REMARK 927      BINDING AFFINITY PREDICTED BY RF-SCORE:    0.00 PKD
ROOT
HETATM    1  C   UNL     1      -8.792   1.476  66.388  1.00  0.00    -0.113 C  
HETATM    2  N   UNL     1      -9.726   1.743  65.302  1.00  0.00    -0.322 NA 
HETATM    3  H   UNL     1     -10.672   1.867  65.662  1.00  0.00     0.000 HD 
ENDROOT
BRANCH   2   4
HETATM    4  C   UNL     1      -9.337   2.885  64.460  1.00  0.00    -0.145 C  
HETATM    5  C   UNL     1     -10.547   3.532  63.776  1.00  0.00    -0.280 C  
BRANCH   4   6
HETATM    6  C   UNL     1      -8.618   3.953  65.324  1.00  0.00    -0.114 C  
BRANCH   6   7
HETATM    7  C   UNL     1      -9.472   5.181  65.737  1.00  0.00    -0.153 C  
HETATM    8  C   UNL     1     -10.383   4.915  66.945  1.00  0.00    -0.237 C  
HETATM    9  C   UNL     1      -9.602   4.751  68.247  1.00  0.00    -0.204 C  
HETATM   10  C   UNL     1      -8.709   5.959  68.517  1.00  0.00    -0.112 C  
HETATM   11  C   UNL     1      -7.798   6.282  67.335  1.00  0.00    -0.101 C  
HETATM   12  C   UNL     1      -8.579   6.402  66.028  1.00  0.00    -0.149 C  
ENDBRANCH   6   7
ENDBRANCH   4   6
ENDBRANCH   2   4
TORSDOF 3
ENDMDL
MODEL      217
REMARK 921   NORMALIZED FREE ENERGY PREDICTED BY IDOCK:   -1.79 KCAL/MOL
REMARK 922        TOTAL FREE ENERGY PREDICTED BY IDOCK:   -2.17 KCAL/MOL
REMARK 923 INTER-LIGAND FREE ENERGY PREDICTED BY IDOCK:   -2.00 KCAL/MOL
REMARK 924 INTRA-LIGAND FREE ENERGY PREDICTED BY IDOCK:   -0.17 KCAL/MOL
REMARK 927      BINDING AFFINITY PREDICTED BY RF-SCORE:    0.00 PKD
ROOT
HETATM    1  C   UNL     1     -10.573   7.487  71.482  1.00  0.00    -0.212 C  
HETATM    2  N   UNL     1     -10.115   8.774  70.974  1.00  0.00    -0.217 NA 
HETATM    3  H   UNL     1      -9.820   9.379  71.740  1.00  0.00     0.000 HD 
ENDROOT
BRANCH   2   4
HETATM    4  C   UNL     1      -9.054   8.662  69.961  1.00  0.00    -0.156 C  
HETATM    5  C   UNL     1      -8.531   7.226  69.836  1.00  0.00    -0.140 C  
BRANCH   4   6
HETATM    6  C   UNL     1      -9.593   9.123  68.583  1.00  0.00    -0.157 C  
BRANCH   6   7
HETATM    7  C   UNL     1      -8.615   9.955  67.713  1.00  0.00    -0.121 C  
HETATM    8  C   UNL     1      -7.660   9.094  66.871  1.00  0.00    -0.091 C  
HETATM    9  C   UNL     1      -8.376   8.356  65.741  1.00  0.00    -0.150 C  
HETATM   10  C   UNL     1      -9.145   9.321  64.844  1.00  0.00    -0.227 C  
HETATM   11  C   UNL     1     -10.092  10.219  65.635  1.00  0.00    -0.341 C  
HETATM   12  C   UNL     1      -9.381  10.921  66.790  1.00  0.00    -0.185 C  
ENDBRANCH   6   7
ENDBRANCH   4   6
ENDBRANCH   2   4
TORSDOF 3
ENDMDL
MODEL      218
REMARK 921   NORMALIZED FREE ENERGY PREDICTED BY IDOCK:   -1.78 KCAL/MOL
REMARK 922        TOTAL FREE ENERGY PREDICTED BY IDOCK:   -2.16 KCAL/MOL
REMARK 923 INTER-LIGAND FREE ENERGY PREDICTED BY IDOCK:   -1.91 KCAL/MOL
REMARK 924 INTRA-LIGAND FREE ENERGY PREDICTED BY IDOCK:   -0.25 KCAL/MOL
REMARK 927      BINDING AFFINITY PREDICTED BY RF-SCORE:    0.00 PKD
ROOT
HETATM    1  C   UNL     1      -8.326   3.910  71.430  1.00  0.00    -0.076 C  
HETATM    2  N   UNL     1      -9.775   3.847  71.286  1.00  0.00    -0.174 NA 
HETATM    3  H   UNL     1     -10.190   3.302  72.042  1.00  0.00     0.000 HD 
ENDROOT
BRANCH   2   4
HETATM    4  C   UNL     1     -10.414   5.169  71.188  1.00  0.00    -0.170 C  
HETATM    5  C   UNL     1     -10.879   5.683  72.556  1.00  0.00    -0.299 C  
BRANCH   4   6
HETATM    6  C   UNL     1      -9.418   6.188  70.580  1.00  0.00    -0.182 C  
BRANCH   6   7
HETATM    7  C   UNL     1      -9.949   7.032  69.390  1.00  0.00    -0.165 C  
HETATM    8  C   UNL     1      -8.862   7.874  68.703  1.00  0.00    -0.134 C  
HETATM    9  C   UNL     1      -7.859   7.021  67.929  1.00  0.00    -0.114 C  
HETATM   10  C   UNL     1      -8.557   6.128  66.908  1.00  0.00    -0.109 C  
HETATM   11  C   UNL     1      -9.665   5.286  67.535  1.00  0.00    -0.167 C  
HETATM   12  C   UNL     1     -10.641   6.138  68.344  1.00  0.00    -0.324 C  
ENDBRANCH   6   7
ENDBRANCH   4   6
ENDBRANCH   2   4
TORSDOF 3
ENDMDL
MODEL      219
REMARK 921   NORMALIZED FREE ENERGY PREDICTED BY IDOCK:   -1.77 KCAL/MOL
REMARK 922        TOTAL FREE ENERGY PREDICTED BY IDOCK:   -2.15 KCAL/MOL
REMARK 923 INTER-LIGAND FREE ENERGY PREDICTED BY IDOCK:   -1.94 KCAL/MOL
REMARK 924 INTRA-LIGAND FREE ENERGY PREDICTED BY IDOCK:   -0.21 KCAL/MOL
REMARK 927      BINDING AFFINITY PREDICTED BY RF-SCORE:    0.00 PKD
ROOT
HETATM    1  C   UNL     1     -11.120   9.729  70.857  1.00  0.00    -0.357 C  
HETATM    2  N   UNL     1     -11.550   8.820  69.801  1.00  0.00    -0.371 NA 
HETATM    3  H   UNL     1     -12.510   9.021  69.522  1.00  0.00     0.000 HD 
ENDROOT
BRANCH   2   4
HETATM    4  C   UNL     1     -10.658   8.815  68.631  1.00  0.00    -0.139 C  
HETATM    5  C   UNL     1     -10.464  10.221  68.052  1.00  0.00    -0.234 C  
BRANCH   4   6
HETATM    6  C   UNL     1      -9.275   8.240  69.029  1.00  0.00    -0.147 C  
BRANCH   6   7
HETATM    7  C   UNL     1      -8.917   6.852  68.435  1.00  0.00    -0.121 C  
HETATM    8  C   UNL     1      -9.562   6.589  67.064  1.00  0.00    -0.174 C  
HETATM    9  C   UNL     1      -8.965   7.456  65.957  1.00  0.00    -0.156 C  
HETATM   10  C   UNL     1      -7.452   7.284  65.870  1.00  0.00    -0.080 C  
HETATM   11  C   UNL     1      -6.763   7.511  67.212  1.00  0.00    -0.067 C  
HETATM   12  C   UNL     1      -7.391   6.674  68.325  1.00  0.00    -0.090 C  
ENDBRANCH   6   7
ENDBRANCH   4   6
ENDBRANCH   2   4
TORSDOF 3
ENDMDL
MODEL      220
REMARK 921   NORMALIZED FREE ENERGY PREDICTED BY IDOCK:   -1.77 KCAL/MOL
REMARK 922        TOTAL FREE ENERGY PREDICTED BY IDOCK:   -2.14 KCAL/MOL
REMARK 923 INTER-LIGAND FREE ENERGY PREDICTED BY IDOCK:   -2.00 KCAL/MOL
REMARK 924 INTRA-LIGAND FREE ENERGY PREDICTED BY IDOCK:   -0.15 KCAL/MOL
REMARK 927      BINDING AFFINITY PREDICTED BY RF-SCORE:    0.00 PKD
ROOT
HETATM    1  C   UNL     1      -5.554  10.114  71.675  1.00  0.00     0.070 C  
HETATM    2  N   UNL     1      -6.236  11.135  70.889  1.00  0.00    -0.451 NA 
HETATM    3  H   UNL     1      -5.794  12.045  71.019  1.00  0.00     0.000 HD 
ENDROOT
BRANCH   2   4
HETATM    4  C   UNL     1      -6.338  10.805  69.459  1.00  0.00    -0.079 C  
HETATM    5  C   UNL     1      -5.789   9.406  69.153  1.00  0.00    -0.035 C  
BRANCH   4   6
HETATM    6  C   UNL     1      -7.819  10.873  69.010  1.00  0.00    -0.138 C  
BRANCH   6   7
HETATM    7  C   UNL     1      -8.134  11.855  67.850  1.00  0.00    -0.147 C  
HETATM    8  C   UNL     1      -8.682  11.161  66.593  1.00  0.00    -0.166 C  
HETATM    9  C   UNL     1     -10.092  10.608  66.793  1.00  0.00    -0.272 C  
HETATM   10  C   UNL     1     -11.056  11.695  67.258  1.00  0.00    -0.346 C  
HETATM   11  C   UNL     1     -10.547  12.432  68.493  1.00  0.00    -0.251 C  
HETATM   12  C   UNL     1      -9.122  12.947  68.304  1.00  0.00    -0.180 C  
ENDBRANCH   6   7
ENDBRANCH   4   6
ENDBRANCH   2   4
TORSDOF 3
ENDMDL
MODEL      221
REMARK 921   NORMALIZED FREE ENERGY PREDICTED BY IDOCK:   -1.76 KCAL/MOL
REMARK 922        TOTAL FREE ENERGY PREDICTED BY IDOCK:   -2.13 KCAL/MOL
REMARK 923 INTER-LIGAND FREE ENERGY PREDICTED BY IDOCK:   -1.85 KCAL/MOL
REMARK 924 INTRA-LIGAND FREE ENERGY PREDICTED BY IDOCK:   -0.27 KCAL/MOL
REMARK 927      BINDING AFFINITY PREDICTED BY RF-SCORE:    0.00 PKD
ROOT
HETATM    1  C   UNL     1      -6.399  16.939  67.352  1.00  0.00    -0.156 C  
HETATM    2  N   UNL     1      -7.653  16.229  67.572  1.00  0.00    -0.136 NA 
HETATM    3  H   UNL     1      -8.374  16.564  66.934  1.00  0.00     0.000 HD 
ENDROOT
BRANCH   2   4
HETATM    4  C   UNL     1      -7.522  14.766  67.488  1.00  0.00    -0.198 C  
HETATM    5  C   UNL     1      -6.243  14.265  68.170  1.00  0.00    -0.138 C  
BRANCH   4   6
HETATM    6  C   UNL     1      -8.747  14.091  68.157  1.00  0.00    -0.180 C  
BRANCH   6   7
HETATM    7  C   UNL     1      -9.600  13.171  67.243  1.00  0.00    -0.233 C  
HETATM    8  C   UNL     1      -8.767  12.142  66.462  1.00  0.00    -0.114 C  
HETATM    9  C   UNL     1      -8.175  11.059  67.362  1.00  0.00    -0.122 C  
HETATM   10  C   UNL     1      -9.259  10.354  68.173  1.00  0.00    -0.145 C  
HETATM   11  C   UNL     1     -10.132  11.335  68.951  1.00  0.00    -0.185 C  
HETATM   12  C   UNL     1     -10.687  12.441  68.054  1.00  0.00    -0.247 C  
ENDBRANCH   6   7
ENDBRANCH   4   6
ENDBRANCH   2   4
TORSDOF 3
ENDMDL
MODEL      222
REMARK 921   NORMALIZED FREE ENERGY PREDICTED BY IDOCK:   -1.74 KCAL/MOL
REMARK 922        TOTAL FREE ENERGY PREDICTED BY IDOCK:   -2.11 KCAL/MOL
REMARK 923 INTER-LIGAND FREE ENERGY PREDICTED BY IDOCK:   -1.92 KCAL/MOL
REMARK 924 INTRA-LIGAND FREE ENERGY PREDICTED BY IDOCK:   -0.19 KCAL/MOL
REMARK 927      BINDING AFFINITY PREDICTED BY RF-SCORE:    0.00 PKD
ROOT
HETATM    1  C   UNL     1      -8.496  10.000  64.842  1.00  0.00    -0.166 C  
HETATM    2  N   UNL     1      -8.482  10.368  66.252  1.00  0.00    -0.139 NA 
HETATM    3  H   UNL     1      -8.825  11.319  66.380  1.00  0.00     0.000 HD 
ENDROOT
BRANCH   2   4
HETATM    4  C   UNL     1      -9.218   9.428  67.112  1.00  0.00    -0.134 C  
HETATM    5  C   UNL     1     -10.672   9.867  67.326  1.00  0.00    -0.304 C  
BRANCH   4   6
HETATM    6  C   UNL     1      -9.207   8.015  66.475  1.00  0.00    -0.236 C  
BRANCH   6   7
HETATM    7  C   UNL     1      -8.657   6.871  67.366  1.00  0.00    -0.121 C  
HETATM    8  C   UNL     1      -9.758   6.016  68.014  1.00  0.00    -0.126 C  
HETATM    9  C   UNL     1     -10.507   5.155  66.999  1.00  0.00    -0.256 C  
HETATM   10  C   UNL     1      -9.551   4.269  66.205  1.00  0.00    -0.204 C  
HETATM   11  C   UNL     1      -8.422   5.068  65.560  1.00  0.00    -0.134 C  
HETATM   12  C   UNL     1      -7.703   5.960  66.570  1.00  0.00    -0.100 C  
ENDBRANCH   6   7
ENDBRANCH   4   6
ENDBRANCH   2   4
TORSDOF 3
ENDMDL
MODEL      223
REMARK 921   NORMALIZED FREE ENERGY PREDICTED BY IDOCK:   -1.74 KCAL/MOL
REMARK 922        TOTAL FREE ENERGY PREDICTED BY IDOCK:   -2.11 KCAL/MOL
REMARK 923 INTER-LIGAND FREE ENERGY PREDICTED BY IDOCK:   -1.97 KCAL/MOL
REMARK 924 INTRA-LIGAND FREE ENERGY PREDICTED BY IDOCK:   -0.14 KCAL/MOL
REMARK 927      BINDING AFFINITY PREDICTED BY RF-SCORE:    0.00 PKD
ROOT
HETATM    1  C   UNL     1      -9.756   4.426  65.069  1.00  0.00    -0.164 C  
HETATM    2  N   UNL     1      -9.124   5.330  66.022  1.00  0.00    -0.149 NA 
HETATM    3  H   UNL     1      -8.491   5.972  65.546  1.00  0.00     0.000 HD 
ENDROOT
BRANCH   2   4
HETATM    4  C   UNL     1     -10.085   6.070  66.856  1.00  0.00    -0.185 C  
HETATM    5  C   UNL     1     -10.405   5.326  68.158  1.00  0.00    -0.181 C  
BRANCH   4   6
HETATM    6  C   UNL     1      -9.511   7.467  67.203  1.00  0.00    -0.194 C  
BRANCH   6   7
HETATM    7  C   UNL     1      -9.643   8.551  66.100  1.00  0.00    -0.276 C  
HETATM    8  C   UNL     1     -10.249   9.869  66.606  1.00  0.00    -0.293 C  
HETATM    9  C   UNL     1      -9.309  10.628  67.540  1.00  0.00    -0.158 C  
HETATM   10  C   UNL     1      -7.958  10.889  66.880  1.00  0.00    -0.138 C  
HETATM   11  C   UNL     1      -7.322   9.612  66.338  1.00  0.00    -0.094 C  
HETATM   12  C   UNL     1      -8.281   8.834  65.438  1.00  0.00    -0.137 C  
ENDBRANCH   6   7
ENDBRANCH   4   6
ENDBRANCH   2   4
TORSDOF 3
ENDMDL
MODEL      224
REMARK 921   NORMALIZED FREE ENERGY PREDICTED BY IDOCK:   -1.74 KCAL/MOL
REMARK 922        TOTAL FREE ENERGY PREDICTED BY IDOCK:   -2.11 KCAL/MOL
REMARK 923 INTER-LIGAND FREE ENERGY PREDICTED BY IDOCK:   -2.05 KCAL/MOL
REMARK 924 INTRA-LIGAND FREE ENERGY PREDICTED BY IDOCK:   -0.06 KCAL/MOL
REMARK 927      BINDING AFFINITY PREDICTED BY RF-SCORE:    0.00 PKD
ROOT
HETATM    1  C   UNL     1     -10.984   7.427  67.114  1.00  0.00    -0.155 C  
HETATM    2  N   UNL     1     -11.245   6.633  68.308  1.00  0.00    -0.554 NA 
HETATM    3  H   UNL     1     -12.021   5.990  68.151  1.00  0.00     0.000 HD 
ENDROOT
BRANCH   2   4
HETATM    4  C   UNL     1     -10.063   5.912  68.804  1.00  0.00    -0.172 C  
HETATM    5  C   UNL     1      -8.803   6.256  68.001  1.00  0.00    -0.112 C  
BRANCH   4   6
HETATM    6  C   UNL     1      -9.820   6.264  70.294  1.00  0.00    -0.199 C  
BRANCH   6   7
HETATM    7  C   UNL     1      -8.347   6.196  70.779  1.00  0.00    -0.126 C  
HETATM    8  C   UNL     1      -7.688   7.576  70.928  1.00  0.00    -0.090 C  
HETATM    9  C   UNL     1      -8.260   8.378  72.095  1.00  0.00    -0.207 C  
HETATM   10  C   UNL     1      -8.162   7.603  73.405  1.00  0.00    -0.196 C  
HETATM   11  C   UNL     1      -8.782   6.212  73.304  1.00  0.00    -0.123 C  
HETATM   12  C   UNL     1      -8.239   5.430  72.111  1.00  0.00    -0.115 C  
ENDBRANCH   6   7
ENDBRANCH   4   6
ENDBRANCH   2   4
TORSDOF 3
ENDMDL
MODEL      225
REMARK 921   NORMALIZED FREE ENERGY PREDICTED BY IDOCK:   -1.74 KCAL/MOL
REMARK 922        TOTAL FREE ENERGY PREDICTED BY IDOCK:   -2.10 KCAL/MOL
REMARK 923 INTER-LIGAND FREE ENERGY PREDICTED BY IDOCK:   -2.20 KCAL/MOL
REMARK 924 INTRA-LIGAND FREE ENERGY PREDICTED BY IDOCK:    0.09 KCAL/MOL
REMARK 927      BINDING AFFINITY PREDICTED BY RF-SCORE:    0.00 PKD
ROOT
HETATM    1  C   UNL     1     -11.638   6.753  70.379  1.00  0.00    -0.367 C  
HETATM    2  N   UNL     1     -10.854   5.550  70.632  1.00  0.00    -0.233 NA 
HETATM    3  H   UNL     1     -10.390   5.236  69.780  1.00  0.00     0.000 HD 
ENDROOT
BRANCH   2   4
HETATM    4  C   UNL     1      -9.883   5.702  71.727  1.00  0.00    -0.168 C  
HETATM    5  C   UNL     1      -9.717   4.406  72.529  1.00  0.00    -0.204 C  
BRANCH   4   6
HETATM    6  C   UNL     1      -8.504   6.117  71.152  1.00  0.00    -0.125 C  
BRANCH   6   7
HETATM    7  C   UNL     1      -8.050   7.570  71.454  1.00  0.00    -0.096 C  
HETATM    8  C   UNL     1      -9.101   8.393  72.215  1.00  0.00    -0.313 C  
HETATM    9  C   UNL     1      -9.287   7.923  73.656  1.00  0.00    -0.288 C  
HETATM   10  C   UNL     1      -7.964   7.924  74.418  1.00  0.00    -0.281 C  
HETATM   11  C   UNL     1      -6.877   7.137  73.691  1.00  0.00    -0.069 C  
HETATM   12  C   UNL     1      -6.724   7.582  72.238  1.00  0.00    -0.055 C  
ENDBRANCH   6   7
ENDBRANCH   4   6
ENDBRANCH   2   4
TORSDOF 3
ENDMDL
MODEL      226
REMARK 921   NORMALIZED FREE ENERGY PREDICTED BY IDOCK:   -1.73 KCAL/MOL
REMARK 922        TOTAL FREE ENERGY PREDICTED BY IDOCK:   -2.10 KCAL/MOL
REMARK 923 INTER-LIGAND FREE ENERGY PREDICTED BY IDOCK:   -1.90 KCAL/MOL
REMARK 924 INTRA-LIGAND FREE ENERGY PREDICTED BY IDOCK:   -0.20 KCAL/MOL
REMARK 927      BINDING AFFINITY PREDICTED BY RF-SCORE:    0.00 PKD
ROOT
HETATM    1  C   UNL     1      -6.250   5.990  66.202  1.00  0.00    -0.037 C  
HETATM    2  N   UNL     1      -7.525   6.185  66.881  1.00  0.00    -0.086 NA 
HETATM    3  H   UNL     1      -7.423   6.836  67.659  1.00  0.00     0.000 HD 
ENDROOT
BRANCH   2   4
HETATM    4  C   UNL     1      -8.609   6.612  65.983  1.00  0.00    -0.148 C  
HETATM    5  C   UNL     1      -9.987   6.190  66.508  1.00  0.00    -0.179 C  
BRANCH   4   6
HETATM    6  C   UNL     1      -8.582   8.153  65.824  1.00  0.00    -0.175 C  
BRANCH   6   7
HETATM    7  C   UNL     1      -9.735   8.929  66.515  1.00  0.00    -0.322 C  
HETATM    8  C   UNL     1      -9.385   9.413  67.930  1.00  0.00    -0.142 C  
HETATM    9  C   UNL     1      -8.345  10.532  67.929  1.00  0.00    -0.115 C  
HETATM   10  C   UNL     1      -8.793  11.708  67.066  1.00  0.00    -0.177 C  
HETATM   11  C   UNL     1      -9.177  11.277  65.653  1.00  0.00    -0.231 C  
HETATM   12  C   UNL     1     -10.184  10.129  65.659  1.00  0.00    -0.288 C  
ENDBRANCH   6   7
ENDBRANCH   4   6
ENDBRANCH   2   4
TORSDOF 3
ENDMDL
MODEL      227
REMARK 921   NORMALIZED FREE ENERGY PREDICTED BY IDOCK:   -1.73 KCAL/MOL
REMARK 922        TOTAL FREE ENERGY PREDICTED BY IDOCK:   -2.09 KCAL/MOL
REMARK 923 INTER-LIGAND FREE ENERGY PREDICTED BY IDOCK:   -2.48 KCAL/MOL
REMARK 924 INTRA-LIGAND FREE ENERGY PREDICTED BY IDOCK:    0.38 KCAL/MOL
REMARK 927      BINDING AFFINITY PREDICTED BY RF-SCORE:    0.00 PKD
ROOT
HETATM    1  C   UNL     1      -6.335  11.663  66.913  1.00  0.00    -0.142 C  
HETATM    2  N   UNL     1      -7.713  11.993  66.572  1.00  0.00    -0.385 NA 
HETATM    3  H   UNL     1      -8.233  11.153  66.319  1.00  0.00     0.000 HD 
ENDROOT
BRANCH   2   4
HETATM    4  C   UNL     1      -8.415  12.744  67.624  1.00  0.00    -0.178 C  
HETATM    5  C   UNL     1      -7.549  12.919  68.878  1.00  0.00     0.054 C  
BRANCH   4   6
HETATM    6  C   UNL     1      -8.817  14.143  67.091  1.00  0.00    -0.241 C  
BRANCH   6   7
HETATM    7  C   UNL     1      -9.896  14.163  65.976  1.00  0.00    -0.329 C  
HETATM    8  C   UNL     1     -10.592  12.807  65.775  1.00  0.00    -0.295 C  
HETATM    9  C   UNL     1     -11.500  12.433  66.945  1.00  0.00    -0.423 C  
HETATM   10  C   UNL     1     -12.534  13.521  67.218  1.00  0.00     0.007 C  
HETATM   11  C   UNL     1     -11.895  14.895  67.402  1.00  0.00    -0.245 C  
HETATM   12  C   UNL     1     -10.955  15.247  66.251  1.00  0.00    -0.300 C  
ENDBRANCH   6   7
ENDBRANCH   4   6
ENDBRANCH   2   4
TORSDOF 3
ENDMDL
MODEL      228
REMARK 921   NORMALIZED FREE ENERGY PREDICTED BY IDOCK:   -1.72 KCAL/MOL
REMARK 922        TOTAL FREE ENERGY PREDICTED BY IDOCK:   -2.08 KCAL/MOL
REMARK 923 INTER-LIGAND FREE ENERGY PREDICTED BY IDOCK:   -1.99 KCAL/MOL
REMARK 924 INTRA-LIGAND FREE ENERGY PREDICTED BY IDOCK:   -0.10 KCAL/MOL
REMARK 927      BINDING AFFINITY PREDICTED BY RF-SCORE:    0.00 PKD
ROOT
HETATM    1  C   UNL     1     -11.008  13.014  68.641  1.00  0.00    -0.265 C  
HETATM    2  N   UNL     1     -11.039  11.680  69.228  1.00  0.00    -0.319 NA 
HETATM    3  H   UNL     1     -11.986  11.436  69.519  1.00  0.00     0.000 HD 
ENDROOT
BRANCH   2   4
HETATM    4  C   UNL     1     -10.481  10.640  68.350  1.00  0.00    -0.188 C  
HETATM    5  C   UNL     1     -10.648  10.990  66.867  1.00  0.00    -0.307 C  
BRANCH   4   6
HETATM    6  C   UNL     1      -8.973  10.451  68.655  1.00  0.00    -0.146 C  
BRANCH   6   7
HETATM    7  C   UNL     1      -8.566   9.080  69.258  1.00  0.00    -0.136 C  
HETATM    8  C   UNL     1      -9.617   7.980  69.039  1.00  0.00    -0.156 C  
HETATM    9  C   UNL     1      -9.722   7.548  67.577  1.00  0.00    -0.190 C  
HETATM   10  C   UNL     1      -8.370   7.102  67.030  1.00  0.00    -0.118 C  
HETATM   11  C   UNL     1      -7.282   8.151  67.244  1.00  0.00    -0.084 C  
HETATM   12  C   UNL     1      -7.210   8.611  68.698  1.00  0.00    -0.076 C  
ENDBRANCH   6   7
ENDBRANCH   4   6
ENDBRANCH   2   4
TORSDOF 3
ENDMDL
MODEL      229
REMARK 921   NORMALIZED FREE ENERGY PREDICTED BY IDOCK:   -1.69 KCAL/MOL
REMARK 922        TOTAL FREE ENERGY PREDICTED BY IDOCK:   -2.05 KCAL/MOL
REMARK 923 INTER-LIGAND FREE ENERGY PREDICTED BY IDOCK:   -1.89 KCAL/MOL
REMARK 924 INTRA-LIGAND FREE ENERGY PREDICTED BY IDOCK:   -0.16 KCAL/MOL
REMARK 927      BINDING AFFINITY PREDICTED BY RF-SCORE:    0.00 PKD
ROOT
HETATM    1  C   UNL     1      -7.101   2.668  68.638  1.00  0.00    -0.048 C  
HETATM    2  N   UNL     1      -8.228   3.555  68.376  1.00  0.00    -0.076 NA 
HETATM    3  H   UNL     1      -9.111   3.082  68.564  1.00  0.00     0.000 HD 
ENDROOT
BRANCH   2   4
HETATM    4  C   UNL     1      -8.154   4.830  69.106  1.00  0.00    -0.074 C  
HETATM    5  C   UNL     1      -8.017   6.027  68.156  1.00  0.00    -0.110 C  
BRANCH   4   6
HETATM    6  C   UNL     1      -9.429   5.015  69.967  1.00  0.00    -0.231 C  
BRANCH   6   7
HETATM    7  C   UNL     1      -9.311   6.010  71.152  1.00  0.00    -0.174 C  
HETATM    8  C   UNL     1     -10.470   7.017  71.224  1.00  0.00    -0.224 C  
HETATM    9  C   UNL     1     -11.792   6.364  71.624  1.00  0.00    -0.361 C  
HETATM   10  C   UNL     1     -11.665   5.612  72.945  1.00  0.00    -0.186 C  
HETATM   11  C   UNL     1     -10.511   4.614  72.935  1.00  0.00    -0.254 C  
HETATM   12  C   UNL     1      -9.200   5.261  72.494  1.00  0.00    -0.147 C  
ENDBRANCH   6   7
ENDBRANCH   4   6
ENDBRANCH   2   4
TORSDOF 3
ENDMDL
MODEL      230
REMARK 921   NORMALIZED FREE ENERGY PREDICTED BY IDOCK:   -1.69 KCAL/MOL
REMARK 922        TOTAL FREE ENERGY PREDICTED BY IDOCK:   -2.04 KCAL/MOL
REMARK 923 INTER-LIGAND FREE ENERGY PREDICTED BY IDOCK:   -1.96 KCAL/MOL
REMARK 924 INTRA-LIGAND FREE ENERGY PREDICTED BY IDOCK:   -0.09 KCAL/MOL
REMARK 927      BINDING AFFINITY PREDICTED BY RF-SCORE:    0.00 PKD
ROOT
HETATM    1  C   UNL     1      -7.180   4.830  70.300  1.00  0.00    -0.050 C  
HETATM    2  N   UNL     1      -8.132   4.365  71.300  1.00  0.00    -0.081 NA 
HETATM    3  H   UNL     1      -7.892   4.726  72.222  1.00  0.00     0.000 HD 
ENDROOT
BRANCH   2   4
HETATM    4  C   UNL     1      -9.532   4.675  70.967  1.00  0.00    -0.161 C  
HETATM    5  C   UNL     1     -10.388   4.877  72.224  1.00  0.00    -0.267 C  
BRANCH   4   6
HETATM    6  C   UNL     1      -9.593   5.961  70.105  1.00  0.00    -0.198 C  
BRANCH   6   7
HETATM    7  C   UNL     1     -10.393   7.146  70.707  1.00  0.00    -0.219 C  
HETATM    8  C   UNL     1      -9.557   8.039  71.638  1.00  0.00    -0.218 C  
HETATM    9  C   UNL     1      -8.505   8.851  70.886  1.00  0.00    -0.226 C  
HETATM   10  C   UNL     1      -9.136   9.690  69.778  1.00  0.00    -0.232 C  
HETATM   11  C   UNL     1      -9.999   8.854  68.837  1.00  0.00    -0.199 C  
HETATM   12  C   UNL     1     -11.021   8.011  69.597  1.00  0.00    -0.106 C  
ENDBRANCH   6   7
ENDBRANCH   4   6
ENDBRANCH   2   4
TORSDOF 3
ENDMDL
MODEL      231
REMARK 921   NORMALIZED FREE ENERGY PREDICTED BY IDOCK:   -1.67 KCAL/MOL
REMARK 922        TOTAL FREE ENERGY PREDICTED BY IDOCK:   -2.03 KCAL/MOL
REMARK 923 INTER-LIGAND FREE ENERGY PREDICTED BY IDOCK:   -1.82 KCAL/MOL
REMARK 924 INTRA-LIGAND FREE ENERGY PREDICTED BY IDOCK:   -0.21 KCAL/MOL
REMARK 927      BINDING AFFINITY PREDICTED BY RF-SCORE:    0.00 PKD
ROOT
HETATM    1  C   UNL     1      -6.583   4.706  64.557  1.00  0.00    -0.043 C  
HETATM    2  N   UNL     1      -7.170   5.618  65.530  1.00  0.00    -0.066 NA 
HETATM    3  H   UNL     1      -6.780   6.555  65.427  1.00  0.00     0.000 HD 
ENDROOT
BRANCH   2   4
HETATM    4  C   UNL     1      -8.640   5.659  65.485  1.00  0.00    -0.151 C  
HETATM    5  C   UNL     1      -9.230   4.384  64.870  1.00  0.00    -0.157 C  
BRANCH   4   6
HETATM    6  C   UNL     1      -9.203   5.832  66.919  1.00  0.00    -0.124 C  
BRANCH   6   7
HETATM    7  C   UNL     1     -10.301   6.916  67.092  1.00  0.00    -0.339 C  
HETATM    8  C   UNL     1     -10.734   7.120  68.553  1.00  0.00    -0.191 C  
HETATM    9  C   UNL     1      -9.648   7.779  69.401  1.00  0.00    -0.156 C  
HETATM   10  C   UNL     1      -9.194   9.104  68.796  1.00  0.00    -0.136 C  
HETATM   11  C   UNL     1      -8.775   8.960  67.335  1.00  0.00    -0.128 C  
HETATM   12  C   UNL     1      -9.846   8.263  66.499  1.00  0.00    -0.323 C  
ENDBRANCH   6   7
ENDBRANCH   4   6
ENDBRANCH   2   4
TORSDOF 3
ENDMDL
MODEL      232
REMARK 921   NORMALIZED FREE ENERGY PREDICTED BY IDOCK:   -1.67 KCAL/MOL
REMARK 922        TOTAL FREE ENERGY PREDICTED BY IDOCK:   -2.03 KCAL/MOL
REMARK 923 INTER-LIGAND FREE ENERGY PREDICTED BY IDOCK:   -1.79 KCAL/MOL
REMARK 924 INTRA-LIGAND FREE ENERGY PREDICTED BY IDOCK:   -0.24 KCAL/MOL
REMARK 927      BINDING AFFINITY PREDICTED BY RF-SCORE:    0.00 PKD
ROOT
HETATM    1  C   UNL     1     -10.389   8.215  66.676  1.00  0.00    -0.213 C  
HETATM    2  N   UNL     1     -10.564   7.010  67.477  1.00  0.00    -0.251 NA 
HETATM    3  H   UNL     1     -10.112   6.212  67.030  1.00  0.00     0.000 HD 
ENDROOT
BRANCH   2   4
HETATM    4  C   UNL     1     -10.106   7.157  68.867  1.00  0.00    -0.177 C  
HETATM    5  C   UNL     1     -11.257   6.999  69.869  1.00  0.00    -0.286 C  
BRANCH   4   6
HETATM    6  C   UNL     1      -9.021   6.095  69.177  1.00  0.00    -0.126 C  
BRANCH   6   7
HETATM    7  C   UNL     1      -9.534   4.736  69.721  1.00  0.00    -0.233 C  
HETATM    8  C   UNL     1      -9.414   3.586  68.708  1.00  0.00    -0.208 C  
HETATM    9  C   UNL     1      -7.965   3.179  68.449  1.00  0.00    -0.063 C  
HETATM   10  C   UNL     1      -7.248   2.815  69.746  1.00  0.00    -0.044 C  
HETATM   11  C   UNL     1      -7.357   3.916  70.798  1.00  0.00    -0.041 C  
HETATM   12  C   UNL     1      -8.805   4.350  71.022  1.00  0.00    -0.146 C  
ENDBRANCH   6   7
ENDBRANCH   4   6
ENDBRANCH   2   4
TORSDOF 3
ENDMDL
MODEL      233
REMARK 921   NORMALIZED FREE ENERGY PREDICTED BY IDOCK:   -1.63 KCAL/MOL
REMARK 922        TOTAL FREE ENERGY PREDICTED BY IDOCK:   -1.98 KCAL/MOL
REMARK 923 INTER-LIGAND FREE ENERGY PREDICTED BY IDOCK:   -1.72 KCAL/MOL
REMARK 924 INTRA-LIGAND FREE ENERGY PREDICTED BY IDOCK:   -0.26 KCAL/MOL
REMARK 927      BINDING AFFINITY PREDICTED BY RF-SCORE:    0.00 PKD
ROOT
HETATM    1  C   UNL     1     -10.309   3.798  64.133  1.00  0.00    -0.252 C  
HETATM    2  N   UNL     1      -9.199   4.730  63.979  1.00  0.00    -0.334 NA 
HETATM    3  H   UNL     1      -9.510   5.590  63.528  1.00  0.00     0.000 HD 
ENDROOT
BRANCH   2   4
HETATM    4  C   UNL     1      -8.501   5.026  65.240  1.00  0.00    -0.141 C  
HETATM    5  C   UNL     1      -8.370   6.535  65.481  1.00  0.00    -0.146 C  
BRANCH   4   6
HETATM    6  C   UNL     1      -9.272   4.393  66.427  1.00  0.00    -0.142 C  
BRANCH   6   7
HETATM    7  C   UNL     1      -8.484   3.362  67.277  1.00  0.00    -0.105 C  
HETATM    8  C   UNL     1      -7.258   3.961  67.985  1.00  0.00    -0.059 C  
HETATM    9  C   UNL     1      -7.639   4.920  69.111  1.00  0.00    -0.064 C  
HETATM   10  C   UNL     1      -8.558   4.249  70.127  1.00  0.00    -0.102 C  
HETATM   11  C   UNL     1      -9.782   3.615  69.472  1.00  0.00    -0.114 C  
HETATM   12  C   UNL     1      -9.399   2.690  68.319  1.00  0.00    -0.258 C  
ENDBRANCH   6   7
ENDBRANCH   4   6
ENDBRANCH   2   4
TORSDOF 3
ENDMDL
MODEL      234
REMARK 921   NORMALIZED FREE ENERGY PREDICTED BY IDOCK:   -1.62 KCAL/MOL
REMARK 922        TOTAL FREE ENERGY PREDICTED BY IDOCK:   -1.97 KCAL/MOL
REMARK 923 INTER-LIGAND FREE ENERGY PREDICTED BY IDOCK:   -1.78 KCAL/MOL
REMARK 924 INTRA-LIGAND FREE ENERGY PREDICTED BY IDOCK:   -0.18 KCAL/MOL
REMARK 927      BINDING AFFINITY PREDICTED BY RF-SCORE:    0.00 PKD
ROOT
HETATM    1  C   UNL     1     -10.873   9.774  69.116  1.00  0.00    -0.207 C  
HETATM    2  N   UNL     1     -10.981   8.442  69.700  1.00  0.00    -0.414 NA 
HETATM    3  H   UNL     1     -11.900   8.041  69.517  1.00  0.00     0.000 HD 
ENDROOT
BRANCH   2   4
HETATM    4  C   UNL     1      -9.917   7.523  69.266  1.00  0.00    -0.179 C  
HETATM    5  C   UNL     1      -8.763   8.265  68.580  1.00  0.00    -0.133 C  
BRANCH   4   6
HETATM    6  C   UNL     1      -9.360   6.751  70.490  1.00  0.00    -0.162 C  
BRANCH   6   7
HETATM    7  C   UNL     1      -8.307   5.655  70.180  1.00  0.00    -0.118 C  
HETATM    8  C   UNL     1      -7.060   5.735  71.075  1.00  0.00    -0.068 C  
HETATM    9  C   UNL     1      -7.349   5.350  72.524  1.00  0.00    -0.095 C  
HETATM   10  C   UNL     1      -7.976   3.962  72.617  1.00  0.00    -0.082 C  
HETATM   11  C   UNL     1      -9.208   3.821  71.727  1.00  0.00    -0.179 C  
HETATM   12  C   UNL     1      -8.925   4.248  70.288  1.00  0.00    -0.147 C  
ENDBRANCH   6   7
ENDBRANCH   4   6
ENDBRANCH   2   4
TORSDOF 3
ENDMDL
MODEL      235
REMARK 921   NORMALIZED FREE ENERGY PREDICTED BY IDOCK:   -1.61 KCAL/MOL
REMARK 922        TOTAL FREE ENERGY PREDICTED BY IDOCK:   -1.96 KCAL/MOL
REMARK 923 INTER-LIGAND FREE ENERGY PREDICTED BY IDOCK:   -1.65 KCAL/MOL
REMARK 924 INTRA-LIGAND FREE ENERGY PREDICTED BY IDOCK:   -0.31 KCAL/MOL
REMARK 927      BINDING AFFINITY PREDICTED BY RF-SCORE:    0.00 PKD
ROOT
HETATM    1  C   UNL     1      -8.966   7.626  68.457  1.00  0.00    -0.129 C  
HETATM    2  N   UNL     1      -7.770   6.855  68.775  1.00  0.00    -0.108 NA 
HETATM    3  H   UNL     1      -7.221   7.323  69.496  1.00  0.00     0.000 HD 
ENDROOT
BRANCH   2   4
HETATM    4  C   UNL     1      -8.053   5.463  69.156  1.00  0.00    -0.094 C  
HETATM    5  C   UNL     1      -6.802   4.747  69.681  1.00  0.00    -0.052 C  
BRANCH   4   6
HETATM    6  C   UNL     1      -9.148   5.432  70.253  1.00  0.00    -0.166 C  
BRANCH   6   7
HETATM    7  C   UNL     1      -8.644   5.514  71.719  1.00  0.00    -0.135 C  
HETATM    8  C   UNL     1      -8.812   6.907  72.347  1.00  0.00    -0.139 C  
HETATM    9  C   UNL     1     -10.275   7.264  72.603  1.00  0.00    -0.251 C  
HETATM   10  C   UNL     1     -10.963   6.211  73.466  1.00  0.00    -0.116 C  
HETATM   11  C   UNL     1     -10.805   4.803  72.899  1.00  0.00    -0.306 C  
HETATM   12  C   UNL     1      -9.345   4.466  72.604  1.00  0.00    -0.157 C  
ENDBRANCH   6   7
ENDBRANCH   4   6
ENDBRANCH   2   4
TORSDOF 3
ENDMDL
MODEL      236
REMARK 921   NORMALIZED FREE ENERGY PREDICTED BY IDOCK:   -1.59 KCAL/MOL
REMARK 922        TOTAL FREE ENERGY PREDICTED BY IDOCK:   -1.94 KCAL/MOL
REMARK 923 INTER-LIGAND FREE ENERGY PREDICTED BY IDOCK:   -1.77 KCAL/MOL
REMARK 924 INTRA-LIGAND FREE ENERGY PREDICTED BY IDOCK:   -0.17 KCAL/MOL
REMARK 927      BINDING AFFINITY PREDICTED BY RF-SCORE:    0.00 PKD
ROOT
HETATM    1  C   UNL     1     -12.129   8.497  72.266  1.00  0.00    -0.387 C  
HETATM    2  N   UNL     1     -11.330   8.235  71.075  1.00  0.00    -0.265 NA 
HETATM    3  H   UNL     1     -11.593   8.866  70.319  1.00  0.00     0.000 HD 
ENDROOT
BRANCH   2   4
HETATM    4  C   UNL     1      -9.880   8.289  71.318  1.00  0.00    -0.175 C  
HETATM    5  C   UNL     1      -9.547   8.248  72.814  1.00  0.00    -0.338 C  
BRANCH   4   6
HETATM    6  C   UNL     1      -9.186   7.093  70.616  1.00  0.00    -0.158 C  
BRANCH   6   7
HETATM    7  C   UNL     1      -7.645   7.194  70.464  1.00  0.00    -0.089 C  
HETATM    8  C   UNL     1      -6.913   5.876  70.762  1.00  0.00    -0.063 C  
HETATM    9  C   UNL     1      -7.164   4.810  69.697  1.00  0.00    -0.055 C  
HETATM   10  C   UNL     1      -6.794   5.314  68.306  1.00  0.00    -0.056 C  
HETATM   11  C   UNL     1      -7.478   6.637  67.968  1.00  0.00    -0.098 C  
HETATM   12  C   UNL     1      -7.260   7.686  69.056  1.00  0.00    -0.080 C  
ENDBRANCH   6   7
ENDBRANCH   4   6
ENDBRANCH   2   4
TORSDOF 3
ENDMDL
MODEL      237
REMARK 921   NORMALIZED FREE ENERGY PREDICTED BY IDOCK:   -1.58 KCAL/MOL
REMARK 922        TOTAL FREE ENERGY PREDICTED BY IDOCK:   -1.92 KCAL/MOL
REMARK 923 INTER-LIGAND FREE ENERGY PREDICTED BY IDOCK:   -1.81 KCAL/MOL
REMARK 924 INTRA-LIGAND FREE ENERGY PREDICTED BY IDOCK:   -0.11 KCAL/MOL
REMARK 927      BINDING AFFINITY PREDICTED BY RF-SCORE:    0.00 PKD
ROOT
HETATM    1  C   UNL     1     -11.659   6.638  70.004  1.00  0.00    -0.362 C  
HETATM    2  N   UNL     1     -10.689   5.554  69.914  1.00  0.00    -0.323 NA 
HETATM    3  H   UNL     1      -9.969   5.770  69.225  1.00  0.00     0.000 HD 
ENDROOT
BRANCH   2   4
HETATM    4  C   UNL     1     -10.083   5.199  71.207  1.00  0.00    -0.210 C  
HETATM    5  C   UNL     1     -11.023   5.497  72.381  1.00  0.00    -0.310 C  
BRANCH   4   6
HETATM    6  C   UNL     1      -9.723   3.691  71.221  1.00  0.00    -0.239 C  
BRANCH   6   7
HETATM    7  C   UNL     1      -8.214   3.351  71.101  1.00  0.00    -0.079 C  
HETATM    8  C   UNL     1      -7.291   4.530  71.450  1.00  0.00    -0.059 C  
HETATM    9  C   UNL     1      -7.315   4.876  72.937  1.00  0.00    -0.090 C  
HETATM   10  C   UNL     1      -6.969   3.665  73.797  1.00  0.00    -0.047 C  
HETATM   11  C   UNL     1      -7.842   2.456  73.474  1.00  0.00    -0.047 C  
HETATM   12  C   UNL     1      -7.849   2.139  71.980  1.00  0.00    -0.045 C  
ENDBRANCH   6   7
ENDBRANCH   4   6
ENDBRANCH   2   4
TORSDOF 3
ENDMDL
MODEL      238
REMARK 921   NORMALIZED FREE ENERGY PREDICTED BY IDOCK:   -1.57 KCAL/MOL
REMARK 922        TOTAL FREE ENERGY PREDICTED BY IDOCK:   -1.91 KCAL/MOL
REMARK 923 INTER-LIGAND FREE ENERGY PREDICTED BY IDOCK:   -1.83 KCAL/MOL
REMARK 924 INTRA-LIGAND FREE ENERGY PREDICTED BY IDOCK:   -0.08 KCAL/MOL
REMARK 927      BINDING AFFINITY PREDICTED BY RF-SCORE:    0.00 PKD
ROOT
HETATM    1  C   UNL     1      -7.652   9.323  64.843  1.00  0.00    -0.108 C  
HETATM    2  N   UNL     1      -7.654  10.625  65.497  1.00  0.00    -0.290 NA 
HETATM    3  H   UNL     1      -8.380  11.224  65.106  1.00  0.00     0.000 HD 
ENDROOT
BRANCH   2   4
HETATM    4  C   UNL     1      -7.778  10.547  66.961  1.00  0.00    -0.110 C  
HETATM    5  C   UNL     1      -8.930  11.412  67.486  1.00  0.00    -0.150 C  
BRANCH   4   6
HETATM    6  C   UNL     1      -8.018   9.076  67.389  1.00  0.00    -0.100 C  
BRANCH   6   7
HETATM    7  C   UNL     1      -9.491   8.684  67.679  1.00  0.00    -0.169 C  
HETATM    8  C   UNL     1     -10.029   7.591  66.742  1.00  0.00    -0.307 C  
HETATM    9  C   UNL     1      -9.390   6.228  67.001  1.00  0.00    -0.135 C  
HETATM   10  C   UNL     1      -9.555   5.802  68.456  1.00  0.00    -0.150 C  
HETATM   11  C   UNL     1      -9.057   6.865  69.432  1.00  0.00    -0.141 C  
HETATM   12  C   UNL     1      -9.666   8.236  69.143  1.00  0.00    -0.171 C  
ENDBRANCH   6   7
ENDBRANCH   4   6
ENDBRANCH   2   4
TORSDOF 3
ENDMDL
MODEL      239
REMARK 921   NORMALIZED FREE ENERGY PREDICTED BY IDOCK:   -1.55 KCAL/MOL
REMARK 922        TOTAL FREE ENERGY PREDICTED BY IDOCK:   -1.89 KCAL/MOL
REMARK 923 INTER-LIGAND FREE ENERGY PREDICTED BY IDOCK:   -1.71 KCAL/MOL
REMARK 924 INTRA-LIGAND FREE ENERGY PREDICTED BY IDOCK:   -0.17 KCAL/MOL
REMARK 927      BINDING AFFINITY PREDICTED BY RF-SCORE:    0.00 PKD
ROOT
HETATM    1  C   UNL     1      -9.418   9.703  66.858  1.00  0.00    -0.153 C  
HETATM    2  N   UNL     1      -9.636   9.160  65.524  1.00  0.00    -0.446 NA 
HETATM    3  H   UNL     1      -9.566   9.894  64.819  1.00  0.00     0.000 HD 
ENDROOT
BRANCH   2   4
HETATM    4  C   UNL     1      -8.746   8.036  65.194  1.00  0.00     0.019 C  
HETATM    5  C   UNL     1      -7.294   8.491  65.003  1.00  0.00    -0.086 C  
BRANCH   4   6
HETATM    6  C   UNL     1      -8.797   6.978  66.326  1.00  0.00    -0.164 C  
BRANCH   6   7
HETATM    7  C   UNL     1      -9.328   5.576  65.924  1.00  0.00    -0.140 C  
HETATM    8  C   UNL     1      -8.213   4.557  65.640  1.00  0.00    -0.110 C  
HETATM    9  C   UNL     1      -7.457   4.145  66.902  1.00  0.00    -0.077 C  
HETATM   10  C   UNL     1      -8.406   3.606  67.968  1.00  0.00    -0.101 C  
HETATM   11  C   UNL     1      -9.548   4.571  68.271  1.00  0.00    -0.203 C  
HETATM   12  C   UNL     1     -10.274   5.014  67.002  1.00  0.00    -0.253 C  
ENDBRANCH   6   7
ENDBRANCH   4   6
ENDBRANCH   2   4
TORSDOF 3
ENDMDL
MODEL      240
REMARK 921   NORMALIZED FREE ENERGY PREDICTED BY IDOCK:   -1.55 KCAL/MOL
REMARK 922        TOTAL FREE ENERGY PREDICTED BY IDOCK:   -1.88 KCAL/MOL
REMARK 923 INTER-LIGAND FREE ENERGY PREDICTED BY IDOCK:   -1.66 KCAL/MOL
REMARK 924 INTRA-LIGAND FREE ENERGY PREDICTED BY IDOCK:   -0.23 KCAL/MOL
REMARK 927      BINDING AFFINITY PREDICTED BY RF-SCORE:    0.00 PKD
ROOT
HETATM    1  C   UNL     1      -5.551   5.879  66.009  1.00  0.00    -0.013 C  
HETATM    2  N   UNL     1      -6.128   6.451  67.219  1.00  0.00    -0.024 NA 
HETATM    3  H   UNL     1      -5.914   7.446  67.285  1.00  0.00     0.000 HD 
ENDROOT
BRANCH   2   4
HETATM    4  C   UNL     1      -7.576   6.221  67.344  1.00  0.00    -0.093 C  
HETATM    5  C   UNL     1      -7.886   4.880  68.020  1.00  0.00    -0.083 C  
BRANCH   4   6
HETATM    6  C   UNL     1      -8.218   7.363  68.174  1.00  0.00    -0.124 C  
BRANCH   6   7
HETATM    7  C   UNL     1      -8.960   6.930  69.466  1.00  0.00    -0.143 C  
HETATM    8  C   UNL     1      -8.310   7.463  70.753  1.00  0.00    -0.119 C  
HETATM    9  C   UNL     1      -8.469   8.974  70.910  1.00  0.00    -0.253 C  
HETATM   10  C   UNL     1      -9.937   9.389  70.850  1.00  0.00    -0.353 C  
HETATM   11  C   UNL     1     -10.637   8.863  69.601  1.00  0.00    -0.230 C  
HETATM   12  C   UNL     1     -10.439   7.359  69.424  1.00  0.00    -0.220 C  
ENDBRANCH   6   7
ENDBRANCH   4   6
ENDBRANCH   2   4
TORSDOF 3
ENDMDL
MODEL      241
REMARK 921   NORMALIZED FREE ENERGY PREDICTED BY IDOCK:   -1.53 KCAL/MOL
REMARK 922        TOTAL FREE ENERGY PREDICTED BY IDOCK:   -1.86 KCAL/MOL
REMARK 923 INTER-LIGAND FREE ENERGY PREDICTED BY IDOCK:   -1.64 KCAL/MOL
REMARK 924 INTRA-LIGAND FREE ENERGY PREDICTED BY IDOCK:   -0.21 KCAL/MOL
REMARK 927      BINDING AFFINITY PREDICTED BY RF-SCORE:    0.00 PKD
ROOT
HETATM    1  C   UNL     1      -9.754   6.943  68.885  1.00  0.00    -0.142 C  
HETATM    2  N   UNL     1     -10.183   5.689  68.277  1.00  0.00    -0.173 NA 
HETATM    3  H   UNL     1     -10.341   5.809  67.277  1.00  0.00     0.000 HD 
ENDROOT
BRANCH   2   4
HETATM    4  C   UNL     1      -9.263   4.569  68.528  1.00  0.00    -0.133 C  
HETATM    5  C   UNL     1      -9.467   3.961  69.921  1.00  0.00    -0.267 C  
BRANCH   4   6
HETATM    6  C   UNL     1      -9.477   3.465  67.461  1.00  0.00    -0.227 C  
BRANCH   6   7
HETATM    7  C   UNL     1      -8.269   3.174  66.531  1.00  0.00    -0.090 C  
HETATM    8  C   UNL     1      -8.576   2.142  65.435  1.00  0.00    -0.111 C  
HETATM    9  C   UNL     1      -9.537   2.678  64.375  1.00  0.00    -0.134 C  
HETATM   10  C   UNL     1      -9.016   3.970  63.752  1.00  0.00    -0.125 C  
HETATM   11  C   UNL     1      -8.672   5.022  64.802  1.00  0.00    -0.149 C  
HETATM   12  C   UNL     1      -7.746   4.470  65.883  1.00  0.00    -0.094 C  
ENDBRANCH   6   7
ENDBRANCH   4   6
ENDBRANCH   2   4
TORSDOF 3
ENDMDL
MODEL      242
REMARK 921   NORMALIZED FREE ENERGY PREDICTED BY IDOCK:   -1.52 KCAL/MOL
REMARK 922        TOTAL FREE ENERGY PREDICTED BY IDOCK:   -1.85 KCAL/MOL
REMARK 923 INTER-LIGAND FREE ENERGY PREDICTED BY IDOCK:   -1.68 KCAL/MOL
REMARK 924 INTRA-LIGAND FREE ENERGY PREDICTED BY IDOCK:   -0.18 KCAL/MOL
REMARK 927      BINDING AFFINITY PREDICTED BY RF-SCORE:    0.00 PKD
ROOT
HETATM    1  C   UNL     1     -10.420  10.787  68.584  1.00  0.00    -0.192 C  
HETATM    2  N   UNL     1     -10.599   9.696  67.634  1.00  0.00    -0.262 NA 
HETATM    3  H   UNL     1     -10.583  10.046  66.676  1.00  0.00     0.000 HD 
ENDROOT
BRANCH   2   4
HETATM    4  C   UNL     1      -9.629   8.604  67.804  1.00  0.00    -0.148 C  
HETATM    5  C   UNL     1     -10.164   7.501  68.725  1.00  0.00    -0.206 C  
BRANCH   4   6
HETATM    6  C   UNL     1      -9.287   7.985  66.425  1.00  0.00    -0.259 C  
BRANCH   6   7
HETATM    7  C   UNL     1      -7.787   7.684  66.167  1.00  0.00    -0.096 C  
HETATM    8  C   UNL     1      -7.429   7.592  64.675  1.00  0.00    -0.089 C  
HETATM    9  C   UNL     1      -7.501   8.944  63.967  1.00  0.00    -0.112 C  
HETATM   10  C   UNL     1      -6.620   9.981  64.657  1.00  0.00    -0.128 C  
HETATM   11  C   UNL     1      -6.918  10.095  66.149  1.00  0.00    -0.113 C  
HETATM   12  C   UNL     1      -6.888   8.736  66.844  1.00  0.00    -0.070 C  
ENDBRANCH   6   7
ENDBRANCH   4   6
ENDBRANCH   2   4
TORSDOF 3
ENDMDL
MODEL      243
REMARK 921   NORMALIZED FREE ENERGY PREDICTED BY IDOCK:   -1.51 KCAL/MOL
REMARK 922        TOTAL FREE ENERGY PREDICTED BY IDOCK:   -1.84 KCAL/MOL
REMARK 923 INTER-LIGAND FREE ENERGY PREDICTED BY IDOCK:   -1.67 KCAL/MOL
REMARK 924 INTRA-LIGAND FREE ENERGY PREDICTED BY IDOCK:   -0.17 KCAL/MOL
REMARK 927      BINDING AFFINITY PREDICTED BY RF-SCORE:    0.00 PKD
ROOT
HETATM    1  C   UNL     1     -10.244   9.114  69.335  1.00  0.00    -0.210 C  
HETATM    2  N   UNL     1      -9.767   7.988  70.128  1.00  0.00    -0.175 NA 
HETATM    3  H   UNL     1     -10.493   7.277  70.218  1.00  0.00     0.000 HD 
ENDROOT
BRANCH   2   4
HETATM    4  C   UNL     1      -8.520   7.397  69.619  1.00  0.00    -0.133 C  
HETATM    5  C   UNL     1      -7.637   6.859  70.752  1.00  0.00    -0.091 C  
BRANCH   4   6
HETATM    6  C   UNL     1      -8.849   6.238  68.644  1.00  0.00    -0.119 C  
BRANCH   6   7
HETATM    7  C   UNL     1      -8.825   6.592  67.133  1.00  0.00    -0.110 C  
HETATM    8  C   UNL     1      -7.777   5.800  66.336  1.00  0.00    -0.099 C  
HETATM    9  C   UNL     1      -8.132   4.321  66.203  1.00  0.00    -0.102 C  
HETATM   10  C   UNL     1      -9.515   4.133  65.586  1.00  0.00    -0.177 C  
HETATM   11  C   UNL     1     -10.592   4.919  66.328  1.00  0.00    -0.307 C  
HETATM   12  C   UNL     1     -10.213   6.389  66.497  1.00  0.00    -0.147 C  
ENDBRANCH   6   7
ENDBRANCH   4   6
ENDBRANCH   2   4
TORSDOF 3
ENDMDL
MODEL      244
REMARK 921   NORMALIZED FREE ENERGY PREDICTED BY IDOCK:   -1.50 KCAL/MOL
REMARK 922        TOTAL FREE ENERGY PREDICTED BY IDOCK:   -1.83 KCAL/MOL
REMARK 923 INTER-LIGAND FREE ENERGY PREDICTED BY IDOCK:   -1.61 KCAL/MOL
REMARK 924 INTRA-LIGAND FREE ENERGY PREDICTED BY IDOCK:   -0.21 KCAL/MOL
REMARK 927      BINDING AFFINITY PREDICTED BY RF-SCORE:    0.00 PKD
ROOT
HETATM    1  C   UNL     1      -7.299   8.340  71.675  1.00  0.00    -0.091 C  
HETATM    2  N   UNL     1      -6.633   9.131  70.648  1.00  0.00    -0.062 NA 
HETATM    3  H   UNL     1      -5.627   9.161  70.811  1.00  0.00     0.000 HD 
ENDROOT
BRANCH   2   4
HETATM    4  C   UNL     1      -6.925   8.681  69.278  1.00  0.00    -0.058 C  
HETATM    5  C   UNL     1      -6.426   7.252  69.026  1.00  0.00    -0.036 C  
BRANCH   4   6
HETATM    6  C   UNL     1      -8.453   8.732  69.023  1.00  0.00    -0.130 C  
BRANCH   6   7
HETATM    7  C   UNL     1      -9.085  10.148  68.961  1.00  0.00    -0.176 C  
HETATM    8  C   UNL     1      -8.289  11.136  68.094  1.00  0.00    -0.136 C  
HETATM    9  C   UNL     1      -8.364  10.804  66.605  1.00  0.00    -0.141 C  
HETATM   10  C   UNL     1      -9.809  10.725  66.123  1.00  0.00    -0.269 C  
HETATM   11  C   UNL     1     -10.651   9.772  66.967  1.00  0.00    -0.269 C  
HETATM   12  C   UNL     1     -10.540  10.082  68.459  1.00  0.00    -0.245 C  
ENDBRANCH   6   7
ENDBRANCH   4   6
ENDBRANCH   2   4
TORSDOF 3
ENDMDL
MODEL      245
REMARK 921   NORMALIZED FREE ENERGY PREDICTED BY IDOCK:   -1.49 KCAL/MOL
REMARK 922        TOTAL FREE ENERGY PREDICTED BY IDOCK:   -1.81 KCAL/MOL
REMARK 923 INTER-LIGAND FREE ENERGY PREDICTED BY IDOCK:   -1.60 KCAL/MOL
REMARK 924 INTRA-LIGAND FREE ENERGY PREDICTED BY IDOCK:   -0.22 KCAL/MOL
REMARK 927      BINDING AFFINITY PREDICTED BY RF-SCORE:    0.00 PKD
ROOT
HETATM    1  C   UNL     1      -6.500   3.196  68.005  1.00  0.00    -0.037 C  
HETATM    2  N   UNL     1      -7.448   4.189  67.515  1.00  0.00    -0.068 NA 
HETATM    3  H   UNL     1      -8.395   3.810  67.503  1.00  0.00     0.000 HD 
ENDROOT
BRANCH   2   4
HETATM    4  C   UNL     1      -7.406   5.459  68.258  1.00  0.00    -0.072 C  
HETATM    5  C   UNL     1      -5.989   6.042  68.314  1.00  0.00    -0.020 C  
BRANCH   4   6
HETATM    6  C   UNL     1      -8.348   6.490  67.587  1.00  0.00    -0.121 C  
BRANCH   6   7
HETATM    7  C   UNL     1      -8.004   7.984  67.828  1.00  0.00    -0.127 C  
HETATM    8  C   UNL     1      -8.262   8.877  66.604  1.00  0.00    -0.111 C  
HETATM    9  C   UNL     1      -9.750   9.047  66.304  1.00  0.00    -0.345 C  
HETATM   10  C   UNL     1     -10.506   9.583  67.516  1.00  0.00    -0.336 C  
HETATM   11  C   UNL     1     -10.264   8.744  68.768  1.00  0.00    -0.224 C  
HETATM   12  C   UNL     1      -8.775   8.540  69.040  1.00  0.00    -0.134 C  
ENDBRANCH   6   7
ENDBRANCH   4   6
ENDBRANCH   2   4
TORSDOF 3
ENDMDL
MODEL      246
REMARK 921   NORMALIZED FREE ENERGY PREDICTED BY IDOCK:   -1.48 KCAL/MOL
REMARK 922        TOTAL FREE ENERGY PREDICTED BY IDOCK:   -1.81 KCAL/MOL
REMARK 923 INTER-LIGAND FREE ENERGY PREDICTED BY IDOCK:   -1.71 KCAL/MOL
REMARK 924 INTRA-LIGAND FREE ENERGY PREDICTED BY IDOCK:   -0.09 KCAL/MOL
REMARK 927      BINDING AFFINITY PREDICTED BY RF-SCORE:    0.00 PKD
ROOT
HETATM    1  C   UNL     1      -9.756   4.426  65.069  1.00  0.00    -0.164 C  
HETATM    2  N   UNL     1      -9.124   5.330  66.022  1.00  0.00    -0.149 NA 
HETATM    3  H   UNL     1      -8.491   5.972  65.546  1.00  0.00     0.000 HD 
ENDROOT
BRANCH   2   4
HETATM    4  C   UNL     1     -10.085   6.070  66.856  1.00  0.00    -0.185 C  
HETATM    5  C   UNL     1     -10.405   5.326  68.158  1.00  0.00    -0.181 C  
BRANCH   4   6
HETATM    6  C   UNL     1      -9.511   7.467  67.203  1.00  0.00    -0.194 C  
BRANCH   6   7
HETATM    7  C   UNL     1      -8.698   7.560  68.522  1.00  0.00    -0.128 C  
HETATM    8  C   UNL     1      -7.328   8.235  68.350  1.00  0.00    -0.094 C  
HETATM    9  C   UNL     1      -7.441   9.731  68.063  1.00  0.00    -0.082 C  
HETATM   10  C   UNL     1      -8.249  10.446  69.141  1.00  0.00    -0.157 C  
HETATM   11  C   UNL     1      -9.612   9.799  69.369  1.00  0.00    -0.218 C  
HETATM   12  C   UNL     1      -9.498   8.296  69.613  1.00  0.00    -0.163 C  
ENDBRANCH   6   7
ENDBRANCH   4   6
ENDBRANCH   2   4
TORSDOF 3
ENDMDL
MODEL      247
REMARK 921   NORMALIZED FREE ENERGY PREDICTED BY IDOCK:   -1.47 KCAL/MOL
REMARK 922        TOTAL FREE ENERGY PREDICTED BY IDOCK:   -1.79 KCAL/MOL
REMARK 923 INTER-LIGAND FREE ENERGY PREDICTED BY IDOCK:   -1.58 KCAL/MOL
REMARK 924 INTRA-LIGAND FREE ENERGY PREDICTED BY IDOCK:   -0.21 KCAL/MOL
REMARK 927      BINDING AFFINITY PREDICTED BY RF-SCORE:    0.00 PKD
ROOT
HETATM    1  C   UNL     1      -6.623   9.144  71.235  1.00  0.00    -0.080 C  
HETATM    2  N   UNL     1      -7.147   9.826  70.058  1.00  0.00    -0.100 NA 
HETATM    3  H   UNL     1      -6.389  10.228  69.507  1.00  0.00     0.000 HD 
ENDROOT
BRANCH   2   4
HETATM    4  C   UNL     1      -8.006   8.975  69.220  1.00  0.00    -0.096 C  
HETATM    5  C   UNL     1      -9.482   9.077  69.624  1.00  0.00    -0.174 C  
BRANCH   4   6
HETATM    6  C   UNL     1      -7.863   9.389  67.733  1.00  0.00    -0.095 C  
BRANCH   6   7
HETATM    7  C   UNL     1      -9.052   9.020  66.806  1.00  0.00    -0.178 C  
HETATM    8  C   UNL     1      -9.602  10.215  66.012  1.00  0.00    -0.265 C  
HETATM    9  C   UNL     1      -8.635  10.701  64.934  1.00  0.00    -0.147 C  
HETATM   10  C   UNL     1      -8.245   9.572  63.985  1.00  0.00    -0.160 C  
HETATM   11  C   UNL     1      -7.713   8.349  64.727  1.00  0.00    -0.109 C  
HETATM   12  C   UNL     1      -8.663   7.892  65.832  1.00  0.00    -0.180 C  
ENDBRANCH   6   7
ENDBRANCH   4   6
ENDBRANCH   2   4
TORSDOF 3
ENDMDL
MODEL      248
REMARK 921   NORMALIZED FREE ENERGY PREDICTED BY IDOCK:   -1.46 KCAL/MOL
REMARK 922        TOTAL FREE ENERGY PREDICTED BY IDOCK:   -1.78 KCAL/MOL
REMARK 923 INTER-LIGAND FREE ENERGY PREDICTED BY IDOCK:   -1.62 KCAL/MOL
REMARK 924 INTRA-LIGAND FREE ENERGY PREDICTED BY IDOCK:   -0.16 KCAL/MOL
REMARK 927      BINDING AFFINITY PREDICTED BY RF-SCORE:    0.00 PKD
ROOT
HETATM    1  C   UNL     1      -5.295   5.888  65.535  1.00  0.00    -0.013 C  
HETATM    2  N   UNL     1      -5.821   7.115  66.119  1.00  0.00    -0.034 NA 
HETATM    3  H   UNL     1      -5.286   7.923  65.801  1.00  0.00     0.000 HD 
ENDROOT
BRANCH   2   4
HETATM    4  C   UNL     1      -7.258   7.313  65.875  1.00  0.00    -0.074 C  
HETATM    5  C   UNL     1      -8.030   5.988  65.887  1.00  0.00    -0.111 C  
BRANCH   4   6
HETATM    6  C   UNL     1      -7.850   8.250  66.959  1.00  0.00    -0.096 C  
BRANCH   6   7
HETATM    7  C   UNL     1      -7.691   9.772  66.704  1.00  0.00    -0.102 C  
HETATM    8  C   UNL     1      -7.705  10.148  65.214  1.00  0.00    -0.144 C  
HETATM    9  C   UNL     1      -9.081   9.967  64.575  1.00  0.00    -0.285 C  
HETATM   10  C   UNL     1     -10.152  10.752  65.327  1.00  0.00    -0.353 C  
HETATM   11  C   UNL     1     -10.164  10.433  66.819  1.00  0.00    -0.282 C  
HETATM   12  C   UNL     1      -8.778  10.573  67.445  1.00  0.00    -0.125 C  
ENDBRANCH   6   7
ENDBRANCH   4   6
ENDBRANCH   2   4
TORSDOF 3
ENDMDL
MODEL      249
REMARK 921   NORMALIZED FREE ENERGY PREDICTED BY IDOCK:   -1.43 KCAL/MOL
REMARK 922        TOTAL FREE ENERGY PREDICTED BY IDOCK:   -1.74 KCAL/MOL
REMARK 923 INTER-LIGAND FREE ENERGY PREDICTED BY IDOCK:   -1.56 KCAL/MOL
REMARK 924 INTRA-LIGAND FREE ENERGY PREDICTED BY IDOCK:   -0.18 KCAL/MOL
REMARK 927      BINDING AFFINITY PREDICTED BY RF-SCORE:    0.00 PKD
ROOT
HETATM    1  C   UNL     1      -9.681   8.186  66.962  1.00  0.00    -0.212 C  
HETATM    2  N   UNL     1      -9.990   6.989  66.191  1.00  0.00    -0.415 NA 
HETATM    3  H   UNL     1     -10.254   7.233  65.236  1.00  0.00     0.000 HD 
ENDROOT
BRANCH   2   4
HETATM    4  C   UNL     1      -8.907   5.994  66.192  1.00  0.00    -0.148 C  
HETATM    5  C   UNL     1      -8.774   5.293  67.550  1.00  0.00    -0.106 C  
BRANCH   4   6
HETATM    6  C   UNL     1      -9.174   4.927  65.100  1.00  0.00    -0.128 C  
BRANCH   6   7
HETATM    7  C   UNL     1      -8.124   3.789  64.989  1.00  0.00    -0.093 C  
HETATM    8  C   UNL     1      -8.707   2.391  65.246  1.00  0.00    -0.117 C  
HETATM    9  C   UNL     1      -9.642   1.929  64.129  1.00  0.00    -0.132 C  
HETATM   10  C   UNL     1      -8.949   1.969  62.770  1.00  0.00    -0.080 C  
HETATM   11  C   UNL     1      -8.330   3.333  62.475  1.00  0.00    -0.074 C  
HETATM   12  C   UNL     1      -7.430   3.810  63.613  1.00  0.00    -0.058 C  
ENDBRANCH   6   7
ENDBRANCH   4   6
ENDBRANCH   2   4
TORSDOF 3
ENDMDL
MODEL      250
REMARK 921   NORMALIZED FREE ENERGY PREDICTED BY IDOCK:   -1.42 KCAL/MOL
REMARK 922        TOTAL FREE ENERGY PREDICTED BY IDOCK:   -1.74 KCAL/MOL
REMARK 923 INTER-LIGAND FREE ENERGY PREDICTED BY IDOCK:   -1.45 KCAL/MOL
REMARK 924 INTRA-LIGAND FREE ENERGY PREDICTED BY IDOCK:   -0.29 KCAL/MOL
REMARK 927      BINDING AFFINITY PREDICTED BY RF-SCORE:    0.00 PKD
ROOT
HETATM    1  C   UNL     1      -9.599   8.762  66.975  1.00  0.00    -0.179 C  
HETATM    2  N   UNL     1     -10.025   7.662  66.120  1.00  0.00    -0.440 NA 
HETATM    3  H   UNL     1     -10.201   7.990  65.170  1.00  0.00     0.000 HD 
ENDROOT
BRANCH   2   4
HETATM    4  C   UNL     1      -9.089   6.526  66.112  1.00  0.00    -0.124 C  
HETATM    5  C   UNL     1      -7.988   6.698  65.059  1.00  0.00    -0.124 C  
BRANCH   4   6
HETATM    6  C   UNL     1      -8.431   6.380  67.508  1.00  0.00    -0.116 C  
BRANCH   6   7
HETATM    7  C   UNL     1      -8.806   5.103  68.307  1.00  0.00    -0.107 C  
HETATM    8  C   UNL     1      -8.886   3.839  67.437  1.00  0.00    -0.139 C  
HETATM    9  C   UNL     1      -7.518   3.383  66.935  1.00  0.00    -0.075 C  
HETATM   10  C   UNL     1      -6.544   3.167  68.090  1.00  0.00    -0.037 C  
HETATM   11  C   UNL     1      -6.445   4.388  69.000  1.00  0.00    -0.040 C  
HETATM   12  C   UNL     1      -7.819   4.866  69.465  1.00  0.00    -0.067 C  
ENDBRANCH   6   7
ENDBRANCH   4   6
ENDBRANCH   2   4
TORSDOF 3
ENDMDL
MODEL      251
REMARK 921   NORMALIZED FREE ENERGY PREDICTED BY IDOCK:   -1.41 KCAL/MOL
REMARK 922        TOTAL FREE ENERGY PREDICTED BY IDOCK:   -1.72 KCAL/MOL
REMARK 923 INTER-LIGAND FREE ENERGY PREDICTED BY IDOCK:   -1.87 KCAL/MOL
REMARK 924 INTRA-LIGAND FREE ENERGY PREDICTED BY IDOCK:    0.16 KCAL/MOL
REMARK 927      BINDING AFFINITY PREDICTED BY RF-SCORE:    0.00 PKD
ROOT
HETATM    1  C   UNL     1      -8.045   3.808  71.481  1.00  0.00    -0.069 C  
HETATM    2  N   UNL     1      -9.413   3.902  70.989  1.00  0.00    -0.153 NA 
HETATM    3  H   UNL     1     -10.064   3.476  71.649  1.00  0.00     0.000 HD 
ENDROOT
BRANCH   2   4
HETATM    4  C   UNL     1      -9.827   5.276  70.664  1.00  0.00    -0.198 C  
HETATM    5  C   UNL     1     -10.904   5.793  71.626  1.00  0.00    -0.316 C  
BRANCH   4   6
HETATM    6  C   UNL     1      -8.601   6.222  70.727  1.00  0.00    -0.135 C  
BRANCH   6   7
HETATM    7  C   UNL     1      -8.128   6.813  69.372  1.00  0.00    -0.123 C  
HETATM    8  C   UNL     1      -8.742   6.112  68.151  1.00  0.00    -0.114 C  
HETATM    9  C   UNL     1     -10.235   6.395  67.998  1.00  0.00    -0.195 C  
HETATM   10  C   UNL     1     -10.514   7.894  67.940  1.00  0.00    -0.261 C  
HETATM   11  C   UNL     1      -9.904   8.644  69.121  1.00  0.00    -0.185 C  
HETATM   12  C   UNL     1      -8.421   8.324  69.296  1.00  0.00    -0.126 C  
ENDBRANCH   6   7
ENDBRANCH   4   6
ENDBRANCH   2   4
TORSDOF 3
ENDMDL
MODEL      252
REMARK 921   NORMALIZED FREE ENERGY PREDICTED BY IDOCK:   -1.41 KCAL/MOL
REMARK 922        TOTAL FREE ENERGY PREDICTED BY IDOCK:   -1.72 KCAL/MOL
REMARK 923 INTER-LIGAND FREE ENERGY PREDICTED BY IDOCK:   -1.56 KCAL/MOL
REMARK 924 INTRA-LIGAND FREE ENERGY PREDICTED BY IDOCK:   -0.16 KCAL/MOL
REMARK 927      BINDING AFFINITY PREDICTED BY RF-SCORE:    0.00 PKD
ROOT
HETATM    1  C   UNL     1      -8.985   4.477  69.444  1.00  0.00    -0.095 C  
HETATM    2  N   UNL     1     -10.239   5.036  69.934  1.00  0.00    -0.276 NA 
HETATM    3  H   UNL     1     -10.741   4.353  70.501  1.00  0.00     0.000 HD 
ENDROOT
BRANCH   2   4
HETATM    4  C   UNL     1     -10.071   6.299  70.669  1.00  0.00    -0.189 C  
HETATM    5  C   UNL     1     -10.708   6.239  72.063  1.00  0.00    -0.268 C  
BRANCH   4   6
HETATM    6  C   UNL     1      -8.563   6.623  70.819  1.00  0.00    -0.135 C  
BRANCH   6   7
HETATM    7  C   UNL     1      -8.151   8.092  70.537  1.00  0.00    -0.105 C  
HETATM    8  C   UNL     1      -6.762   8.224  69.892  1.00  0.00    -0.043 C  
HETATM    9  C   UNL     1      -6.730   7.713  68.453  1.00  0.00    -0.061 C  
HETATM   10  C   UNL     1      -7.779   8.408  67.591  1.00  0.00    -0.099 C  
HETATM   11  C   UNL     1      -9.177   8.326  68.199  1.00  0.00    -0.137 C  
HETATM   12  C   UNL     1      -9.195   8.798  69.652  1.00  0.00    -0.150 C  
ENDBRANCH   6   7
ENDBRANCH   4   6
ENDBRANCH   2   4
TORSDOF 3
ENDMDL
MODEL      253
REMARK 921   NORMALIZED FREE ENERGY PREDICTED BY IDOCK:   -1.40 KCAL/MOL
REMARK 922        TOTAL FREE ENERGY PREDICTED BY IDOCK:   -1.71 KCAL/MOL
REMARK 923 INTER-LIGAND FREE ENERGY PREDICTED BY IDOCK:   -1.48 KCAL/MOL
REMARK 924 INTRA-LIGAND FREE ENERGY PREDICTED BY IDOCK:   -0.23 KCAL/MOL
REMARK 927      BINDING AFFINITY PREDICTED BY RF-SCORE:    0.00 PKD
ROOT
HETATM    1  C   UNL     1     -10.528   3.341  63.814  1.00  0.00    -0.235 C  
HETATM    2  N   UNL     1      -9.784   4.578  64.017  1.00  0.00    -0.354 NA 
HETATM    3  H   UNL     1     -10.303   5.375  63.648  1.00  0.00     0.000 HD 
ENDROOT
BRANCH   2   4
HETATM    4  C   UNL     1      -9.400   4.810  65.418  1.00  0.00    -0.156 C  
HETATM    5  C   UNL     1     -10.606   5.183  66.289  1.00  0.00    -0.325 C  
BRANCH   4   6
HETATM    6  C   UNL     1      -8.737   3.535  65.998  1.00  0.00    -0.122 C  
BRANCH   6   7
HETATM    7  C   UNL     1      -7.226   3.647  66.335  1.00  0.00    -0.064 C  
HETATM    8  C   UNL     1      -6.933   4.561  67.535  1.00  0.00    -0.060 C  
HETATM    9  C   UNL     1      -7.404   3.963  68.859  1.00  0.00    -0.054 C  
HETATM   10  C   UNL     1      -6.802   2.580  69.091  1.00  0.00    -0.033 C  
HETATM   11  C   UNL     1      -7.044   1.638  67.915  1.00  0.00    -0.039 C  
HETATM   12  C   UNL     1      -6.612   2.257  66.588  1.00  0.00    -0.038 C  
ENDBRANCH   6   7
ENDBRANCH   4   6
ENDBRANCH   2   4
TORSDOF 3
ENDMDL
MODEL      254
REMARK 921   NORMALIZED FREE ENERGY PREDICTED BY IDOCK:   -1.37 KCAL/MOL
REMARK 922        TOTAL FREE ENERGY PREDICTED BY IDOCK:   -1.67 KCAL/MOL
REMARK 923 INTER-LIGAND FREE ENERGY PREDICTED BY IDOCK:   -1.39 KCAL/MOL
REMARK 924 INTRA-LIGAND FREE ENERGY PREDICTED BY IDOCK:   -0.28 KCAL/MOL
REMARK 927      BINDING AFFINITY PREDICTED BY RF-SCORE:    0.00 PKD
ROOT
HETATM    1  C   UNL     1      -9.272   8.760  67.796  1.00  0.00    -0.134 C  
HETATM    2  N   UNL     1      -9.576   7.496  67.137  1.00  0.00    -0.151 NA 
HETATM    3  H   UNL     1      -9.918   7.656  66.190  1.00  0.00     0.000 HD 
ENDROOT
BRANCH   2   4
HETATM    4  C   UNL     1      -8.448   6.551  67.131  1.00  0.00    -0.112 C  
HETATM    5  C   UNL     1      -7.104   7.262  67.332  1.00  0.00    -0.088 C  
BRANCH   4   6
HETATM    6  C   UNL     1      -8.636   5.502  68.256  1.00  0.00    -0.096 C  
BRANCH   6   7
HETATM    7  C   UNL     1      -8.017   5.863  69.633  1.00  0.00    -0.101 C  
HETATM    8  C   UNL     1      -9.061   6.260  70.688  1.00  0.00    -0.153 C  
HETATM    9  C   UNL     1      -9.917   5.079  71.142  1.00  0.00    -0.276 C  
HETATM   10  C   UNL     1      -9.054   3.931  71.659  1.00  0.00    -0.170 C  
HETATM   11  C   UNL     1      -7.982   3.514  70.656  1.00  0.00    -0.056 C  
HETATM   12  C   UNL     1      -7.157   4.705  70.173  1.00  0.00    -0.049 C  
ENDBRANCH   6   7
ENDBRANCH   4   6
ENDBRANCH   2   4
TORSDOF 3
ENDMDL
MODEL      255
REMARK 921   NORMALIZED FREE ENERGY PREDICTED BY IDOCK:   -1.36 KCAL/MOL
REMARK 922        TOTAL FREE ENERGY PREDICTED BY IDOCK:   -1.67 KCAL/MOL
REMARK 923 INTER-LIGAND FREE ENERGY PREDICTED BY IDOCK:   -1.56 KCAL/MOL
REMARK 924 INTRA-LIGAND FREE ENERGY PREDICTED BY IDOCK:   -0.10 KCAL/MOL
REMARK 927      BINDING AFFINITY PREDICTED BY RF-SCORE:    0.00 PKD
ROOT
HETATM    1  C   UNL     1     -10.767   9.450  67.279  1.00  0.00    -0.188 C  
HETATM    2  N   UNL     1      -9.358   9.423  66.906  1.00  0.00    -0.142 NA 
HETATM    3  H   UNL     1      -9.146  10.168  66.242  1.00  0.00     0.000 HD 
ENDROOT
BRANCH   2   4
HETATM    4  C   UNL     1      -8.445   9.476  68.058  1.00  0.00    -0.119 C  
HETATM    5  C   UNL     1      -8.380  10.880  68.673  1.00  0.00    -0.148 C  
BRANCH   4   6
HETATM    6  C   UNL     1      -8.910   8.473  69.143  1.00  0.00    -0.142 C  
BRANCH   6   7
HETATM    7  C   UNL     1      -8.798   6.970  68.773  1.00  0.00    -0.129 C  
HETATM    8  C   UNL     1      -7.430   6.357  69.110  1.00  0.00    -0.095 C  
HETATM    9  C   UNL     1      -7.198   6.225  70.614  1.00  0.00    -0.074 C  
HETATM   10  C   UNL     1      -8.313   5.424  71.281  1.00  0.00    -0.125 C  
HETATM   11  C   UNL     1      -9.698   5.978  70.958  1.00  0.00    -0.208 C  
HETATM   12  C   UNL     1      -9.909   6.149  69.455  1.00  0.00    -0.193 C  
ENDBRANCH   6   7
ENDBRANCH   4   6
ENDBRANCH   2   4
TORSDOF 3
ENDMDL
MODEL      256
REMARK 921   NORMALIZED FREE ENERGY PREDICTED BY IDOCK:   -1.34 KCAL/MOL
REMARK 922        TOTAL FREE ENERGY PREDICTED BY IDOCK:   -1.64 KCAL/MOL
REMARK 923 INTER-LIGAND FREE ENERGY PREDICTED BY IDOCK:   -1.41 KCAL/MOL
REMARK 924 INTRA-LIGAND FREE ENERGY PREDICTED BY IDOCK:   -0.23 KCAL/MOL
REMARK 927      BINDING AFFINITY PREDICTED BY RF-SCORE:    0.00 PKD
ROOT
HETATM    1  C   UNL     1     -10.489   9.147  69.292  1.00  0.00    -0.221 C  
HETATM    2  N   UNL     1     -10.301   7.923  70.061  1.00  0.00    -0.216 NA 
HETATM    3  H   UNL     1     -11.140   7.345  70.029  1.00  0.00     0.000 HD 
ENDROOT
BRANCH   2   4
HETATM    4  C   UNL     1      -9.119   7.148  69.653  1.00  0.00    -0.140 C  
HETATM    5  C   UNL     1      -9.399   5.640  69.641  1.00  0.00    -0.171 C  
BRANCH   4   6
HETATM    6  C   UNL     1      -8.667   7.587  68.237  1.00  0.00    -0.123 C  
BRANCH   6   7
HETATM    7  C   UNL     1      -8.180   6.453  67.296  1.00  0.00    -0.113 C  
HETATM    8  C   UNL     1      -8.712   6.578  65.860  1.00  0.00    -0.149 C  
HETATM    9  C   UNL     1      -8.101   7.758  65.107  1.00  0.00    -0.137 C  
HETATM   10  C   UNL     1      -6.577   7.685  65.099  1.00  0.00    -0.044 C  
HETATM   11  C   UNL     1      -5.997   7.536  66.503  1.00  0.00    -0.040 C  
HETATM   12  C   UNL     1      -6.641   6.382  67.268  1.00  0.00    -0.058 C  
ENDBRANCH   6   7
ENDBRANCH   4   6
ENDBRANCH   2   4
TORSDOF 3
ENDMDL
MODEL      257
REMARK 921   NORMALIZED FREE ENERGY PREDICTED BY IDOCK:   -1.28 KCAL/MOL
REMARK 922        TOTAL FREE ENERGY PREDICTED BY IDOCK:   -1.57 KCAL/MOL
REMARK 923 INTER-LIGAND FREE ENERGY PREDICTED BY IDOCK:   -1.76 KCAL/MOL
REMARK 924 INTRA-LIGAND FREE ENERGY PREDICTED BY IDOCK:    0.19 KCAL/MOL
REMARK 927      BINDING AFFINITY PREDICTED BY RF-SCORE:    0.00 PKD
ROOT
HETATM    1  C   UNL     1      -8.796   8.354  70.403  1.00  0.00    -0.146 C  
HETATM    2  N   UNL     1      -9.247   7.187  71.152  1.00  0.00    -0.157 NA 
HETATM    3  H   UNL     1      -9.752   7.471  71.991  1.00  0.00     0.000 HD 
ENDROOT
BRANCH   2   4
HETATM    4  C   UNL     1     -10.050   6.250  70.352  1.00  0.00    -0.185 C  
HETATM    5  C   UNL     1     -11.539   6.617  70.364  1.00  0.00    -0.457 C  
BRANCH   4   6
HETATM    6  C   UNL     1      -9.546   6.245  68.886  1.00  0.00    -0.135 C  
BRANCH   6   7
HETATM    7  C   UNL     1      -9.199   4.854  68.291  1.00  0.00    -0.154 C  
HETATM    8  C   UNL     1      -7.740   4.735  67.824  1.00  0.00    -0.083 C  
HETATM    9  C   UNL     1      -6.749   4.722  68.986  1.00  0.00    -0.049 C  
HETATM   10  C   UNL     1      -7.075   3.616  69.985  1.00  0.00    -0.041 C  
HETATM   11  C   UNL     1      -8.523   3.674  70.464  1.00  0.00    -0.102 C  
HETATM   12  C   UNL     1      -9.508   3.730  69.298  1.00  0.00    -0.252 C  
ENDBRANCH   6   7
ENDBRANCH   4   6
ENDBRANCH   2   4
TORSDOF 3
ENDMDL
MODEL      258
REMARK 921   NORMALIZED FREE ENERGY PREDICTED BY IDOCK:   -1.25 KCAL/MOL
REMARK 922        TOTAL FREE ENERGY PREDICTED BY IDOCK:   -1.54 KCAL/MOL
REMARK 923 INTER-LIGAND FREE ENERGY PREDICTED BY IDOCK:   -1.38 KCAL/MOL
REMARK 924 INTRA-LIGAND FREE ENERGY PREDICTED BY IDOCK:   -0.16 KCAL/MOL
REMARK 927      BINDING AFFINITY PREDICTED BY RF-SCORE:    0.00 PKD
ROOT
HETATM    1  C   UNL     1     -10.393   8.215  66.668  1.00  0.00    -0.213 C  
HETATM    2  N   UNL     1     -10.583   7.014  67.472  1.00  0.00    -0.251 NA 
HETATM    3  H   UNL     1     -10.143   6.209  67.028  1.00  0.00     0.000 HD 
ENDROOT
BRANCH   2   4
HETATM    4  C   UNL     1     -10.123   7.159  68.862  1.00  0.00    -0.177 C  
HETATM    5  C   UNL     1     -11.278   7.041  69.863  1.00  0.00    -0.286 C  
BRANCH   4   6
HETATM    6  C   UNL     1      -9.067   6.070  69.180  1.00  0.00    -0.124 C  
BRANCH   6   7
HETATM    7  C   UNL     1      -7.593   6.550  69.251  1.00  0.00    -0.100 C  
HETATM    8  C   UNL     1      -7.026   6.578  70.679  1.00  0.00    -0.064 C  
HETATM    9  C   UNL     1      -6.822   5.179  71.258  1.00  0.00    -0.047 C  
HETATM   10  C   UNL     1      -5.936   4.325  70.355  1.00  0.00    -0.017 C  
HETATM   11  C   UNL     1      -6.443   4.284  68.916  1.00  0.00    -0.040 C  
HETATM   12  C   UNL     1      -6.686   5.684  68.356  1.00  0.00    -0.057 C  
ENDBRANCH   6   7
ENDBRANCH   4   6
ENDBRANCH   2   4
TORSDOF 3
ENDMDL
MODEL      259
REMARK 921   NORMALIZED FREE ENERGY PREDICTED BY IDOCK:   -1.17 KCAL/MOL
REMARK 922        TOTAL FREE ENERGY PREDICTED BY IDOCK:   -1.44 KCAL/MOL
REMARK 923 INTER-LIGAND FREE ENERGY PREDICTED BY IDOCK:   -1.35 KCAL/MOL
REMARK 924 INTRA-LIGAND FREE ENERGY PREDICTED BY IDOCK:   -0.10 KCAL/MOL
REMARK 927      BINDING AFFINITY PREDICTED BY RF-SCORE:    0.00 PKD
ROOT
HETATM    1  C   UNL     1      -9.549   8.199  67.145  1.00  0.00    -0.174 C  
HETATM    2  N   UNL     1      -9.852   6.938  66.480  1.00  0.00    -0.350 NA 
HETATM    3  H   UNL     1     -10.182   7.103  65.529  1.00  0.00     0.000 HD 
ENDROOT
BRANCH   2   4
HETATM    4  C   UNL     1      -8.729   5.988  66.484  1.00  0.00    -0.128 C  
HETATM    5  C   UNL     1      -7.385   6.689  66.715  1.00  0.00    -0.078 C  
BRANCH   4   6
HETATM    6  C   UNL     1      -8.942   4.929  67.596  1.00  0.00    -0.116 C  
BRANCH   6   7
HETATM    7  C   UNL     1      -7.772   3.934  67.821  1.00  0.00    -0.071 C  
HETATM    8  C   UNL     1      -6.982   4.202  69.111  1.00  0.00    -0.047 C  
HETATM    9  C   UNL     1      -7.783   3.878  70.371  1.00  0.00    -0.048 C  
HETATM   10  C   UNL     1      -8.292   2.440  70.353  1.00  0.00    -0.076 C  
HETATM   11  C   UNL     1      -9.066   2.114  69.079  1.00  0.00    -0.183 C  
HETATM   12  C   UNL     1      -8.278   2.479  67.823  1.00  0.00    -0.077 C  
ENDBRANCH   6   7
ENDBRANCH   4   6
ENDBRANCH   2   4
TORSDOF 3
ENDMDL
MODEL      260
REMARK 921   NORMALIZED FREE ENERGY PREDICTED BY IDOCK:   -1.12 KCAL/MOL
REMARK 922        TOTAL FREE ENERGY PREDICTED BY IDOCK:   -1.38 KCAL/MOL
REMARK 923 INTER-LIGAND FREE ENERGY PREDICTED BY IDOCK:   -1.18 KCAL/MOL
REMARK 924 INTRA-LIGAND FREE ENERGY PREDICTED BY IDOCK:   -0.20 KCAL/MOL
REMARK 927      BINDING AFFINITY PREDICTED BY RF-SCORE:    0.00 PKD
ROOT
HETATM    1  C   UNL     1      -9.111   4.922  67.707  1.00  0.00    -0.116 C  
HETATM    2  N   UNL     1      -9.063   5.628  68.981  1.00  0.00    -0.111 NA 
HETATM    3  H   UNL     1      -8.986   4.969  69.755  1.00  0.00     0.000 HD 
ENDROOT
BRANCH   2   4
HETATM    4  C   UNL     1      -7.999   6.642  69.051  1.00  0.00    -0.112 C  
HETATM    5  C   UNL     1      -6.657   6.099  68.547  1.00  0.00    -0.059 C  
BRANCH   4   6
HETATM    6  C   UNL     1      -8.394   7.876  68.200  1.00  0.00    -0.124 C  
BRANCH   6   7
HETATM    7  C   UNL     1      -7.224   8.785  67.737  1.00  0.00    -0.084 C  
HETATM    8  C   UNL     1      -7.110   8.905  66.210  1.00  0.00    -0.083 C  
HETATM    9  C   UNL     1      -8.258   9.705  65.595  1.00  0.00    -0.121 C  
HETATM   10  C   UNL     1      -8.373  11.089  66.226  1.00  0.00    -0.166 C  
HETATM   11  C   UNL     1      -8.465  11.027  67.748  1.00  0.00    -0.122 C  
HETATM   12  C   UNL     1      -7.340  10.191  68.355  1.00  0.00    -0.081 C  
ENDBRANCH   6   7
ENDBRANCH   4   6
ENDBRANCH   2   4
TORSDOF 3
ENDMDL
MODEL      261
REMARK 921   NORMALIZED FREE ENERGY PREDICTED BY IDOCK:   -1.04 KCAL/MOL
REMARK 922        TOTAL FREE ENERGY PREDICTED BY IDOCK:   -1.29 KCAL/MOL
REMARK 923 INTER-LIGAND FREE ENERGY PREDICTED BY IDOCK:   -1.25 KCAL/MOL
REMARK 924 INTRA-LIGAND FREE ENERGY PREDICTED BY IDOCK:   -0.04 KCAL/MOL
REMARK 927      BINDING AFFINITY PREDICTED BY RF-SCORE:    0.00 PKD
ROOT
HETATM    1  C   UNL     1     -10.518   9.146  69.289  1.00  0.00    -0.221 C  
HETATM    2  N   UNL     1     -10.423   7.935  70.094  1.00  0.00    -0.226 NA 
HETATM    3  H   UNL     1     -11.279   7.385  70.020  1.00  0.00     0.000 HD 
ENDROOT
BRANCH   2   4
HETATM    4  C   UNL     1      -9.246   7.111  69.778  1.00  0.00    -0.143 C  
HETATM    5  C   UNL     1      -8.313   7.804  68.778  1.00  0.00    -0.128 C  
BRANCH   4   6
HETATM    6  C   UNL     1      -8.455   6.807  71.076  1.00  0.00    -0.132 C  
BRANCH   6   7
HETATM    7  C   UNL     1      -7.323   7.807  71.433  1.00  0.00    -0.067 C  
HETATM    8  C   UNL     1      -7.310   8.213  72.915  1.00  0.00    -0.154 C  
HETATM    9  C   UNL     1      -6.883   7.070  73.834  1.00  0.00    -0.077 C  
HETATM   10  C   UNL     1      -5.524   6.508  73.430  1.00  0.00    -0.042 C  
HETATM   11  C   UNL     1      -5.476   6.110  71.957  1.00  0.00    -0.027 C  
HETATM   12  C   UNL     1      -5.944   7.241  71.044  1.00  0.00    -0.035 C  
ENDBRANCH   6   7
ENDBRANCH   4   6
ENDBRANCH   2   4
TORSDOF 3
ENDMDL
MODEL      262
REMARK 921   NORMALIZED FREE ENERGY PREDICTED BY IDOCK:   -1.04 KCAL/MOL
REMARK 922        TOTAL FREE ENERGY PREDICTED BY IDOCK:   -1.29 KCAL/MOL
REMARK 923 INTER-LIGAND FREE ENERGY PREDICTED BY IDOCK:   -1.14 KCAL/MOL
REMARK 924 INTRA-LIGAND FREE ENERGY PREDICTED BY IDOCK:   -0.14 KCAL/MOL
REMARK 927      BINDING AFFINITY PREDICTED BY RF-SCORE:    0.00 PKD
ROOT
HETATM    1  C   UNL     1      -9.933   8.818  68.926  1.00  0.00    -0.192 C  
HETATM    2  N   UNL     1      -9.350   7.753  69.732  1.00  0.00    -0.153 NA 
HETATM    3  H   UNL     1     -10.031   7.012  69.899  1.00  0.00     0.000 HD 
ENDROOT
BRANCH   2   4
HETATM    4  C   UNL     1      -8.109   7.200  69.167  1.00  0.00    -0.121 C  
HETATM    5  C   UNL     1      -7.015   7.045  70.230  1.00  0.00    -0.065 C  
BRANCH   4   6
HETATM    6  C   UNL     1      -8.393   5.815  68.532  1.00  0.00    -0.107 C  
BRANCH   6   7
HETATM    7  C   UNL     1      -7.347   4.706  68.822  1.00  0.00    -0.060 C  
HETATM    8  C   UNL     1      -7.839   3.650  69.825  1.00  0.00    -0.052 C  
HETATM    9  C   UNL     1      -8.939   2.760  69.251  1.00  0.00    -0.171 C  
HETATM   10  C   UNL     1      -8.495   2.090  67.955  1.00  0.00    -0.090 C  
HETATM   11  C   UNL     1      -7.974   3.095  66.931  1.00  0.00    -0.079 C  
HETATM   12  C   UNL     1      -6.904   4.010  67.522  1.00  0.00    -0.051 C  
ENDBRANCH   6   7
ENDBRANCH   4   6
ENDBRANCH   2   4
TORSDOF 3
ENDMDL
MODEL      263
REMARK 921   NORMALIZED FREE ENERGY PREDICTED BY IDOCK:   -0.92 KCAL/MOL
REMARK 922        TOTAL FREE ENERGY PREDICTED BY IDOCK:   -1.14 KCAL/MOL
REMARK 923 INTER-LIGAND FREE ENERGY PREDICTED BY IDOCK:   -1.57 KCAL/MOL
REMARK 924 INTRA-LIGAND FREE ENERGY PREDICTED BY IDOCK:    0.43 KCAL/MOL
REMARK 927      BINDING AFFINITY PREDICTED BY RF-SCORE:    0.00 PKD
ROOT
HETATM    1  C   UNL     1      -9.974   8.295  66.690  1.00  0.00    -0.278 C  
HETATM    2  N   UNL     1     -10.534   9.082  67.781  1.00  0.00    -0.286 NA 
HETATM    3  H   UNL     1     -10.593   8.526  68.634  1.00  0.00     0.000 HD 
ENDROOT
BRANCH   2   4
HETATM    4  C   UNL     1      -9.812  10.340  68.029  1.00  0.00    -0.150 C  
HETATM    5  C   UNL     1     -10.766  11.533  68.159  1.00  0.00    -0.242 C  
BRANCH   4   6
HETATM    6  C   UNL     1      -8.979  10.218  69.331  1.00  0.00    -0.190 C  
BRANCH   6   7
HETATM    7  C   UNL     1      -7.451  10.446  69.184  1.00  0.00    -0.112 C  
HETATM    8  C   UNL     1      -6.604   9.467  70.014  1.00  0.00    -0.065 C  
HETATM    9  C   UNL     1      -6.660   8.038  69.477  1.00  0.00    -0.038 C  
HETATM   10  C   UNL     1      -6.248   7.978  68.009  1.00  0.00    -0.047 C  
HETATM   11  C   UNL     1      -7.043   8.951  67.142  1.00  0.00    -0.082 C  
HETATM   12  C   UNL     1      -7.020  10.370  67.707  1.00  0.00    -0.083 C  
ENDBRANCH   6   7
ENDBRANCH   4   6
ENDBRANCH   2   4
TORSDOF 3
ENDMDL
MODEL      264
REMARK 921   NORMALIZED FREE ENERGY PREDICTED BY IDOCK:   -0.54 KCAL/MOL
REMARK 922        TOTAL FREE ENERGY PREDICTED BY IDOCK:   -0.70 KCAL/MOL
REMARK 923 INTER-LIGAND FREE ENERGY PREDICTED BY IDOCK:   -1.20 KCAL/MOL
REMARK 924 INTRA-LIGAND FREE ENERGY PREDICTED BY IDOCK:    0.51 KCAL/MOL
REMARK 927      BINDING AFFINITY PREDICTED BY RF-SCORE:    0.00 PKD
ROOT
HETATM    1  C   UNL     1     -11.675  14.314  68.749  1.00  0.00    -0.343 C  
HETATM    2  N   UNL     1     -10.532  14.526  67.870  1.00  0.00    -0.240 NA 
HETATM    3  H   UNL     1     -10.031  15.376  68.129  1.00  0.00     0.000 HD 
ENDROOT
BRANCH   2   4
HETATM    4  C   UNL     1      -9.614  13.378  67.813  1.00  0.00    -0.213 C  
HETATM    5  C   UNL     1     -10.077  12.324  66.799  1.00  0.00    -0.224 C  
BRANCH   4   6
HETATM    6  C   UNL     1      -8.194  13.861  67.423  1.00  0.00    -0.198 C  
BRANCH   6   7
HETATM    7  C   UNL     1      -8.058  15.369  67.081  1.00  0.00    -0.249 C  
HETATM    8  C   UNL     1      -8.445  16.297  68.243  1.00  0.00    -0.187 C  
HETATM    9  C   UNL     1      -7.442  16.248  69.394  1.00  0.00    -0.152 C  
HETATM   10  C   UNL     1      -6.028  16.564  68.916  1.00  0.00    -0.143 C  
HETATM   11  C   UNL     1      -5.602  15.684  67.744  1.00  0.00    -0.149 C  
HETATM   12  C   UNL     1      -6.629  15.703  66.613  1.00  0.00     0.894 C  
ENDBRANCH   6   7
ENDBRANCH   4   6
ENDBRANCH   2   4
TORSDOF 3
ENDMDL
MODEL      265
REMARK 921   NORMALIZED FREE ENERGY PREDICTED BY IDOCK:   -0.46 KCAL/MOL
REMARK 922        TOTAL FREE ENERGY PREDICTED BY IDOCK:   -0.60 KCAL/MOL
REMARK 923 INTER-LIGAND FREE ENERGY PREDICTED BY IDOCK:   -2.92 KCAL/MOL
REMARK 924 INTRA-LIGAND FREE ENERGY PREDICTED BY IDOCK:    2.31 KCAL/MOL
REMARK 927      BINDING AFFINITY PREDICTED BY RF-SCORE:    0.00 PKD
ROOT
HETATM    1  C   UNL     1      -9.726  20.368  67.874  1.00  0.00    -0.286 C  
HETATM    2  N   UNL     1      -9.043  19.326  68.630  1.00  0.00    -0.373 NA 
HETATM    3  H   UNL     1      -9.269  19.393  69.622  1.00  0.00     0.000 HD 
ENDROOT
BRANCH   2   4
HETATM    4  C   UNL     1      -9.304  17.968  68.128  1.00  0.00    -0.284 C  
HETATM    5  C   UNL     1     -10.668  17.866  67.435  1.00  0.00    -0.306 C  
BRANCH   4   6
HETATM    6  C   UNL     1      -8.198  17.560  67.121  1.00  0.00    -0.229 C  
BRANCH   6   7
HETATM    7  C   UNL     1      -7.961  16.035  66.952  1.00  0.00    -0.283 C  
HETATM    8  C   UNL     1      -7.491  15.342  68.240  1.00  0.00    -0.112 C  
HETATM    9  C   UNL     1      -8.586  15.272  69.303  1.00  0.00    -0.236 C  
HETATM   10  C   UNL     1      -9.841  14.591  68.767  1.00  0.00    -0.220 C  
HETATM   11  C   UNL     1     -10.337  15.228  67.471  1.00  0.00    -0.244 C  
HETATM   12  C   UNL     1      -9.229  15.335  66.426  1.00  0.00    -0.342 C  
ENDBRANCH   6   7
ENDBRANCH   4   6
ENDBRANCH   2   4
TORSDOF 3
ENDMDL
MODEL      266
REMARK 921   NORMALIZED FREE ENERGY PREDICTED BY IDOCK:    0.10 KCAL/MOL
REMARK 922        TOTAL FREE ENERGY PREDICTED BY IDOCK:    0.06 KCAL/MOL
REMARK 923 INTER-LIGAND FREE ENERGY PREDICTED BY IDOCK:   -0.81 KCAL/MOL
REMARK 924 INTRA-LIGAND FREE ENERGY PREDICTED BY IDOCK:    0.87 KCAL/MOL
REMARK 927      BINDING AFFINITY PREDICTED BY RF-SCORE:    0.00 PKD
ROOT
HETATM    1  C   UNL     1      -5.846   5.177  67.137  1.00  0.00    -0.025 C  
HETATM    2  N   UNL     1      -5.279   6.414  66.616  1.00  0.00    -0.012 NA 
HETATM    3  H   UNL     1      -5.042   6.314  65.629  1.00  0.00     0.000 HD 
ENDROOT
BRANCH   2   4
HETATM    4  C   UNL     1      -6.137   7.590  66.828  1.00  0.00    -0.044 C  
HETATM    5  C   UNL     1      -6.239   8.460  65.570  1.00  0.00    -0.045 C  
BRANCH   4   6
HETATM    6  C   UNL     1      -7.560   7.133  67.241  1.00  0.00    -0.104 C  
BRANCH   6   7
HETATM    7  C   UNL     1      -8.440   6.542  66.107  1.00  0.00    -0.137 C  
HETATM    8  C   UNL     1      -8.575   5.013  66.172  1.00  0.00    -0.118 C  
HETATM    9  C   UNL     1      -9.414   4.546  67.359  1.00  0.00    -0.189 C  
HETATM   10  C   UNL     1     -10.794   5.197  67.357  1.00  0.00     0.189 C  
HETATM   11  C   UNL     1     -10.717   6.719  67.270  1.00  0.00    -0.423 C  
HETATM   12  C   UNL     1      -9.842   7.181  66.106  1.00  0.00     0.100 C  
ENDBRANCH   6   7
ENDBRANCH   4   6
ENDBRANCH   2   4
TORSDOF 3
ENDMDL
MODEL      267
REMARK 921   NORMALIZED FREE ENERGY PREDICTED BY IDOCK:    1.51 KCAL/MOL
REMARK 922        TOTAL FREE ENERGY PREDICTED BY IDOCK:    1.71 KCAL/MOL
REMARK 923 INTER-LIGAND FREE ENERGY PREDICTED BY IDOCK:    1.92 KCAL/MOL
REMARK 924 INTRA-LIGAND FREE ENERGY PREDICTED BY IDOCK:   -0.21 KCAL/MOL
REMARK 927      BINDING AFFINITY PREDICTED BY RF-SCORE:    0.00 PKD
ROOT
HETATM    1  C   UNL     1      -9.726  20.368  67.874  1.00  0.00    -0.286 C  
HETATM    2  N   UNL     1      -9.043  19.326  68.630  1.00  0.00    -0.373 NA 
HETATM    3  H   UNL     1      -9.269  19.393  69.622  1.00  0.00     0.000 HD 
ENDROOT
BRANCH   2   4
HETATM    4  C   UNL     1      -9.304  17.968  68.128  1.00  0.00    -0.284 C  
HETATM    5  C   UNL     1     -10.668  17.866  67.435  1.00  0.00    -0.306 C  
BRANCH   4   6
HETATM    6  C   UNL     1      -8.198  17.560  67.121  1.00  0.00    -0.229 C  
BRANCH   6   7
HETATM    7  C   UNL     1      -7.961  16.035  66.952  1.00  0.00    -0.283 C  
HETATM    8  C   UNL     1      -6.802  15.698  66.000  1.00  0.00     3.176 C  
HETATM    9  C   UNL     1      -5.438  16.062  66.582  1.00  0.00     0.857 C  
HETATM   10  C   UNL     1      -5.216  15.400  67.939  1.00  0.00    -0.124 C  
HETATM   11  C   UNL     1      -6.353  15.684  68.916  1.00  0.00    -0.114 C  
HETATM   12  C   UNL     1      -7.718  15.359  68.314  1.00  0.00    -0.115 C  
ENDBRANCH   6   7
ENDBRANCH   4   6
ENDBRANCH   2   4
TORSDOF 3
ENDMDL
