MODEL        1
REMARK 921   NORMALIZED FREE ENERGY PREDICTED BY IDOCK:   -4.60 KCAL/MOL
REMARK 922        TOTAL FREE ENERGY PREDICTED BY IDOCK:   -5.27 KCAL/MOL
REMARK 923 INTER-LIGAND FREE ENERGY PREDICTED BY IDOCK:   -5.14 KCAL/MOL
REMARK 924 INTRA-LIGAND FREE ENERGY PREDICTED BY IDOCK:   -0.13 KCAL/MOL
REMARK 927      BINDING AFFINITY PREDICTED BY RF-SCORE:    0.00 PKD
ROOT
HETATM    1  C   UNL     1     -12.389  15.421  74.120  1.00  0.00    -0.800 C  
HETATM    2  C   UNL     1     -13.312  15.924  73.021  1.00  0.00    -0.663 C  
ENDROOT
BRANCH   2   3
HETATM    3  C   UNL     1     -14.154  14.789  72.430  1.00  0.00    -0.548 C  
BRANCH   3   4
HETATM    4  C   UNL     1     -13.324  13.799  71.650  1.00  0.00    -0.354 C  
HETATM    5  C   UNL     1     -12.484  14.164  70.671  1.00  0.00    -0.432 C  
HETATM    6  C   UNL     1     -11.710  13.132  69.952  1.00  0.00    -0.257 C  
HETATM    7  N   UNL     1     -11.909  11.842  70.361  1.00  0.00    -0.509 N  
HETATM    8  O   UNL     1     -10.941  13.435  69.047  1.00  0.00    -0.258 OA 
HETATM    9  C   UNL     1     -12.768  11.466  71.350  1.00  0.00    -0.384 C  
HETATM   10  H   UNL     1     -11.376  11.109  69.892  1.00  0.00     0.000 HD 
HETATM   11  S   UNL     1     -12.961   9.877  71.793  1.00  0.00    -0.469 S  
HETATM   12  N   UNL     1     -13.465  12.468  71.965  1.00  0.00    -0.468 NA 
ENDBRANCH   3   4
ENDBRANCH   2   3
TORSDOF 2
ENDMDL
MODEL        2
REMARK 921   NORMALIZED FREE ENERGY PREDICTED BY IDOCK:   -4.56 KCAL/MOL
REMARK 922        TOTAL FREE ENERGY PREDICTED BY IDOCK:   -5.22 KCAL/MOL
REMARK 923 INTER-LIGAND FREE ENERGY PREDICTED BY IDOCK:   -5.11 KCAL/MOL
REMARK 924 INTRA-LIGAND FREE ENERGY PREDICTED BY IDOCK:   -0.11 KCAL/MOL
REMARK 927      BINDING AFFINITY PREDICTED BY RF-SCORE:    0.00 PKD
ROOT
HETATM    1  C   UNL     1     -11.856  14.979  69.979  1.00  0.00    -0.360 C  
HETATM    2  C   UNL     1     -11.957  13.900  68.912  1.00  0.00    -0.393 C  
ENDROOT
BRANCH   2   3
HETATM    3  C   UNL     1     -10.740  13.914  67.981  1.00  0.00    -0.255 C  
BRANCH   3   4
HETATM    4  C   UNL     1     -11.109  14.227  66.552  1.00  0.00    -0.323 C  
HETATM    5  C   UNL     1     -11.002  15.454  66.024  1.00  0.00    -0.286 C  
HETATM    6  C   UNL     1     -11.390  15.679  64.616  1.00  0.00    -0.349 C  
HETATM    7  N   UNL     1     -11.832  14.579  63.935  1.00  0.00    -0.765 N  
HETATM    8  O   UNL     1     -11.311  16.792  64.109  1.00  0.00    -1.194 OA 
HETATM    9  C   UNL     1     -11.950  13.330  64.471  1.00  0.00    -0.400 C  
HETATM   10  H   UNL     1     -12.093  14.700  62.957  1.00  0.00     0.000 HD 
HETATM   11  S   UNL     1     -12.499  12.038  63.582  1.00  0.00    -0.450 S  
HETATM   12  N   UNL     1     -11.590  13.193  65.782  1.00  0.00    -0.333 NA 
ENDBRANCH   3   4
ENDBRANCH   2   3
TORSDOF 2
ENDMDL
MODEL        3
REMARK 921   NORMALIZED FREE ENERGY PREDICTED BY IDOCK:   -4.51 KCAL/MOL
REMARK 922        TOTAL FREE ENERGY PREDICTED BY IDOCK:   -5.17 KCAL/MOL
REMARK 923 INTER-LIGAND FREE ENERGY PREDICTED BY IDOCK:   -5.08 KCAL/MOL
REMARK 924 INTRA-LIGAND FREE ENERGY PREDICTED BY IDOCK:   -0.09 KCAL/MOL
REMARK 927      BINDING AFFINITY PREDICTED BY RF-SCORE:    0.00 PKD
ROOT
HETATM    1  C   UNL     1     -12.412  15.354  74.184  1.00  0.00    -0.785 C  
HETATM    2  C   UNL     1     -13.197  16.065  73.092  1.00  0.00    -0.633 C  
ENDROOT
BRANCH   2   3
HETATM    3  C   UNL     1     -14.153  15.107  72.373  1.00  0.00    -0.593 C  
BRANCH   3   4
HETATM    4  C   UNL     1     -13.431  13.959  71.711  1.00  0.00    -0.384 C  
HETATM    5  C   UNL     1     -13.547  12.690  72.124  1.00  0.00    -0.510 C  
HETATM    6  C   UNL     1     -12.802  11.623  71.425  1.00  0.00    -0.356 C  
HETATM    7  N   UNL     1     -12.034  12.026  70.367  1.00  0.00    -0.476 N  
HETATM    8  O   UNL     1     -12.881  10.455  71.786  1.00  0.00    -0.417 OA 
HETATM    9  C   UNL     1     -11.907  13.317  69.948  1.00  0.00    -0.310 C  
HETATM   10  H   UNL     1     -11.519  11.309  69.855  1.00  0.00     0.000 HD 
HETATM   11  S   UNL     1     -10.952  13.734  68.654  1.00  0.00    -0.274 S  
HETATM   12  N   UNL     1     -12.610  14.257  70.647  1.00  0.00    -0.340 NA 
ENDBRANCH   3   4
ENDBRANCH   2   3
TORSDOF 2
ENDMDL
MODEL        4
REMARK 921   NORMALIZED FREE ENERGY PREDICTED BY IDOCK:   -4.44 KCAL/MOL
REMARK 922        TOTAL FREE ENERGY PREDICTED BY IDOCK:   -5.08 KCAL/MOL
REMARK 923 INTER-LIGAND FREE ENERGY PREDICTED BY IDOCK:   -4.99 KCAL/MOL
REMARK 924 INTRA-LIGAND FREE ENERGY PREDICTED BY IDOCK:   -0.10 KCAL/MOL
REMARK 927      BINDING AFFINITY PREDICTED BY RF-SCORE:    0.00 PKD
ROOT
HETATM    1  C   UNL     1     -11.524   9.857  70.970  1.00  0.00    -0.466 C  
HETATM    2  C   UNL     1     -12.095  11.191  70.516  1.00  0.00    -0.474 C  
ENDROOT
BRANCH   2   3
HETATM    3  C   UNL     1     -13.003  11.809  71.586  1.00  0.00    -0.467 C  
BRANCH   3   4
HETATM    4  C   UNL     1     -12.849  13.307  71.680  1.00  0.00    -0.302 C  
HETATM    5  C   UNL     1     -13.494  14.050  72.589  1.00  0.00    -0.650 C  
HETATM    6  C   UNL     1     -13.292  15.513  72.612  1.00  0.00    -0.522 C  
HETATM    7  N   UNL     1     -12.426  16.012  71.679  1.00  0.00    -0.563 N  
HETATM    8  O   UNL     1     -13.875  16.220  73.427  1.00  0.00    -0.562 OA 
HETATM    9  C   UNL     1     -11.773  15.260  70.747  1.00  0.00    -0.337 C  
HETATM   10  H   UNL     1     -12.255  17.017  71.680  1.00  0.00     0.000 HD 
HETATM   11  S   UNL     1     -10.735  15.936  69.640  1.00  0.00    -0.332 S  
HETATM   12  N   UNL     1     -12.016  13.915  70.770  1.00  0.00    -0.310 NA 
ENDBRANCH   3   4
ENDBRANCH   2   3
TORSDOF 2
ENDMDL
MODEL        5
REMARK 921   NORMALIZED FREE ENERGY PREDICTED BY IDOCK:   -4.31 KCAL/MOL
REMARK 922        TOTAL FREE ENERGY PREDICTED BY IDOCK:   -4.94 KCAL/MOL
REMARK 923 INTER-LIGAND FREE ENERGY PREDICTED BY IDOCK:   -4.83 KCAL/MOL
REMARK 924 INTRA-LIGAND FREE ENERGY PREDICTED BY IDOCK:   -0.11 KCAL/MOL
REMARK 927      BINDING AFFINITY PREDICTED BY RF-SCORE:    0.00 PKD
ROOT
HETATM    1  C   UNL     1     -12.087  14.057  66.834  1.00  0.00    -0.465 C  
HETATM    2  C   UNL     1     -11.921  12.738  67.572  1.00  0.00    -0.342 C  
ENDROOT
BRANCH   2   3
HETATM    3  C   UNL     1     -11.160  12.923  68.890  1.00  0.00    -0.301 C  
BRANCH   3   4
HETATM    4  C   UNL     1     -12.001  12.585  70.096  1.00  0.00    -0.301 C  
HETATM    5  C   UNL     1     -12.610  13.516  70.843  1.00  0.00    -0.414 C  
HETATM    6  C   UNL     1     -13.413  13.104  72.012  1.00  0.00    -0.507 C  
HETATM    7  N   UNL     1     -13.484  11.758  72.243  1.00  0.00    -0.547 N  
HETATM    8  O   UNL     1     -13.974  13.933  72.719  1.00  0.00    -0.697 OA 
HETATM    9  C   UNL     1     -12.860  10.807  71.490  1.00  0.00    -0.462 C  
HETATM   10  H   UNL     1     -14.044  11.442  73.035  1.00  0.00     0.000 HD 
HETATM   11  S   UNL     1     -12.989   9.187  71.832  1.00  0.00    -0.439 S  
HETATM   12  N   UNL     1     -12.120  11.257  70.432  1.00  0.00    -0.360 NA 
ENDBRANCH   3   4
ENDBRANCH   2   3
TORSDOF 2
ENDMDL
MODEL        6
REMARK 921   NORMALIZED FREE ENERGY PREDICTED BY IDOCK:   -4.28 KCAL/MOL
REMARK 922        TOTAL FREE ENERGY PREDICTED BY IDOCK:   -4.91 KCAL/MOL
REMARK 923 INTER-LIGAND FREE ENERGY PREDICTED BY IDOCK:   -4.81 KCAL/MOL
REMARK 924 INTRA-LIGAND FREE ENERGY PREDICTED BY IDOCK:   -0.09 KCAL/MOL
REMARK 927      BINDING AFFINITY PREDICTED BY RF-SCORE:    0.00 PKD
ROOT
HETATM    1  C   UNL     1     -10.317  10.642  69.208  1.00  0.00    -0.240 C  
HETATM    2  C   UNL     1     -11.027  10.659  67.864  1.00  0.00    -0.351 C  
ENDROOT
BRANCH   2   3
HETATM    3  C   UNL     1     -11.503  12.068  67.496  1.00  0.00    -0.403 C  
BRANCH   3   4
HETATM    4  C   UNL     1     -11.465  12.321  66.008  1.00  0.00    -0.381 C  
HETATM    5  C   UNL     1     -12.198  13.271  65.412  1.00  0.00    -0.501 C  
HETATM    6  C   UNL     1     -12.108  13.451  63.948  1.00  0.00    -0.455 C  
HETATM    7  N   UNL     1     -11.248  12.612  63.295  1.00  0.00    -0.731 N  
HETATM    8  O   UNL     1     -12.773  14.306  63.374  1.00  0.00    -0.733 OA 
HETATM    9  C   UNL     1     -10.507  11.638  63.897  1.00  0.00    -0.382 C  
HETATM   10  H   UNL     1     -11.154  12.723  62.285  1.00  0.00     0.000 HD 
HETATM   11  S   UNL     1      -9.483  10.653  63.037  1.00  0.00    -0.359 S  
HETATM   12  N   UNL     1     -10.648  11.514  65.251  1.00  0.00    -0.276 NA 
ENDBRANCH   3   4
ENDBRANCH   2   3
TORSDOF 2
ENDMDL
MODEL        7
REMARK 921   NORMALIZED FREE ENERGY PREDICTED BY IDOCK:   -4.26 KCAL/MOL
REMARK 922        TOTAL FREE ENERGY PREDICTED BY IDOCK:   -4.89 KCAL/MOL
REMARK 923 INTER-LIGAND FREE ENERGY PREDICTED BY IDOCK:   -4.80 KCAL/MOL
REMARK 924 INTRA-LIGAND FREE ENERGY PREDICTED BY IDOCK:   -0.09 KCAL/MOL
REMARK 927      BINDING AFFINITY PREDICTED BY RF-SCORE:    0.00 PKD
ROOT
HETATM    1  C   UNL     1     -11.902  13.753  69.806  1.00  0.00    -0.394 C  
HETATM    2  C   UNL     1     -11.968  13.793  68.287  1.00  0.00    -0.392 C  
ENDROOT
BRANCH   2   3
HETATM    3  C   UNL     1     -11.642  12.426  67.674  1.00  0.00    -0.421 C  
BRANCH   3   4
HETATM    4  C   UNL     1     -11.550  12.476  66.169  1.00  0.00    -0.395 C  
HETATM    5  C   UNL     1     -12.223  13.365  65.426  1.00  0.00    -0.492 C  
HETATM    6  C   UNL     1     -12.083  13.344  63.956  1.00  0.00    -0.449 C  
HETATM    7  N   UNL     1     -11.240  12.394  63.450  1.00  0.00    -0.623 N  
HETATM    8  O   UNL     1     -12.693  14.139  63.251  1.00  0.00    -0.714 OA 
HETATM    9  C   UNL     1     -10.558  11.482  64.201  1.00  0.00    -0.363 C  
HETATM   10  H   UNL     1     -11.111  12.365  62.439  1.00  0.00     0.000 HD 
HETATM   11  S   UNL     1      -9.551  10.352  63.516  1.00  0.00    -0.273 S  
HETATM   12  N   UNL     1     -10.745  11.545  65.554  1.00  0.00    -0.278 NA 
ENDBRANCH   3   4
ENDBRANCH   2   3
TORSDOF 2
ENDMDL
MODEL        8
REMARK 921   NORMALIZED FREE ENERGY PREDICTED BY IDOCK:   -4.26 KCAL/MOL
REMARK 922        TOTAL FREE ENERGY PREDICTED BY IDOCK:   -4.89 KCAL/MOL
REMARK 923 INTER-LIGAND FREE ENERGY PREDICTED BY IDOCK:   -4.77 KCAL/MOL
REMARK 924 INTRA-LIGAND FREE ENERGY PREDICTED BY IDOCK:   -0.11 KCAL/MOL
REMARK 927      BINDING AFFINITY PREDICTED BY RF-SCORE:    0.00 PKD
ROOT
HETATM    1  C   UNL     1     -10.912  11.632  63.535  1.00  0.00    -0.485 C  
HETATM    2  C   UNL     1     -12.004  12.689  63.489  1.00  0.00    -0.630 C  
ENDROOT
BRANCH   2   3
HETATM    3  C   UNL     1     -12.637  12.905  64.869  1.00  0.00    -0.525 C  
BRANCH   3   4
HETATM    4  C   UNL     1     -11.958  14.002  65.650  1.00  0.00    -0.397 C  
HETATM    5  C   UNL     1     -11.243  14.975  65.070  1.00  0.00    -0.413 C  
HETATM    6  C   UNL     1     -10.604  16.011  65.907  1.00  0.00    -0.328 C  
HETATM    7  N   UNL     1     -10.806  15.898  67.255  1.00  0.00    -0.309 N  
HETATM    8  O   UNL     1      -9.938  16.909  65.405  1.00  0.00    -0.568 OA 
HETATM    9  C   UNL     1     -11.526  14.904  67.851  1.00  0.00    -0.340 C  
HETATM   10  H   UNL     1     -10.390  16.607  67.858  1.00  0.00     0.000 HD 
HETATM   11  S   UNL     1     -11.727  14.829  69.498  1.00  0.00    -0.341 S  
HETATM   12  N   UNL     1     -12.077  13.970  67.021  1.00  0.00    -0.439 NA 
ENDBRANCH   3   4
ENDBRANCH   2   3
TORSDOF 2
ENDMDL
MODEL        9
REMARK 921   NORMALIZED FREE ENERGY PREDICTED BY IDOCK:   -4.25 KCAL/MOL
REMARK 922        TOTAL FREE ENERGY PREDICTED BY IDOCK:   -4.87 KCAL/MOL
REMARK 923 INTER-LIGAND FREE ENERGY PREDICTED BY IDOCK:   -4.78 KCAL/MOL
REMARK 924 INTRA-LIGAND FREE ENERGY PREDICTED BY IDOCK:   -0.10 KCAL/MOL
REMARK 927      BINDING AFFINITY PREDICTED BY RF-SCORE:    0.00 PKD
ROOT
HETATM    1  C   UNL     1     -14.343   7.455  71.488  1.00  0.00    -0.594 C  
HETATM    2  C   UNL     1     -13.926   8.823  72.005  1.00  0.00    -0.511 C  
ENDROOT
BRANCH   2   3
HETATM    3  C   UNL     1     -12.738   9.385  71.215  1.00  0.00    -0.391 C  
BRANCH   3   4
HETATM    4  C   UNL     1     -12.748  10.893  71.153  1.00  0.00    -0.429 C  
HETATM    5  C   UNL     1     -13.367  11.656  72.063  1.00  0.00    -0.405 C  
HETATM    6  C   UNL     1     -13.334  13.127  71.928  1.00  0.00    -0.455 C  
HETATM    7  N   UNL     1     -12.642  13.612  70.853  1.00  0.00    -0.353 N  
HETATM    8  O   UNL     1     -13.899  13.850  72.740  1.00  0.00    -0.701 OA 
HETATM    9  C   UNL     1     -12.017  12.839  69.919  1.00  0.00    -0.298 C  
HETATM   10  H   UNL     1     -12.589  14.624  70.741  1.00  0.00     0.000 HD 
HETATM   11  S   UNL     1     -11.196  13.499  68.636  1.00  0.00    -0.296 S  
HETATM   12  N   UNL     1     -12.099  11.486  70.095  1.00  0.00    -0.346 NA 
ENDBRANCH   3   4
ENDBRANCH   2   3
TORSDOF 2
ENDMDL
MODEL       10
REMARK 921   NORMALIZED FREE ENERGY PREDICTED BY IDOCK:   -4.25 KCAL/MOL
REMARK 922        TOTAL FREE ENERGY PREDICTED BY IDOCK:   -4.87 KCAL/MOL
REMARK 923 INTER-LIGAND FREE ENERGY PREDICTED BY IDOCK:   -4.75 KCAL/MOL
REMARK 924 INTRA-LIGAND FREE ENERGY PREDICTED BY IDOCK:   -0.12 KCAL/MOL
REMARK 927      BINDING AFFINITY PREDICTED BY RF-SCORE:    0.00 PKD
ROOT
HETATM    1  C   UNL     1     -12.453  15.961  74.247  1.00  0.00    -0.773 C  
HETATM    2  C   UNL     1     -13.390  15.770  73.065  1.00  0.00    -0.679 C  
ENDROOT
BRANCH   2   3
HETATM    3  C   UNL     1     -13.417  14.311  72.597  1.00  0.00    -0.623 C  
BRANCH   3   4
HETATM    4  C   UNL     1     -12.788  14.128  71.238  1.00  0.00    -0.359 C  
HETATM    5  C   UNL     1     -12.572  15.144  70.393  1.00  0.00    -0.405 C  
HETATM    6  C   UNL     1     -11.954  14.881  69.077  1.00  0.00    -0.272 C  
HETATM    7  N   UNL     1     -11.631  13.577  68.819  1.00  0.00    -0.300 N  
HETATM    8  O   UNL     1     -11.752  15.789  68.279  1.00  0.00    -0.345 OA 
HETATM    9  C   UNL     1     -11.857  12.538  69.673  1.00  0.00    -0.314 C  
HETATM   10  H   UNL     1     -11.190  13.367  67.924  1.00  0.00     0.000 HD 
HETATM   11  S   UNL     1     -11.439  10.977  69.291  1.00  0.00    -0.330 S  
HETATM   12  N   UNL     1     -12.445  12.848  70.867  1.00  0.00    -0.351 NA 
ENDBRANCH   3   4
ENDBRANCH   2   3
TORSDOF 2
ENDMDL
MODEL       11
REMARK 921   NORMALIZED FREE ENERGY PREDICTED BY IDOCK:   -4.22 KCAL/MOL
REMARK 922        TOTAL FREE ENERGY PREDICTED BY IDOCK:   -4.84 KCAL/MOL
REMARK 923 INTER-LIGAND FREE ENERGY PREDICTED BY IDOCK:   -4.76 KCAL/MOL
REMARK 924 INTRA-LIGAND FREE ENERGY PREDICTED BY IDOCK:   -0.07 KCAL/MOL
REMARK 927      BINDING AFFINITY PREDICTED BY RF-SCORE:    0.00 PKD
ROOT
HETATM    1  C   UNL     1     -11.906  11.379  69.980  1.00  0.00    -0.440 C  
HETATM    2  C   UNL     1     -11.928  12.450  68.901  1.00  0.00    -0.289 C  
ENDROOT
BRANCH   2   3
HETATM    3  C   UNL     1     -11.425  11.908  67.559  1.00  0.00    -0.396 C  
BRANCH   3   4
HETATM    4  C   UNL     1     -11.485  12.941  66.460  1.00  0.00    -0.341 C  
HETATM    5  C   UNL     1     -12.073  12.713  65.278  1.00  0.00    -0.519 C  
HETATM    6  C   UNL     1     -12.084  13.776  64.251  1.00  0.00    -0.440 C  
HETATM    7  N   UNL     1     -11.482  14.952  64.603  1.00  0.00    -0.551 N  
HETATM    8  O   UNL     1     -12.607  13.594  63.158  1.00  0.00    -0.792 OA 
HETATM    9  C   UNL     1     -10.875  15.185  65.802  1.00  0.00    -0.353 C  
HETATM   10  H   UNL     1     -11.487  15.709  63.920  1.00  0.00     0.000 HD 
HETATM   11  S   UNL     1     -10.159  16.641  66.159  1.00  0.00    -0.346 S  
HETATM   12  N   UNL     1     -10.886  14.156  66.701  1.00  0.00    -0.296 NA 
ENDBRANCH   3   4
ENDBRANCH   2   3
TORSDOF 2
ENDMDL
MODEL       12
REMARK 921   NORMALIZED FREE ENERGY PREDICTED BY IDOCK:   -4.21 KCAL/MOL
REMARK 922        TOTAL FREE ENERGY PREDICTED BY IDOCK:   -4.82 KCAL/MOL
REMARK 923 INTER-LIGAND FREE ENERGY PREDICTED BY IDOCK:   -4.70 KCAL/MOL
REMARK 924 INTRA-LIGAND FREE ENERGY PREDICTED BY IDOCK:   -0.12 KCAL/MOL
REMARK 927      BINDING AFFINITY PREDICTED BY RF-SCORE:    0.00 PKD
ROOT
HETATM    1  C   UNL     1      -6.900  15.193  67.663  1.00  0.00    -0.204 C  
HETATM    2  C   UNL     1      -8.388  15.160  67.973  1.00  0.00    -0.147 C  
ENDROOT
BRANCH   2   3
HETATM    3  C   UNL     1      -9.069  13.943  67.337  1.00  0.00    -0.217 C  
BRANCH   3   4
HETATM    4  C   UNL     1      -9.983  14.322  66.198  1.00  0.00    -0.314 C  
HETATM    5  C   UNL     1     -10.183  15.590  65.815  1.00  0.00    -0.390 C  
HETATM    6  C   UNL     1     -11.099  15.879  64.692  1.00  0.00    -0.354 C  
HETATM    7  N   UNL     1     -11.683  14.791  64.103  1.00  0.00    -0.667 N  
HETATM    8  O   UNL     1     -11.308  17.029  64.325  1.00  0.00    -1.191 OA 
HETATM    9  C   UNL     1     -11.488  13.499  64.495  1.00  0.00    -0.381 C  
HETATM   10  H   UNL     1     -12.309  14.958  63.316  1.00  0.00     0.000 HD 
HETATM   11  S   UNL     1     -12.236  12.226  63.733  1.00  0.00    -0.558 S  
HETATM   12  N   UNL     1     -10.642  13.303  65.550  1.00  0.00    -0.281 NA 
ENDBRANCH   3   4
ENDBRANCH   2   3
TORSDOF 2
ENDMDL
MODEL       13
REMARK 921   NORMALIZED FREE ENERGY PREDICTED BY IDOCK:   -4.17 KCAL/MOL
REMARK 922        TOTAL FREE ENERGY PREDICTED BY IDOCK:   -4.78 KCAL/MOL
REMARK 923 INTER-LIGAND FREE ENERGY PREDICTED BY IDOCK:   -4.67 KCAL/MOL
REMARK 924 INTRA-LIGAND FREE ENERGY PREDICTED BY IDOCK:   -0.11 KCAL/MOL
REMARK 927      BINDING AFFINITY PREDICTED BY RF-SCORE:    0.00 PKD
ROOT
HETATM    1  C   UNL     1     -12.859  10.474  71.169  1.00  0.00    -0.513 C  
HETATM    2  C   UNL     1     -11.929  11.432  70.441  1.00  0.00    -0.465 C  
ENDROOT
BRANCH   2   3
HETATM    3  C   UNL     1     -11.790  11.065  68.959  1.00  0.00    -0.399 C  
BRANCH   3   4
HETATM    4  C   UNL     1     -11.774  12.278  68.062  1.00  0.00    -0.356 C  
HETATM    5  C   UNL     1     -11.666  13.529  68.530  1.00  0.00    -0.392 C  
HETATM    6  C   UNL     1     -11.663  14.665  67.586  1.00  0.00    -0.363 C  
HETATM    7  N   UNL     1     -11.765  14.340  66.261  1.00  0.00    -0.380 N  
HETATM    8  O   UNL     1     -11.574  15.820  67.985  1.00  0.00    -0.321 OA 
HETATM    9  C   UNL     1     -11.883  13.069  65.781  1.00  0.00    -0.404 C  
HETATM   10  H   UNL     1     -11.750  15.103  65.584  1.00  0.00     0.000 HD 
HETATM   11  S   UNL     1     -12.005  12.750  64.155  1.00  0.00    -0.467 S  
HETATM   12  N   UNL     1     -11.895  12.066  66.708  1.00  0.00    -0.614 NA 
ENDBRANCH   3   4
ENDBRANCH   2   3
TORSDOF 2
ENDMDL
MODEL       14
REMARK 921   NORMALIZED FREE ENERGY PREDICTED BY IDOCK:   -4.15 KCAL/MOL
REMARK 922        TOTAL FREE ENERGY PREDICTED BY IDOCK:   -4.77 KCAL/MOL
REMARK 923 INTER-LIGAND FREE ENERGY PREDICTED BY IDOCK:   -4.64 KCAL/MOL
REMARK 924 INTRA-LIGAND FREE ENERGY PREDICTED BY IDOCK:   -0.12 KCAL/MOL
REMARK 927      BINDING AFFINITY PREDICTED BY RF-SCORE:    0.00 PKD
ROOT
HETATM    1  C   UNL     1     -10.577  11.250  63.528  1.00  0.00    -0.436 C  
HETATM    2  C   UNL     1     -11.401  12.523  63.640  1.00  0.00    -0.555 C  
ENDROOT
BRANCH   2   3
HETATM    3  C   UNL     1     -12.534  12.372  64.661  1.00  0.00    -0.500 C  
BRANCH   3   4
HETATM    4  C   UNL     1     -12.157  12.897  66.024  1.00  0.00    -0.422 C  
HETATM    5  C   UNL     1     -11.937  14.196  66.269  1.00  0.00    -0.448 C  
HETATM    6  C   UNL     1     -11.566  14.630  67.632  1.00  0.00    -0.361 C  
HETATM    7  N   UNL     1     -11.484  13.640  68.572  1.00  0.00    -0.288 N  
HETATM    8  O   UNL     1     -11.350  15.810  67.883  1.00  0.00    -0.338 OA 
HETATM    9  C   UNL     1     -11.700  12.316  68.326  1.00  0.00    -0.336 C  
HETATM   10  H   UNL     1     -11.245  13.911  69.526  1.00  0.00     0.000 HD 
HETATM   11  S   UNL     1     -11.580  11.167  69.519  1.00  0.00    -0.353 S  
HETATM   12  N   UNL     1     -12.024  11.980  67.041  1.00  0.00    -0.606 NA 
ENDBRANCH   3   4
ENDBRANCH   2   3
TORSDOF 2
ENDMDL
MODEL       15
REMARK 921   NORMALIZED FREE ENERGY PREDICTED BY IDOCK:   -4.15 KCAL/MOL
REMARK 922        TOTAL FREE ENERGY PREDICTED BY IDOCK:   -4.76 KCAL/MOL
REMARK 923 INTER-LIGAND FREE ENERGY PREDICTED BY IDOCK:   -4.66 KCAL/MOL
REMARK 924 INTRA-LIGAND FREE ENERGY PREDICTED BY IDOCK:   -0.10 KCAL/MOL
REMARK 927      BINDING AFFINITY PREDICTED BY RF-SCORE:    0.00 PKD
ROOT
HETATM    1  C   UNL     1     -13.499  15.607  72.938  1.00  0.00    -0.657 C  
HETATM    2  C   UNL     1     -13.081  14.157  72.751  1.00  0.00    -0.573 C  
ENDROOT
BRANCH   2   3
HETATM    3  C   UNL     1     -12.692  13.866  71.297  1.00  0.00    -0.444 C  
BRANCH   3   4
HETATM    4  C   UNL     1     -12.579  12.389  71.014  1.00  0.00    -0.254 C  
HETATM    5  C   UNL     1     -13.126  11.452  71.801  1.00  0.00    -0.523 C  
HETATM    6  C   UNL     1     -12.966  10.024  71.456  1.00  0.00    -0.434 C  
HETATM    7  N   UNL     1     -12.257   9.761  70.316  1.00  0.00    -0.481 N  
HETATM    8  O   UNL     1     -13.447   9.145  72.161  1.00  0.00    -0.405 OA 
HETATM    9  C   UNL     1     -11.692  10.711  69.517  1.00  0.00    -0.284 C  
HETATM   10  H   UNL     1     -12.143   8.785  70.045  1.00  0.00     0.000 HD 
HETATM   11  S   UNL     1     -10.841  10.316  68.146  1.00  0.00    -0.271 S  
HETATM   12  N   UNL     1     -11.865  12.011  69.901  1.00  0.00    -0.337 NA 
ENDBRANCH   3   4
ENDBRANCH   2   3
TORSDOF 2
ENDMDL
MODEL       16
REMARK 921   NORMALIZED FREE ENERGY PREDICTED BY IDOCK:   -4.14 KCAL/MOL
REMARK 922        TOTAL FREE ENERGY PREDICTED BY IDOCK:   -4.75 KCAL/MOL
REMARK 923 INTER-LIGAND FREE ENERGY PREDICTED BY IDOCK:   -4.66 KCAL/MOL
REMARK 924 INTRA-LIGAND FREE ENERGY PREDICTED BY IDOCK:   -0.09 KCAL/MOL
REMARK 927      BINDING AFFINITY PREDICTED BY RF-SCORE:    0.00 PKD
ROOT
HETATM    1  C   UNL     1     -13.308   9.011  71.996  1.00  0.00    -0.494 C  
HETATM    2  C   UNL     1     -12.855  10.456  71.852  1.00  0.00    -0.519 C  
ENDROOT
BRANCH   2   3
HETATM    3  C   UNL     1     -11.838  10.617  70.717  1.00  0.00    -0.459 C  
BRANCH   3   4
HETATM    4  C   UNL     1     -11.977  11.937  70.000  1.00  0.00    -0.332 C  
HETATM    5  C   UNL     1     -11.746  12.081  68.688  1.00  0.00    -0.380 C  
HETATM    6  C   UNL     1     -11.899  13.410  68.061  1.00  0.00    -0.357 C  
HETATM    7  N   UNL     1     -12.289  14.422  68.894  1.00  0.00    -0.576 N  
HETATM    8  O   UNL     1     -11.686  13.574  66.865  1.00  0.00    -0.343 OA 
HETATM    9  C   UNL     1     -12.518  14.281  70.231  1.00  0.00    -0.361 C  
HETATM   10  H   UNL     1     -12.418  15.348  68.486  1.00  0.00     0.000 HD 
HETATM   11  S   UNL     1     -12.987  15.559  71.183  1.00  0.00    -0.482 S  
HETATM   12  N   UNL     1     -12.343  13.030  70.751  1.00  0.00    -0.360 NA 
ENDBRANCH   3   4
ENDBRANCH   2   3
TORSDOF 2
ENDMDL
MODEL       17
REMARK 921   NORMALIZED FREE ENERGY PREDICTED BY IDOCK:   -4.09 KCAL/MOL
REMARK 922        TOTAL FREE ENERGY PREDICTED BY IDOCK:   -4.69 KCAL/MOL
REMARK 923 INTER-LIGAND FREE ENERGY PREDICTED BY IDOCK:   -4.62 KCAL/MOL
REMARK 924 INTRA-LIGAND FREE ENERGY PREDICTED BY IDOCK:   -0.07 KCAL/MOL
REMARK 927      BINDING AFFINITY PREDICTED BY RF-SCORE:    0.00 PKD
ROOT
HETATM    1  C   UNL     1      -9.443  19.911  66.212  1.00  0.00    -0.505 C  
HETATM    2  C   UNL     1     -10.356  18.722  65.956  1.00  0.00    -0.467 C  
ENDROOT
BRANCH   2   3
HETATM    3  C   UNL     1      -9.617  17.393  66.143  1.00  0.00    -0.213 C  
BRANCH   3   4
HETATM    4  C   UNL     1     -10.536  16.201  66.043  1.00  0.00    -0.338 C  
HETATM    5  C   UNL     1     -11.106  15.815  64.893  1.00  0.00    -0.411 C  
HETATM    6  C   UNL     1     -11.999  14.638  64.879  1.00  0.00    -0.400 C  
HETATM    7  N   UNL     1     -12.173  14.006  66.079  1.00  0.00    -0.436 N  
HETATM    8  O   UNL     1     -12.541  14.267  63.844  1.00  0.00    -0.787 OA 
HETATM    9  C   UNL     1     -11.601  14.400  67.253  1.00  0.00    -0.379 C  
HETATM   10  H   UNL     1     -12.772  13.182  66.098  1.00  0.00     0.000 HD 
HETATM   11  S   UNL     1     -11.860  13.584  68.676  1.00  0.00    -0.363 S  
HETATM   12  N   UNL     1     -10.799  15.505  67.200  1.00  0.00    -0.320 NA 
ENDBRANCH   3   4
ENDBRANCH   2   3
TORSDOF 2
ENDMDL
MODEL       18
REMARK 921   NORMALIZED FREE ENERGY PREDICTED BY IDOCK:   -4.09 KCAL/MOL
REMARK 922        TOTAL FREE ENERGY PREDICTED BY IDOCK:   -4.69 KCAL/MOL
REMARK 923 INTER-LIGAND FREE ENERGY PREDICTED BY IDOCK:   -4.58 KCAL/MOL
REMARK 924 INTRA-LIGAND FREE ENERGY PREDICTED BY IDOCK:   -0.11 KCAL/MOL
REMARK 927      BINDING AFFINITY PREDICTED BY RF-SCORE:    0.00 PKD
ROOT
HETATM    1  C   UNL     1     -11.856  12.793  66.254  1.00  0.00    -0.485 C  
HETATM    2  C   UNL     1     -11.971  13.765  67.417  1.00  0.00    -0.423 C  
ENDROOT
BRANCH   2   3
HETATM    3  C   UNL     1     -11.106  13.326  68.605  1.00  0.00    -0.301 C  
BRANCH   3   4
HETATM    4  C   UNL     1     -11.924  13.035  69.839  1.00  0.00    -0.311 C  
HETATM    5  C   UNL     1     -12.142  11.793  70.292  1.00  0.00    -0.426 C  
HETATM    6  C   UNL     1     -12.960  11.592  71.506  1.00  0.00    -0.380 C  
HETATM    7  N   UNL     1     -13.438  12.727  72.099  1.00  0.00    -0.542 N  
HETATM    8  O   UNL     1     -13.183  10.467  71.940  1.00  0.00    -0.446 OA 
HETATM    9  C   UNL     1     -13.226  13.993  71.636  1.00  0.00    -0.368 C  
HETATM   10  H   UNL     1     -13.994  12.621  72.948  1.00  0.00     0.000 HD 
HETATM   11  S   UNL     1     -13.842  15.328  72.408  1.00  0.00    -0.558 S  
HETATM   12  N   UNL     1     -12.475  14.108  70.501  1.00  0.00    -0.345 NA 
ENDBRANCH   3   4
ENDBRANCH   2   3
TORSDOF 2
ENDMDL
MODEL       19
REMARK 921   NORMALIZED FREE ENERGY PREDICTED BY IDOCK:   -4.06 KCAL/MOL
REMARK 922        TOTAL FREE ENERGY PREDICTED BY IDOCK:   -4.67 KCAL/MOL
REMARK 923 INTER-LIGAND FREE ENERGY PREDICTED BY IDOCK:   -4.59 KCAL/MOL
REMARK 924 INTRA-LIGAND FREE ENERGY PREDICTED BY IDOCK:   -0.07 KCAL/MOL
REMARK 927      BINDING AFFINITY PREDICTED BY RF-SCORE:    0.00 PKD
ROOT
HETATM    1  C   UNL     1     -10.630  11.714  63.351  1.00  0.00    -0.472 C  
HETATM    2  C   UNL     1     -12.018  12.315  63.515  1.00  0.00    -0.625 C  
ENDROOT
BRANCH   2   3
HETATM    3  C   UNL     1     -12.229  12.868  64.928  1.00  0.00    -0.504 C  
BRANCH   3   4
HETATM    4  C   UNL     1     -11.395  14.097  65.198  1.00  0.00    -0.336 C  
HETATM    5  C   UNL     1     -11.712  15.310  64.726  1.00  0.00    -0.276 C  
HETATM    6  C   UNL     1     -10.839  16.463  65.031  1.00  0.00    -0.273 C  
HETATM    7  N   UNL     1      -9.745  16.195  65.807  1.00  0.00    -0.324 N  
HETATM    8  O   UNL     1     -11.099  17.583  64.606  1.00  0.00    -0.978 OA 
HETATM    9  C   UNL     1      -9.415  14.960  66.282  1.00  0.00    -0.309 C  
HETATM   10  H   UNL     1      -9.132  16.974  66.046  1.00  0.00     0.000 HD 
HETATM   11  S   UNL     1      -8.066  14.709  67.218  1.00  0.00    -0.188 S  
HETATM   12  N   UNL     1     -10.255  13.935  65.951  1.00  0.00    -0.306 NA 
ENDBRANCH   3   4
ENDBRANCH   2   3
TORSDOF 2
ENDMDL
MODEL       20
REMARK 921   NORMALIZED FREE ENERGY PREDICTED BY IDOCK:   -4.06 KCAL/MOL
REMARK 922        TOTAL FREE ENERGY PREDICTED BY IDOCK:   -4.66 KCAL/MOL
REMARK 923 INTER-LIGAND FREE ENERGY PREDICTED BY IDOCK:   -4.58 KCAL/MOL
REMARK 924 INTRA-LIGAND FREE ENERGY PREDICTED BY IDOCK:   -0.09 KCAL/MOL
REMARK 927      BINDING AFFINITY PREDICTED BY RF-SCORE:    0.00 PKD
ROOT
HETATM    1  C   UNL     1     -10.296  18.936  67.540  1.00  0.00    -0.496 C  
HETATM    2  C   UNL     1     -10.325  17.415  67.515  1.00  0.00    -0.351 C  
ENDROOT
BRANCH   2   3
HETATM    3  C   UNL     1     -10.009  16.870  66.118  1.00  0.00    -0.332 C  
BRANCH   3   4
HETATM    4  C   UNL     1     -10.766  15.601  65.809  1.00  0.00    -0.341 C  
HETATM    5  C   UNL     1     -11.301  15.346  64.607  1.00  0.00    -0.361 C  
HETATM    6  C   UNL     1     -12.031  14.081  64.386  1.00  0.00    -0.454 C  
HETATM    7  N   UNL     1     -12.098  13.235  65.458  1.00  0.00    -0.408 N  
HETATM    8  O   UNL     1     -12.539  13.825  63.300  1.00  0.00    -0.830 OA 
HETATM    9  C   UNL     1     -11.562  13.494  66.686  1.00  0.00    -0.363 C  
HETATM   10  H   UNL     1     -12.584  12.347  65.332  1.00  0.00     0.000 HD 
HETATM   11  S   UNL     1     -11.686  12.419  67.945  1.00  0.00    -0.326 S  
HETATM   12  N   UNL     1     -10.913  14.688  66.827  1.00  0.00    -0.316 NA 
ENDBRANCH   3   4
ENDBRANCH   2   3
TORSDOF 2
ENDMDL
MODEL       21
REMARK 921   NORMALIZED FREE ENERGY PREDICTED BY IDOCK:   -4.06 KCAL/MOL
REMARK 922        TOTAL FREE ENERGY PREDICTED BY IDOCK:   -4.66 KCAL/MOL
REMARK 923 INTER-LIGAND FREE ENERGY PREDICTED BY IDOCK:   -4.57 KCAL/MOL
REMARK 924 INTRA-LIGAND FREE ENERGY PREDICTED BY IDOCK:   -0.09 KCAL/MOL
REMARK 927      BINDING AFFINITY PREDICTED BY RF-SCORE:    0.00 PKD
ROOT
HETATM    1  C   UNL     1     -12.274  12.653  63.922  1.00  0.00    -0.565 C  
HETATM    2  C   UNL     1     -12.245  13.137  65.363  1.00  0.00    -0.510 C  
ENDROOT
BRANCH   2   3
HETATM    3  C   UNL     1     -11.610  12.098  66.293  1.00  0.00    -0.424 C  
BRANCH   3   4
HETATM    4  C   UNL     1     -11.792  12.440  67.752  1.00  0.00    -0.298 C  
HETATM    5  C   UNL     1     -11.816  13.700  68.207  1.00  0.00    -0.404 C  
HETATM    6  C   UNL     1     -11.994  13.951  69.652  1.00  0.00    -0.342 C  
HETATM    7  N   UNL     1     -12.134  12.841  70.438  1.00  0.00    -0.472 N  
HETATM    8  O   UNL     1     -12.012  15.092  70.098  1.00  0.00    -0.290 OA 
HETATM    9  C   UNL     1     -12.101  11.557  69.980  1.00  0.00    -0.331 C  
HETATM   10  H   UNL     1     -12.273  12.983  71.438  1.00  0.00     0.000 HD 
HETATM   11  S   UNL     1     -12.276  10.255  70.996  1.00  0.00    -0.417 S  
HETATM   12  N   UNL     1     -11.918  11.394  68.636  1.00  0.00    -0.517 NA 
ENDBRANCH   3   4
ENDBRANCH   2   3
TORSDOF 2
ENDMDL
MODEL       22
REMARK 921   NORMALIZED FREE ENERGY PREDICTED BY IDOCK:   -4.02 KCAL/MOL
REMARK 922        TOTAL FREE ENERGY PREDICTED BY IDOCK:   -4.62 KCAL/MOL
REMARK 923 INTER-LIGAND FREE ENERGY PREDICTED BY IDOCK:   -4.52 KCAL/MOL
REMARK 924 INTRA-LIGAND FREE ENERGY PREDICTED BY IDOCK:   -0.10 KCAL/MOL
REMARK 927      BINDING AFFINITY PREDICTED BY RF-SCORE:    0.00 PKD
ROOT
HETATM    1  C   UNL     1     -11.992  15.862  72.025  1.00  0.00    -0.602 C  
HETATM    2  C   UNL     1     -12.293  14.870  70.912  1.00  0.00    -0.392 C  
ENDROOT
BRANCH   2   3
HETATM    3  C   UNL     1     -11.846  15.404  69.546  1.00  0.00    -0.370 C  
BRANCH   3   4
HETATM    4  C   UNL     1     -11.837  14.335  68.482  1.00  0.00    -0.347 C  
HETATM    5  C   UNL     1     -11.775  13.026  68.765  1.00  0.00    -0.363 C  
HETATM    6  C   UNL     1     -11.765  12.041  67.665  1.00  0.00    -0.294 C  
HETATM    7  N   UNL     1     -11.832  12.557  66.400  1.00  0.00    -0.402 N  
HETATM    8  O   UNL     1     -11.700  10.838  67.893  1.00  0.00    -0.543 OA 
HETATM    9  C   UNL     1     -11.887  13.888  66.108  1.00  0.00    -0.400 C  
HETATM   10  H   UNL     1     -11.842  11.900  65.620  1.00  0.00     0.000 HD 
HETATM   11  S   UNL     1     -11.965  14.443  64.544  1.00  0.00    -0.461 S  
HETATM   12  N   UNL     1     -11.878  14.746  67.171  1.00  0.00    -0.347 NA 
ENDBRANCH   3   4
ENDBRANCH   2   3
TORSDOF 2
ENDMDL
MODEL       23
REMARK 921   NORMALIZED FREE ENERGY PREDICTED BY IDOCK:   -4.02 KCAL/MOL
REMARK 922        TOTAL FREE ENERGY PREDICTED BY IDOCK:   -4.62 KCAL/MOL
REMARK 923 INTER-LIGAND FREE ENERGY PREDICTED BY IDOCK:   -4.53 KCAL/MOL
REMARK 924 INTRA-LIGAND FREE ENERGY PREDICTED BY IDOCK:   -0.09 KCAL/MOL
REMARK 927      BINDING AFFINITY PREDICTED BY RF-SCORE:    0.00 PKD
ROOT
HETATM    1  C   UNL     1     -12.903  15.995  73.518  1.00  0.00    -0.701 C  
HETATM    2  C   UNL     1     -11.965  15.788  72.340  1.00  0.00    -0.600 C  
ENDROOT
BRANCH   2   3
HETATM    3  C   UNL     1     -12.180  14.419  71.683  1.00  0.00    -0.385 C  
BRANCH   3   4
HETATM    4  C   UNL     1     -11.921  14.445  70.197  1.00  0.00    -0.322 C  
HETATM    5  C   UNL     1     -12.141  13.390  69.400  1.00  0.00    -0.321 C  
HETATM    6  C   UNL     1     -11.856  13.494  67.954  1.00  0.00    -0.362 C  
HETATM    7  N   UNL     1     -11.385  14.704  67.524  1.00  0.00    -0.333 N  
HETATM    8  O   UNL     1     -12.040  12.543  67.203  1.00  0.00    -0.504 OA 
HETATM    9  C   UNL     1     -11.152  15.777  68.332  1.00  0.00    -0.341 C  
HETATM   10  H   UNL     1     -11.194  14.811  66.528  1.00  0.00     0.000 HD 
HETATM   11  S   UNL     1     -10.575  17.218  67.739  1.00  0.00    -0.341 S  
HETATM   12  N   UNL     1     -11.421  15.610  69.662  1.00  0.00    -0.314 NA 
ENDBRANCH   3   4
ENDBRANCH   2   3
TORSDOF 2
ENDMDL
MODEL       24
REMARK 921   NORMALIZED FREE ENERGY PREDICTED BY IDOCK:   -4.01 KCAL/MOL
REMARK 922        TOTAL FREE ENERGY PREDICTED BY IDOCK:   -4.60 KCAL/MOL
REMARK 923 INTER-LIGAND FREE ENERGY PREDICTED BY IDOCK:   -4.49 KCAL/MOL
REMARK 924 INTRA-LIGAND FREE ENERGY PREDICTED BY IDOCK:   -0.11 KCAL/MOL
REMARK 927      BINDING AFFINITY PREDICTED BY RF-SCORE:    0.00 PKD
ROOT
HETATM    1  C   UNL     1     -12.005  12.795  63.437  1.00  0.00    -0.613 C  
HETATM    2  C   UNL     1     -12.651  12.608  64.801  1.00  0.00    -0.530 C  
ENDROOT
BRANCH   2   3
HETATM    3  C   UNL     1     -12.577  13.888  65.640  1.00  0.00    -0.553 C  
BRANCH   3   4
HETATM    4  C   UNL     1     -12.022  13.642  67.022  1.00  0.00    -0.406 C  
HETATM    5  C   UNL     1     -11.780  12.415  67.502  1.00  0.00    -0.425 C  
HETATM    6  C   UNL     1     -11.241  12.258  68.868  1.00  0.00    -0.273 C  
HETATM    7  N   UNL     1     -11.014  13.417  69.557  1.00  0.00    -0.454 N  
HETATM    8  O   UNL     1     -11.018  11.148  69.337  1.00  0.00    -0.238 OA 
HETATM    9  C   UNL     1     -11.266  14.668  69.075  1.00  0.00    -0.269 C  
HETATM   10  H   UNL     1     -10.627  13.341  70.498  1.00  0.00     0.000 HD 
HETATM   11  S   UNL     1     -10.967  16.034  69.972  1.00  0.00    -0.375 S  
HETATM   12  N   UNL     1     -11.779  14.742  67.811  1.00  0.00    -0.355 NA 
ENDBRANCH   3   4
ENDBRANCH   2   3
TORSDOF 2
ENDMDL
MODEL       25
REMARK 921   NORMALIZED FREE ENERGY PREDICTED BY IDOCK:   -4.00 KCAL/MOL
REMARK 922        TOTAL FREE ENERGY PREDICTED BY IDOCK:   -4.60 KCAL/MOL
REMARK 923 INTER-LIGAND FREE ENERGY PREDICTED BY IDOCK:   -4.50 KCAL/MOL
REMARK 924 INTRA-LIGAND FREE ENERGY PREDICTED BY IDOCK:   -0.10 KCAL/MOL
REMARK 927      BINDING AFFINITY PREDICTED BY RF-SCORE:    0.00 PKD
ROOT
HETATM    1  C   UNL     1     -12.776  15.712  73.721  1.00  0.00    -0.742 C  
HETATM    2  C   UNL     1     -12.047  15.932  72.405  1.00  0.00    -0.605 C  
ENDROOT
BRANCH   2   3
HETATM    3  C   UNL     1     -12.104  14.685  71.515  1.00  0.00    -0.413 C  
BRANCH   3   4
HETATM    4  C   UNL     1     -11.781  14.989  70.073  1.00  0.00    -0.306 C  
HETATM    5  C   UNL     1     -11.350  16.189  69.660  1.00  0.00    -0.316 C  
HETATM    6  C   UNL     1     -11.060  16.408  68.228  1.00  0.00    -0.337 C  
HETATM    7  N   UNL     1     -11.250  15.330  67.409  1.00  0.00    -0.328 N  
HETATM    8  O   UNL     1     -10.673  17.497  67.820  1.00  0.00    -0.380 OA 
HETATM    9  C   UNL     1     -11.696  14.109  67.823  1.00  0.00    -0.373 C  
HETATM   10  H   UNL     1     -11.044  15.446  66.417  1.00  0.00     0.000 HD 
HETATM   11  S   UNL     1     -11.907  12.844  66.768  1.00  0.00    -0.351 S  
HETATM   12  N   UNL     1     -11.961  13.978  69.157  1.00  0.00    -0.348 NA 
ENDBRANCH   3   4
ENDBRANCH   2   3
TORSDOF 2
ENDMDL
MODEL       26
REMARK 921   NORMALIZED FREE ENERGY PREDICTED BY IDOCK:   -4.00 KCAL/MOL
REMARK 922        TOTAL FREE ENERGY PREDICTED BY IDOCK:   -4.60 KCAL/MOL
REMARK 923 INTER-LIGAND FREE ENERGY PREDICTED BY IDOCK:   -4.51 KCAL/MOL
REMARK 924 INTRA-LIGAND FREE ENERGY PREDICTED BY IDOCK:   -0.08 KCAL/MOL
REMARK 927      BINDING AFFINITY PREDICTED BY RF-SCORE:    0.00 PKD
ROOT
HETATM    1  C   UNL     1     -12.306  12.416  63.637  1.00  0.00    -0.647 C  
HETATM    2  C   UNL     1     -12.138  12.369  65.148  1.00  0.00    -0.464 C  
ENDROOT
BRANCH   2   3
HETATM    3  C   UNL     1     -12.251  13.764  65.771  1.00  0.00    -0.495 C  
BRANCH   3   4
HETATM    4  C   UNL     1     -11.910  13.770  67.241  1.00  0.00    -0.401 C  
HETATM    5  C   UNL     1     -11.588  14.886  67.910  1.00  0.00    -0.364 C  
HETATM    6  C   UNL     1     -11.261  14.806  69.348  1.00  0.00    -0.284 C  
HETATM    7  N   UNL     1     -11.325  13.559  69.907  1.00  0.00    -0.485 N  
HETATM    8  O   UNL     1     -10.954  15.808  69.984  1.00  0.00    -0.279 OA 
HETATM    9  C   UNL     1     -11.644  12.420  69.228  1.00  0.00    -0.319 C  
HETATM   10  H   UNL     1     -11.119  13.475  70.902  1.00  0.00     0.000 HD 
HETATM   11  S   UNL     1     -11.699  10.937  69.974  1.00  0.00    -0.374 S  
HETATM   12  N   UNL     1     -11.921  12.561  67.897  1.00  0.00    -0.399 NA 
ENDBRANCH   3   4
ENDBRANCH   2   3
TORSDOF 2
ENDMDL
MODEL       27
REMARK 921   NORMALIZED FREE ENERGY PREDICTED BY IDOCK:   -3.99 KCAL/MOL
REMARK 922        TOTAL FREE ENERGY PREDICTED BY IDOCK:   -4.58 KCAL/MOL
REMARK 923 INTER-LIGAND FREE ENERGY PREDICTED BY IDOCK:   -4.48 KCAL/MOL
REMARK 924 INTRA-LIGAND FREE ENERGY PREDICTED BY IDOCK:   -0.11 KCAL/MOL
REMARK 927      BINDING AFFINITY PREDICTED BY RF-SCORE:    0.00 PKD
ROOT
HETATM    1  C   UNL     1     -11.388   8.031  72.633  1.00  0.00    -0.469 C  
HETATM    2  C   UNL     1     -12.574   8.216  71.700  1.00  0.00    -0.347 C  
ENDROOT
BRANCH   2   3
HETATM    3  C   UNL     1     -13.419   9.431  72.096  1.00  0.00    -0.543 C  
BRANCH   3   4
HETATM    4  C   UNL     1     -12.923  10.710  71.468  1.00  0.00    -0.461 C  
HETATM    5  C   UNL     1     -12.239  10.738  70.316  1.00  0.00    -0.431 C  
HETATM    6  C   UNL     1     -11.783  12.032  69.769  1.00  0.00    -0.319 C  
HETATM    7  N   UNL     1     -12.113  13.140  70.499  1.00  0.00    -0.489 N  
HETATM    8  O   UNL     1     -11.148  12.088  68.721  1.00  0.00    -0.220 OA 
HETATM    9  C   UNL     1     -12.802  13.115  71.677  1.00  0.00    -0.291 C  
HETATM   10  H   UNL     1     -11.825  14.049  70.139  1.00  0.00     0.000 HD 
HETATM   11  S   UNL     1     -13.166  14.503  72.513  1.00  0.00    -0.484 S  
HETATM   12  N   UNL     1     -13.181  11.885  72.135  1.00  0.00    -0.423 NA 
ENDBRANCH   3   4
ENDBRANCH   2   3
TORSDOF 2
ENDMDL
MODEL       28
REMARK 921   NORMALIZED FREE ENERGY PREDICTED BY IDOCK:   -3.99 KCAL/MOL
REMARK 922        TOTAL FREE ENERGY PREDICTED BY IDOCK:   -4.58 KCAL/MOL
REMARK 923 INTER-LIGAND FREE ENERGY PREDICTED BY IDOCK:   -4.50 KCAL/MOL
REMARK 924 INTRA-LIGAND FREE ENERGY PREDICTED BY IDOCK:   -0.07 KCAL/MOL
REMARK 927      BINDING AFFINITY PREDICTED BY RF-SCORE:    0.00 PKD
ROOT
HETATM    1  C   UNL     1     -10.030  19.996  66.744  1.00  0.00    -0.585 C  
HETATM    2  C   UNL     1     -10.769  18.902  67.498  1.00  0.00    -0.509 C  
ENDROOT
BRANCH   2   3
HETATM    3  C   UNL     1      -9.960  17.601  67.538  1.00  0.00    -0.322 C  
BRANCH   3   4
HETATM    4  C   UNL     1     -10.804  16.407  67.914  1.00  0.00    -0.328 C  
HETATM    5  C   UNL     1     -11.024  15.380  67.083  1.00  0.00    -0.317 C  
HETATM    6  C   UNL     1     -11.867  14.250  67.525  1.00  0.00    -0.395 C  
HETATM    7  N   UNL     1     -12.365  14.338  68.795  1.00  0.00    -0.573 N  
HETATM    8  O   UNL     1     -12.092  13.301  66.783  1.00  0.00    -0.384 OA 
HETATM    9  C   UNL     1     -12.151  15.386  69.641  1.00  0.00    -0.327 C  
HETATM   10  H   UNL     1     -12.939  13.566  69.134  1.00  0.00     0.000 HD 
HETATM   11  S   UNL     1     -12.793  15.427  71.173  1.00  0.00    -0.480 S  
HETATM   12  N   UNL     1     -11.375  16.405  69.165  1.00  0.00    -0.283 NA 
ENDBRANCH   3   4
ENDBRANCH   2   3
TORSDOF 2
ENDMDL
MODEL       29
REMARK 921   NORMALIZED FREE ENERGY PREDICTED BY IDOCK:   -3.96 KCAL/MOL
REMARK 922        TOTAL FREE ENERGY PREDICTED BY IDOCK:   -4.55 KCAL/MOL
REMARK 923 INTER-LIGAND FREE ENERGY PREDICTED BY IDOCK:   -4.45 KCAL/MOL
REMARK 924 INTRA-LIGAND FREE ENERGY PREDICTED BY IDOCK:   -0.09 KCAL/MOL
REMARK 927      BINDING AFFINITY PREDICTED BY RF-SCORE:    0.00 PKD
ROOT
HETATM    1  C   UNL     1     -12.112  12.522  63.571  1.00  0.00    -0.653 C  
HETATM    2  C   UNL     1     -12.153  13.867  64.279  1.00  0.00    -0.477 C  
ENDROOT
BRANCH   2   3
HETATM    3  C   UNL     1     -10.756  14.311  64.728  1.00  0.00    -0.435 C  
BRANCH   3   4
HETATM    4  C   UNL     1     -10.801  15.283  65.881  1.00  0.00    -0.342 C  
HETATM    5  C   UNL     1     -11.398  15.003  67.047  1.00  0.00    -0.319 C  
HETATM    6  C   UNL     1     -11.403  16.012  68.126  1.00  0.00    -0.289 C  
HETATM    7  N   UNL     1     -10.767  17.190  67.845  1.00  0.00    -0.372 N  
HETATM    8  O   UNL     1     -11.947  15.787  69.201  1.00  0.00    -0.387 OA 
HETATM    9  C   UNL     1     -10.166  17.483  66.656  1.00  0.00    -0.332 C  
HETATM   10  H   UNL     1     -10.741  17.901  68.575  1.00  0.00     0.000 HD 
HETATM   11  S   UNL     1      -9.415  18.939  66.383  1.00  0.00    -0.315 S  
HETATM   12  N   UNL     1     -10.211  16.512  65.695  1.00  0.00    -0.535 NA 
ENDBRANCH   3   4
ENDBRANCH   2   3
TORSDOF 2
ENDMDL
MODEL       30
REMARK 921   NORMALIZED FREE ENERGY PREDICTED BY IDOCK:   -3.94 KCAL/MOL
REMARK 922        TOTAL FREE ENERGY PREDICTED BY IDOCK:   -4.53 KCAL/MOL
REMARK 923 INTER-LIGAND FREE ENERGY PREDICTED BY IDOCK:   -4.42 KCAL/MOL
REMARK 924 INTRA-LIGAND FREE ENERGY PREDICTED BY IDOCK:   -0.11 KCAL/MOL
REMARK 927      BINDING AFFINITY PREDICTED BY RF-SCORE:    0.00 PKD
ROOT
HETATM    1  C   UNL     1     -11.303  10.929  67.470  1.00  0.00    -0.309 C  
HETATM    2  C   UNL     1     -11.608  11.207  68.934  1.00  0.00    -0.385 C  
ENDROOT
BRANCH   2   3
HETATM    3  C   UNL     1     -10.616  10.496  69.861  1.00  0.00    -0.261 C  
BRANCH   3   4
HETATM    4  C   UNL     1     -11.304   9.702  70.944  1.00  0.00    -0.360 C  
HETATM    5  C   UNL     1     -12.613   9.814  71.209  1.00  0.00    -0.460 C  
HETATM    6  C   UNL     1     -13.211   9.004  72.291  1.00  0.00    -0.460 C  
HETATM    7  N   UNL     1     -12.355   8.168  72.953  1.00  0.00    -0.572 N  
HETATM    8  O   UNL     1     -14.403   9.092  72.562  1.00  0.00    -0.570 OA 
HETATM    9  C   UNL     1     -11.021   8.057  72.692  1.00  0.00    -0.382 C  
HETATM   10  H   UNL     1     -12.742   7.585  73.695  1.00  0.00     0.000 HD 
HETATM   11  S   UNL     1     -10.041   7.019  73.540  1.00  0.00    -0.347 S  
HETATM   12  N   UNL     1     -10.529   8.845  71.689  1.00  0.00    -0.312 NA 
ENDBRANCH   3   4
ENDBRANCH   2   3
TORSDOF 2
ENDMDL
MODEL       31
REMARK 921   NORMALIZED FREE ENERGY PREDICTED BY IDOCK:   -3.91 KCAL/MOL
REMARK 922        TOTAL FREE ENERGY PREDICTED BY IDOCK:   -4.49 KCAL/MOL
REMARK 923 INTER-LIGAND FREE ENERGY PREDICTED BY IDOCK:   -4.40 KCAL/MOL
REMARK 924 INTRA-LIGAND FREE ENERGY PREDICTED BY IDOCK:   -0.09 KCAL/MOL
REMARK 927      BINDING AFFINITY PREDICTED BY RF-SCORE:    0.00 PKD
ROOT
HETATM    1  C   UNL     1      -9.413   8.604  66.008  1.00  0.00    -0.278 C  
HETATM    2  C   UNL     1      -9.497  10.121  66.063  1.00  0.00    -0.248 C  
ENDROOT
BRANCH   2   3
HETATM    3  C   UNL     1     -10.283  10.684  64.873  1.00  0.00    -0.395 C  
BRANCH   3   4
HETATM    4  C   UNL     1     -10.980  11.981  65.203  1.00  0.00    -0.310 C  
HETATM    5  C   UNL     1     -11.475  12.801  64.265  1.00  0.00    -0.427 C  
HETATM    6  C   UNL     1     -12.139  14.056  64.671  1.00  0.00    -0.440 C  
HETATM    7  N   UNL     1     -12.209  14.288  66.017  1.00  0.00    -0.421 N  
HETATM    8  O   UNL     1     -12.594  14.830  63.835  1.00  0.00    -0.834 OA 
HETATM    9  C   UNL     1     -11.700  13.460  66.973  1.00  0.00    -0.381 C  
HETATM   10  H   UNL     1     -12.676  15.140  66.327  1.00  0.00     0.000 HD 
HETATM   11  S   UNL     1     -11.820  13.808  68.593  1.00  0.00    -0.381 S  
HETATM   12  N   UNL     1     -11.084  12.323  66.531  1.00  0.00    -0.283 NA 
ENDBRANCH   3   4
ENDBRANCH   2   3
TORSDOF 2
ENDMDL
MODEL       32
REMARK 921   NORMALIZED FREE ENERGY PREDICTED BY IDOCK:   -3.90 KCAL/MOL
REMARK 922        TOTAL FREE ENERGY PREDICTED BY IDOCK:   -4.49 KCAL/MOL
REMARK 923 INTER-LIGAND FREE ENERGY PREDICTED BY IDOCK:   -4.41 KCAL/MOL
REMARK 924 INTRA-LIGAND FREE ENERGY PREDICTED BY IDOCK:   -0.08 KCAL/MOL
REMARK 927      BINDING AFFINITY PREDICTED BY RF-SCORE:    0.00 PKD
ROOT
HETATM    1  C   UNL     1     -10.342  19.879  66.249  1.00  0.00    -0.608 C  
HETATM    2  C   UNL     1     -10.503  18.841  67.348  1.00  0.00    -0.490 C  
ENDROOT
BRANCH   2   3
HETATM    3  C   UNL     1      -9.891  17.495  66.946  1.00  0.00    -0.302 C  
BRANCH   3   4
HETATM    4  C   UNL     1     -10.735  16.323  67.383  1.00  0.00    -0.287 C  
HETATM    5  C   UNL     1     -11.083  16.111  68.659  1.00  0.00    -0.356 C  
HETATM    6  C   UNL     1     -11.908  14.935  69.006  1.00  0.00    -0.301 C  
HETATM    7  N   UNL     1     -12.273  14.133  67.960  1.00  0.00    -0.561 N  
HETATM    8  O   UNL     1     -12.234  14.711  70.165  1.00  0.00    -0.301 OA 
HETATM    9  C   UNL     1     -11.914  14.340  66.661  1.00  0.00    -0.430 C  
HETATM   10  H   UNL     1     -12.856  13.322  68.167  1.00  0.00     0.000 HD 
HETATM   11  S   UNL     1     -12.394  13.320  65.441  1.00  0.00    -0.490 S  
HETATM   12  N   UNL     1     -11.138  15.437  66.411  1.00  0.00    -0.281 NA 
ENDBRANCH   3   4
ENDBRANCH   2   3
TORSDOF 2
ENDMDL
MODEL       33
REMARK 921   NORMALIZED FREE ENERGY PREDICTED BY IDOCK:   -3.90 KCAL/MOL
REMARK 922        TOTAL FREE ENERGY PREDICTED BY IDOCK:   -4.48 KCAL/MOL
REMARK 923 INTER-LIGAND FREE ENERGY PREDICTED BY IDOCK:   -4.35 KCAL/MOL
REMARK 924 INTRA-LIGAND FREE ENERGY PREDICTED BY IDOCK:   -0.13 KCAL/MOL
REMARK 927      BINDING AFFINITY PREDICTED BY RF-SCORE:    0.00 PKD
ROOT
HETATM    1  C   UNL     1     -10.599  11.802  63.505  1.00  0.00    -0.499 C  
HETATM    2  C   UNL     1     -12.039  12.232  63.741  1.00  0.00    -0.624 C  
ENDROOT
BRANCH   2   3
HETATM    3  C   UNL     1     -12.159  13.755  63.860  1.00  0.00    -0.423 C  
BRANCH   3   4
HETATM    4  C   UNL     1     -11.765  14.262  65.225  1.00  0.00    -0.357 C  
HETATM    5  C   UNL     1     -12.134  13.656  66.362  1.00  0.00    -0.478 C  
HETATM    6  C   UNL     1     -11.710  14.219  67.660  1.00  0.00    -0.389 C  
HETATM    7  N   UNL     1     -10.939  15.347  67.599  1.00  0.00    -0.309 N  
HETATM    8  O   UNL     1     -12.039  13.691  68.716  1.00  0.00    -0.355 OA 
HETATM    9  C   UNL     1     -10.568  15.971  66.445  1.00  0.00    -0.284 C  
HETATM   10  H   UNL     1     -10.619  15.750  68.479  1.00  0.00     0.000 HD 
HETATM   11  S   UNL     1      -9.631  17.343  66.447  1.00  0.00    -0.259 S  
HETATM   12  N   UNL     1     -11.006  15.408  65.279  1.00  0.00    -0.374 NA 
ENDBRANCH   3   4
ENDBRANCH   2   3
TORSDOF 2
ENDMDL
MODEL       34
REMARK 921   NORMALIZED FREE ENERGY PREDICTED BY IDOCK:   -3.84 KCAL/MOL
REMARK 922        TOTAL FREE ENERGY PREDICTED BY IDOCK:   -4.41 KCAL/MOL
REMARK 923 INTER-LIGAND FREE ENERGY PREDICTED BY IDOCK:   -4.30 KCAL/MOL
REMARK 924 INTRA-LIGAND FREE ENERGY PREDICTED BY IDOCK:   -0.11 KCAL/MOL
REMARK 927      BINDING AFFINITY PREDICTED BY RF-SCORE:    0.00 PKD
ROOT
HETATM    1  C   UNL     1      -9.482  18.547  68.462  1.00  0.00    -0.375 C  
HETATM    2  C   UNL     1      -8.703  17.727  67.445  1.00  0.00    -0.235 C  
ENDROOT
BRANCH   2   3
HETATM    3  C   UNL     1      -8.958  16.226  67.618  1.00  0.00    -0.194 C  
BRANCH   3   4
HETATM    4  C   UNL     1      -9.730  15.634  66.465  1.00  0.00    -0.266 C  
HETATM    5  C   UNL     1     -10.442  16.377  65.606  1.00  0.00    -0.364 C  
HETATM    6  C   UNL     1     -11.175  15.720  64.505  1.00  0.00    -0.322 C  
HETATM    7  N   UNL     1     -11.059  14.359  64.439  1.00  0.00    -0.614 N  
HETATM    8  O   UNL     1     -11.841  16.373  63.710  1.00  0.00    -1.002 OA 
HETATM    9  C   UNL     1     -10.343  13.598  65.315  1.00  0.00    -0.348 C  
HETATM   10  H   UNL     1     -11.542  13.879  63.680  1.00  0.00     0.000 HD 
HETATM   11  S   UNL     1     -10.248  11.946  65.174  1.00  0.00    -0.284 S  
HETATM   12  N   UNL     1      -9.701  14.266  66.319  1.00  0.00    -0.296 NA 
ENDBRANCH   3   4
ENDBRANCH   2   3
TORSDOF 2
ENDMDL
MODEL       35
REMARK 921   NORMALIZED FREE ENERGY PREDICTED BY IDOCK:   -3.83 KCAL/MOL
REMARK 922        TOTAL FREE ENERGY PREDICTED BY IDOCK:   -4.40 KCAL/MOL
REMARK 923 INTER-LIGAND FREE ENERGY PREDICTED BY IDOCK:   -4.33 KCAL/MOL
REMARK 924 INTRA-LIGAND FREE ENERGY PREDICTED BY IDOCK:   -0.07 KCAL/MOL
REMARK 927      BINDING AFFINITY PREDICTED BY RF-SCORE:    0.00 PKD
ROOT
HETATM    1  C   UNL     1     -10.449   9.002  67.752  1.00  0.00    -0.305 C  
HETATM    2  C   UNL     1     -11.141  10.352  67.858  1.00  0.00    -0.363 C  
ENDROOT
BRANCH   2   3
HETATM    3  C   UNL     1     -10.669  11.132  69.090  1.00  0.00    -0.262 C  
BRANCH   3   4
HETATM    4  C   UNL     1     -11.680  11.108  70.210  1.00  0.00    -0.341 C  
HETATM    5  C   UNL     1     -12.087   9.977  70.801  1.00  0.00    -0.418 C  
HETATM    6  C   UNL     1     -13.085  10.039  71.888  1.00  0.00    -0.460 C  
HETATM    7  N   UNL     1     -13.523  11.289  72.227  1.00  0.00    -0.521 N  
HETATM    8  O   UNL     1     -13.483   9.019  72.441  1.00  0.00    -0.430 OA 
HETATM    9  C   UNL     1     -13.117  12.443  71.623  1.00  0.00    -0.307 C  
HETATM   10  H   UNL     1     -14.201  11.365  72.984  1.00  0.00     0.000 HD 
HETATM   11  S   UNL     1     -13.695  13.930  72.086  1.00  0.00    -0.566 S  
HETATM   12  N   UNL     1     -12.204  12.314  70.614  1.00  0.00    -0.357 NA 
ENDBRANCH   3   4
ENDBRANCH   2   3
TORSDOF 2
ENDMDL
MODEL       36
REMARK 921   NORMALIZED FREE ENERGY PREDICTED BY IDOCK:   -3.82 KCAL/MOL
REMARK 922        TOTAL FREE ENERGY PREDICTED BY IDOCK:   -4.39 KCAL/MOL
REMARK 923 INTER-LIGAND FREE ENERGY PREDICTED BY IDOCK:   -4.28 KCAL/MOL
REMARK 924 INTRA-LIGAND FREE ENERGY PREDICTED BY IDOCK:   -0.11 KCAL/MOL
REMARK 927      BINDING AFFINITY PREDICTED BY RF-SCORE:    0.00 PKD
ROOT
HETATM    1  C   UNL     1     -11.517  10.291  70.843  1.00  0.00    -0.425 C  
HETATM    2  C   UNL     1     -12.455  11.424  70.456  1.00  0.00    -0.381 C  
ENDROOT
BRANCH   2   3
HETATM    3  C   UNL     1     -11.797  12.383  69.458  1.00  0.00    -0.368 C  
BRANCH   3   4
HETATM    4  C   UNL     1     -11.672  13.786  70.001  1.00  0.00    -0.257 C  
HETATM    5  C   UNL     1     -11.067  14.776  69.330  1.00  0.00    -0.283 C  
HETATM    6  C   UNL     1     -10.982  16.121  69.934  1.00  0.00    -0.362 C  
HETATM    7  N   UNL     1     -11.556  16.260  71.167  1.00  0.00    -0.585 N  
HETATM    8  O   UNL     1     -10.428  17.044  69.348  1.00  0.00    -0.321 OA 
HETATM    9  C   UNL     1     -12.165  15.253  71.857  1.00  0.00    -0.361 C  
HETATM   10  H   UNL     1     -11.526  17.181  71.603  1.00  0.00     0.000 HD 
HETATM   11  S   UNL     1     -12.839  15.495  73.356  1.00  0.00    -0.588 S  
HETATM   12  N   UNL     1     -12.196  14.030  71.249  1.00  0.00    -0.347 NA 
ENDBRANCH   3   4
ENDBRANCH   2   3
TORSDOF 2
ENDMDL
MODEL       37
REMARK 921   NORMALIZED FREE ENERGY PREDICTED BY IDOCK:   -3.82 KCAL/MOL
REMARK 922        TOTAL FREE ENERGY PREDICTED BY IDOCK:   -4.39 KCAL/MOL
REMARK 923 INTER-LIGAND FREE ENERGY PREDICTED BY IDOCK:   -4.27 KCAL/MOL
REMARK 924 INTRA-LIGAND FREE ENERGY PREDICTED BY IDOCK:   -0.12 KCAL/MOL
REMARK 927      BINDING AFFINITY PREDICTED BY RF-SCORE:    0.00 PKD
ROOT
HETATM    1  C   UNL     1      -9.012  11.181  66.344  1.00  0.00    -0.190 C  
HETATM    2  C   UNL     1      -9.688  11.682  67.611  1.00  0.00    -0.186 C  
ENDROOT
BRANCH   2   3
HETATM    3  C   UNL     1     -11.165  12.012  67.369  1.00  0.00    -0.368 C  
BRANCH   3   4
HETATM    4  C   UNL     1     -11.353  13.089  66.329  1.00  0.00    -0.317 C  
HETATM    5  C   UNL     1     -12.006  12.884  65.177  1.00  0.00    -0.452 C  
HETATM    6  C   UNL     1     -12.143  13.991  64.208  1.00  0.00    -0.445 C  
HETATM    7  N   UNL     1     -11.583  15.182  64.579  1.00  0.00    -0.612 N  
HETATM    8  O   UNL     1     -12.727  13.830  63.143  1.00  0.00    -0.743 OA 
HETATM    9  C   UNL     1     -10.911  15.393  65.747  1.00  0.00    -0.343 C  
HETATM   10  H   UNL     1     -11.675  15.969  63.937  1.00  0.00     0.000 HD 
HETATM   11  S   UNL     1     -10.253  16.870  66.130  1.00  0.00    -0.317 S  
HETATM   12  N   UNL     1     -10.807  14.324  66.592  1.00  0.00    -0.298 NA 
ENDBRANCH   3   4
ENDBRANCH   2   3
TORSDOF 2
ENDMDL
MODEL       38
REMARK 921   NORMALIZED FREE ENERGY PREDICTED BY IDOCK:   -3.79 KCAL/MOL
REMARK 922        TOTAL FREE ENERGY PREDICTED BY IDOCK:   -4.36 KCAL/MOL
REMARK 923 INTER-LIGAND FREE ENERGY PREDICTED BY IDOCK:   -4.24 KCAL/MOL
REMARK 924 INTRA-LIGAND FREE ENERGY PREDICTED BY IDOCK:   -0.12 KCAL/MOL
REMARK 927      BINDING AFFINITY PREDICTED BY RF-SCORE:    0.00 PKD
ROOT
HETATM    1  C   UNL     1      -9.324  11.105  65.753  1.00  0.00    -0.238 C  
HETATM    2  C   UNL     1     -10.733  11.575  65.428  1.00  0.00    -0.335 C  
ENDROOT
BRANCH   2   3
HETATM    3  C   UNL     1     -11.296  12.474  66.534  1.00  0.00    -0.387 C  
BRANCH   3   4
HETATM    4  C   UNL     1     -11.097  13.942  66.244  1.00  0.00    -0.304 C  
HETATM    5  C   UNL     1     -11.479  14.515  65.094  1.00  0.00    -0.368 C  
HETATM    6  C   UNL     1     -11.244  15.958  64.884  1.00  0.00    -0.337 C  
HETATM    7  N   UNL     1     -10.644  16.622  65.919  1.00  0.00    -0.291 N  
HETATM    8  O   UNL     1     -11.574  16.508  63.840  1.00  0.00    -1.175 OA 
HETATM    9  C   UNL     1     -10.246  16.041  67.087  1.00  0.00    -0.278 C  
HETATM   10  H   UNL     1     -10.482  17.623  65.809  1.00  0.00     0.000 HD 
HETATM   11  S   UNL     1      -9.520  16.911  68.301  1.00  0.00    -0.259 S  
HETATM   12  N   UNL     1     -10.479  14.700  67.211  1.00  0.00    -0.264 NA 
ENDBRANCH   3   4
ENDBRANCH   2   3
TORSDOF 2
ENDMDL
MODEL       39
REMARK 921   NORMALIZED FREE ENERGY PREDICTED BY IDOCK:   -3.76 KCAL/MOL
REMARK 922        TOTAL FREE ENERGY PREDICTED BY IDOCK:   -4.33 KCAL/MOL
REMARK 923 INTER-LIGAND FREE ENERGY PREDICTED BY IDOCK:   -4.24 KCAL/MOL
REMARK 924 INTRA-LIGAND FREE ENERGY PREDICTED BY IDOCK:   -0.09 KCAL/MOL
REMARK 927      BINDING AFFINITY PREDICTED BY RF-SCORE:    0.00 PKD
ROOT
HETATM    1  C   UNL     1      -9.694   8.562  66.899  1.00  0.00    -0.286 C  
HETATM    2  C   UNL     1     -10.240   9.947  66.589  1.00  0.00    -0.293 C  
ENDROOT
BRANCH   2   3
HETATM    3  C   UNL     1     -11.022  10.522  67.776  1.00  0.00    -0.372 C  
BRANCH   3   4
HETATM    4  C   UNL     1     -11.513  11.925  67.518  1.00  0.00    -0.326 C  
HETATM    5  C   UNL     1     -11.954  12.335  66.320  1.00  0.00    -0.307 C  
HETATM    6  C   UNL     1     -12.414  13.728  66.148  1.00  0.00    -0.418 C  
HETATM    7  N   UNL     1     -12.362  14.516  67.264  1.00  0.00    -0.562 N  
HETATM    8  O   UNL     1     -12.814  14.133  65.062  1.00  0.00    -0.687 OA 
HETATM    9  C   UNL     1     -11.907  14.106  68.483  1.00  0.00    -0.355 C  
HETATM   10  H   UNL     1     -12.687  15.479  67.180  1.00  0.00     0.000 HD 
HETATM   11  S   UNL     1     -11.871  15.122  69.797  1.00  0.00    -0.354 S  
HETATM   12  N   UNL     1     -11.482  12.810  68.570  1.00  0.00    -0.285 NA 
ENDBRANCH   3   4
ENDBRANCH   2   3
TORSDOF 2
ENDMDL
MODEL       40
REMARK 921   NORMALIZED FREE ENERGY PREDICTED BY IDOCK:   -3.75 KCAL/MOL
REMARK 922        TOTAL FREE ENERGY PREDICTED BY IDOCK:   -4.31 KCAL/MOL
REMARK 923 INTER-LIGAND FREE ENERGY PREDICTED BY IDOCK:   -4.21 KCAL/MOL
REMARK 924 INTRA-LIGAND FREE ENERGY PREDICTED BY IDOCK:   -0.10 KCAL/MOL
REMARK 927      BINDING AFFINITY PREDICTED BY RF-SCORE:    0.00 PKD
ROOT
HETATM    1  C   UNL     1     -12.373  15.190  70.722  1.00  0.00    -0.415 C  
HETATM    2  C   UNL     1     -11.775  15.375  69.336  1.00  0.00    -0.369 C  
ENDROOT
BRANCH   2   3
HETATM    3  C   UNL     1     -11.281  14.046  68.754  1.00  0.00    -0.298 C  
BRANCH   3   4
HETATM    4  C   UNL     1     -11.025  14.124  67.270  1.00  0.00    -0.297 C  
HETATM    5  C   UNL     1     -11.104  15.268  66.576  1.00  0.00    -0.271 C  
HETATM    6  C   UNL     1     -10.844  15.260  65.122  1.00  0.00    -0.426 C  
HETATM    7  N   UNL     1     -10.521  14.046  64.580  1.00  0.00    -0.584 N  
HETATM    8  O   UNL     1     -10.917  16.289  64.460  1.00  0.00    -0.687 OA 
HETATM    9  C   UNL     1     -10.448  12.879  65.280  1.00  0.00    -0.296 C  
HETATM   10  H   UNL     1     -10.321  14.012  63.580  1.00  0.00     0.000 HD 
HETATM   11  S   UNL     1     -10.052  11.439  64.553  1.00  0.00    -0.309 S  
HETATM   12  N   UNL     1     -10.715  12.953  66.618  1.00  0.00    -0.263 NA 
ENDBRANCH   3   4
ENDBRANCH   2   3
TORSDOF 2
ENDMDL
MODEL       41
REMARK 921   NORMALIZED FREE ENERGY PREDICTED BY IDOCK:   -3.70 KCAL/MOL
REMARK 922        TOTAL FREE ENERGY PREDICTED BY IDOCK:   -4.26 KCAL/MOL
REMARK 923 INTER-LIGAND FREE ENERGY PREDICTED BY IDOCK:   -4.16 KCAL/MOL
REMARK 924 INTRA-LIGAND FREE ENERGY PREDICTED BY IDOCK:   -0.10 KCAL/MOL
REMARK 927      BINDING AFFINITY PREDICTED BY RF-SCORE:    0.00 PKD
ROOT
HETATM    1  C   UNL     1     -11.929  13.172  63.469  1.00  0.00    -0.580 C  
HETATM    2  C   UNL     1     -11.071  13.804  64.554  1.00  0.00    -0.388 C  
ENDROOT
BRANCH   2   3
HETATM    3  C   UNL     1     -11.504  15.245  64.846  1.00  0.00    -0.343 C  
BRANCH   3   4
HETATM    4  C   UNL     1     -10.426  16.042  65.539  1.00  0.00    -0.405 C  
HETATM    5  C   UNL     1      -9.308  15.487  66.026  1.00  0.00    -0.379 C  
HETATM    6  C   UNL     1      -8.303  16.337  66.696  1.00  0.00    -0.280 C  
HETATM    7  N   UNL     1      -8.597  17.671  66.762  1.00  0.00    -0.245 N  
HETATM    8  O   UNL     1      -7.275  15.857  67.158  1.00  0.00    -0.196 OA 
HETATM    9  C   UNL     1      -9.738  18.239  66.275  1.00  0.00    -0.291 C  
HETATM   10  H   UNL     1      -7.915  18.286  67.206  1.00  0.00     0.000 HD 
HETATM   11  S   UNL     1     -10.029  19.870  66.393  1.00  0.00    -0.504 S  
HETATM   12  N   UNL     1     -10.633  17.395  65.680  1.00  0.00    -0.546 NA 
ENDBRANCH   3   4
ENDBRANCH   2   3
TORSDOF 2
ENDMDL
MODEL       42
REMARK 921   NORMALIZED FREE ENERGY PREDICTED BY IDOCK:   -3.68 KCAL/MOL
REMARK 922        TOTAL FREE ENERGY PREDICTED BY IDOCK:   -4.24 KCAL/MOL
REMARK 923 INTER-LIGAND FREE ENERGY PREDICTED BY IDOCK:   -4.11 KCAL/MOL
REMARK 924 INTRA-LIGAND FREE ENERGY PREDICTED BY IDOCK:   -0.13 KCAL/MOL
REMARK 927      BINDING AFFINITY PREDICTED BY RF-SCORE:    0.00 PKD
ROOT
HETATM    1  C   UNL     1     -11.485  12.502  63.481  1.00  0.00    -0.570 C  
HETATM    2  C   UNL     1     -12.679  12.543  64.422  1.00  0.00    -0.447 C  
ENDROOT
BRANCH   2   3
HETATM    3  C   UNL     1     -12.569  13.701  65.421  1.00  0.00    -0.533 C  
BRANCH   3   4
HETATM    4  C   UNL     1     -11.679  13.369  66.594  1.00  0.00    -0.385 C  
HETATM    5  C   UNL     1     -10.491  13.956  66.796  1.00  0.00    -0.270 C  
HETATM    6  C   UNL     1      -9.677  13.571  67.967  1.00  0.00    -0.228 C  
HETATM    7  N   UNL     1     -10.221  12.622  68.787  1.00  0.00    -0.406 N  
HETATM    8  O   UNL     1      -8.583  14.084  68.173  1.00  0.00    -0.165 OA 
HETATM    9  C   UNL     1     -11.425  12.016  68.581  1.00  0.00    -0.297 C  
HETATM   10  H   UNL     1      -9.688  12.346  69.612  1.00  0.00     0.000 HD 
HETATM   11  S   UNL     1     -12.023  10.866  69.620  1.00  0.00    -0.336 S  
HETATM   12  N   UNL     1     -12.121  12.406  67.471  1.00  0.00    -0.472 NA 
ENDBRANCH   3   4
ENDBRANCH   2   3
TORSDOF 2
ENDMDL
MODEL       43
REMARK 921   NORMALIZED FREE ENERGY PREDICTED BY IDOCK:   -3.68 KCAL/MOL
REMARK 922        TOTAL FREE ENERGY PREDICTED BY IDOCK:   -4.23 KCAL/MOL
REMARK 923 INTER-LIGAND FREE ENERGY PREDICTED BY IDOCK:   -4.11 KCAL/MOL
REMARK 924 INTRA-LIGAND FREE ENERGY PREDICTED BY IDOCK:   -0.13 KCAL/MOL
REMARK 927      BINDING AFFINITY PREDICTED BY RF-SCORE:    0.00 PKD
ROOT
HETATM    1  C   UNL     1     -12.682  12.773  64.666  1.00  0.00    -0.439 C  
HETATM    2  C   UNL     1     -11.855  12.635  65.935  1.00  0.00    -0.499 C  
ENDROOT
BRANCH   2   3
HETATM    3  C   UNL     1     -10.510  13.360  65.812  1.00  0.00    -0.291 C  
BRANCH   3   4
HETATM    4  C   UNL     1     -10.540  14.741  66.417  1.00  0.00    -0.300 C  
HETATM    5  C   UNL     1     -10.313  15.854  65.706  1.00  0.00    -0.396 C  
HETATM    6  C   UNL     1     -10.356  17.170  66.375  1.00  0.00    -0.307 C  
HETATM    7  N   UNL     1     -10.643  17.152  67.712  1.00  0.00    -0.364 N  
HETATM    8  O   UNL     1     -10.144  18.204  65.752  1.00  0.00    -0.563 OA 
HETATM    9  C   UNL     1     -10.867  16.021  68.442  1.00  0.00    -0.310 C  
HETATM   10  H   UNL     1     -10.694  18.047  68.198  1.00  0.00     0.000 HD 
HETATM   11  S   UNL     1     -11.208  16.075  70.066  1.00  0.00    -0.367 S  
HETATM   12  N   UNL     1     -10.797  14.836  67.766  1.00  0.00    -0.272 NA 
ENDBRANCH   3   4
ENDBRANCH   2   3
TORSDOF 2
ENDMDL
MODEL       44
REMARK 921   NORMALIZED FREE ENERGY PREDICTED BY IDOCK:   -3.67 KCAL/MOL
REMARK 922        TOTAL FREE ENERGY PREDICTED BY IDOCK:   -4.23 KCAL/MOL
REMARK 923 INTER-LIGAND FREE ENERGY PREDICTED BY IDOCK:   -4.15 KCAL/MOL
REMARK 924 INTRA-LIGAND FREE ENERGY PREDICTED BY IDOCK:   -0.08 KCAL/MOL
REMARK 927      BINDING AFFINITY PREDICTED BY RF-SCORE:    0.00 PKD
ROOT
HETATM    1  C   UNL     1     -12.127  14.839  71.158  1.00  0.00    -0.391 C  
HETATM    2  C   UNL     1     -12.331  15.257  69.710  1.00  0.00    -0.288 C  
ENDROOT
BRANCH   2   3
HETATM    3  C   UNL     1     -12.272  14.053  68.763  1.00  0.00    -0.237 C  
BRANCH   3   4
HETATM    4  C   UNL     1     -11.842  14.435  67.368  1.00  0.00    -0.400 C  
HETATM    5  C   UNL     1     -12.489  14.025  66.269  1.00  0.00    -0.439 C  
HETATM    6  C   UNL     1     -12.000  14.439  64.937  1.00  0.00    -0.426 C  
HETATM    7  N   UNL     1     -10.895  15.245  64.931  1.00  0.00    -0.525 N  
HETATM    8  O   UNL     1     -12.566  14.073  63.914  1.00  0.00    -0.698 OA 
HETATM    9  C   UNL     1     -10.229  15.657  66.047  1.00  0.00    -0.335 C  
HETATM   10  H   UNL     1     -10.544  15.559  64.026  1.00  0.00     0.000 HD 
HETATM   11  S   UNL     1      -8.889  16.635  65.962  1.00  0.00    -0.106 S  
HETATM   12  N   UNL     1     -10.724  15.226  67.246  1.00  0.00    -0.305 NA 
ENDBRANCH   3   4
ENDBRANCH   2   3
TORSDOF 2
ENDMDL
MODEL       45
REMARK 921   NORMALIZED FREE ENERGY PREDICTED BY IDOCK:   -3.67 KCAL/MOL
REMARK 922        TOTAL FREE ENERGY PREDICTED BY IDOCK:   -4.23 KCAL/MOL
REMARK 923 INTER-LIGAND FREE ENERGY PREDICTED BY IDOCK:   -4.10 KCAL/MOL
REMARK 924 INTRA-LIGAND FREE ENERGY PREDICTED BY IDOCK:   -0.13 KCAL/MOL
REMARK 927      BINDING AFFINITY PREDICTED BY RF-SCORE:    0.00 PKD
ROOT
HETATM    1  C   UNL     1      -9.170   9.715  67.389  1.00  0.00    -0.148 C  
HETATM    2  C   UNL     1     -10.686   9.678  67.281  1.00  0.00    -0.284 C  
ENDROOT
BRANCH   2   3
HETATM    3  C   UNL     1     -11.353  10.391  68.462  1.00  0.00    -0.283 C  
BRANCH   3   4
HETATM    4  C   UNL     1     -11.637  11.845  68.173  1.00  0.00    -0.334 C  
HETATM    5  C   UNL     1     -11.731  12.774  69.135  1.00  0.00    -0.375 C  
HETATM    6  C   UNL     1     -12.017  14.176  68.769  1.00  0.00    -0.332 C  
HETATM    7  N   UNL     1     -12.158  14.428  67.432  1.00  0.00    -0.588 N  
HETATM    8  O   UNL     1     -12.118  15.046  69.627  1.00  0.00    -0.308 OA 
HETATM    9  C   UNL     1     -12.070  13.485  66.452  1.00  0.00    -0.417 C  
HETATM   10  H   UNL     1     -12.341  15.391  67.148  1.00  0.00     0.000 HD 
HETATM   11  S   UNL     1     -12.255  13.865  64.845  1.00  0.00    -0.426 S  
HETATM   12  N   UNL     1     -11.819  12.205  66.858  1.00  0.00    -0.601 NA 
ENDBRANCH   3   4
ENDBRANCH   2   3
TORSDOF 2
ENDMDL
MODEL       46
REMARK 921   NORMALIZED FREE ENERGY PREDICTED BY IDOCK:   -3.66 KCAL/MOL
REMARK 922        TOTAL FREE ENERGY PREDICTED BY IDOCK:   -4.22 KCAL/MOL
REMARK 923 INTER-LIGAND FREE ENERGY PREDICTED BY IDOCK:   -4.11 KCAL/MOL
REMARK 924 INTRA-LIGAND FREE ENERGY PREDICTED BY IDOCK:   -0.11 KCAL/MOL
REMARK 927      BINDING AFFINITY PREDICTED BY RF-SCORE:    0.00 PKD
ROOT
HETATM    1  C   UNL     1     -10.973   5.736  71.701  1.00  0.00    -0.308 C  
HETATM    2  C   UNL     1     -11.857   6.677  70.898  1.00  0.00    -0.434 C  
ENDROOT
BRANCH   2   3
HETATM    3  C   UNL     1     -12.650   7.620  71.810  1.00  0.00    -0.359 C  
BRANCH   3   4
HETATM    4  C   UNL     1     -12.481   9.070  71.428  1.00  0.00    -0.317 C  
HETATM    5  C   UNL     1     -13.141  10.065  72.037  1.00  0.00    -0.541 C  
HETATM    6  C   UNL     1     -12.923  11.460  71.600  1.00  0.00    -0.418 C  
HETATM    7  N   UNL     1     -12.029  11.634  70.581  1.00  0.00    -0.452 N  
HETATM    8  O   UNL     1     -13.519  12.390  72.132  1.00  0.00    -0.525 OA 
HETATM    9  C   UNL     1     -11.362  10.623  69.953  1.00  0.00    -0.313 C  
HETATM   10  H   UNL     1     -11.847  12.587  70.267  1.00  0.00     0.000 HD 
HETATM   11  S   UNL     1     -10.289  10.910  68.717  1.00  0.00    -0.206 S  
HETATM   12  N   UNL     1     -11.620   9.356  70.395  1.00  0.00    -0.232 NA 
ENDBRANCH   3   4
ENDBRANCH   2   3
TORSDOF 2
ENDMDL
MODEL       47
REMARK 921   NORMALIZED FREE ENERGY PREDICTED BY IDOCK:   -3.65 KCAL/MOL
REMARK 922        TOTAL FREE ENERGY PREDICTED BY IDOCK:   -4.20 KCAL/MOL
REMARK 923 INTER-LIGAND FREE ENERGY PREDICTED BY IDOCK:   -4.10 KCAL/MOL
REMARK 924 INTRA-LIGAND FREE ENERGY PREDICTED BY IDOCK:   -0.11 KCAL/MOL
REMARK 927      BINDING AFFINITY PREDICTED BY RF-SCORE:    0.00 PKD
ROOT
HETATM    1  C   UNL     1     -10.544  12.677  65.862  1.00  0.00    -0.297 C  
HETATM    2  C   UNL     1     -11.796  13.350  66.401  1.00  0.00    -0.441 C  
ENDROOT
BRANCH   2   3
HETATM    3  C   UNL     1     -11.905  13.198  67.923  1.00  0.00    -0.390 C  
BRANCH   3   4
HETATM    4  C   UNL     1     -11.645  14.493  68.653  1.00  0.00    -0.315 C  
HETATM    5  C   UNL     1     -11.848  14.641  69.969  1.00  0.00    -0.363 C  
HETATM    6  C   UNL     1     -11.574  15.944  70.608  1.00  0.00    -0.400 C  
HETATM    7  N   UNL     1     -11.109  16.929  69.781  1.00  0.00    -0.339 N  
HETATM    8  O   UNL     1     -11.758  16.112  71.808  1.00  0.00    -0.470 OA 
HETATM    9  C   UNL     1     -10.909  16.785  68.439  1.00  0.00    -0.355 C  
HETATM   10  H   UNL     1     -10.897  17.836  70.196  1.00  0.00     0.000 HD 
HETATM   11  S   UNL     1     -10.343  18.029  67.495  1.00  0.00    -0.396 S  
HETATM   12  N   UNL     1     -11.196  15.559  67.908  1.00  0.00    -0.328 NA 
ENDBRANCH   3   4
ENDBRANCH   2   3
TORSDOF 2
ENDMDL
MODEL       48
REMARK 921   NORMALIZED FREE ENERGY PREDICTED BY IDOCK:   -3.61 KCAL/MOL
REMARK 922        TOTAL FREE ENERGY PREDICTED BY IDOCK:   -4.16 KCAL/MOL
REMARK 923 INTER-LIGAND FREE ENERGY PREDICTED BY IDOCK:   -4.04 KCAL/MOL
REMARK 924 INTRA-LIGAND FREE ENERGY PREDICTED BY IDOCK:   -0.12 KCAL/MOL
REMARK 927      BINDING AFFINITY PREDICTED BY RF-SCORE:    0.00 PKD
ROOT
HETATM    1  C   UNL     1     -11.664  13.947  66.764  1.00  0.00    -0.423 C  
HETATM    2  C   UNL     1     -10.992  14.159  68.112  1.00  0.00    -0.264 C  
ENDROOT
BRANCH   2   3
HETATM    3  C   UNL     1     -11.724  15.217  68.945  1.00  0.00    -0.357 C  
BRANCH   3   4
HETATM    4  C   UNL     1     -12.187  14.683  70.279  1.00  0.00    -0.331 C  
HETATM    5  C   UNL     1     -12.579  13.415  70.459  1.00  0.00    -0.281 C  
HETATM    6  C   UNL     1     -13.023  12.971  71.797  1.00  0.00    -0.321 C  
HETATM    7  N   UNL     1     -12.990  13.919  72.782  1.00  0.00    -0.383 N  
HETATM    8  O   UNL     1     -13.395  11.819  71.990  1.00  0.00    -0.487 OA 
HETATM    9  C   UNL     1     -12.600  15.213  72.600  1.00  0.00    -0.375 C  
HETATM   10  H   UNL     1     -13.277  13.638  73.719  1.00  0.00     0.000 HD 
HETATM   11  S   UNL     1     -12.588  16.312  73.846  1.00  0.00    -0.466 S  
HETATM   12  N   UNL     1     -12.215  15.562  71.336  1.00  0.00    -0.355 NA 
ENDBRANCH   3   4
ENDBRANCH   2   3
TORSDOF 2
ENDMDL
MODEL       49
REMARK 921   NORMALIZED FREE ENERGY PREDICTED BY IDOCK:   -3.60 KCAL/MOL
REMARK 922        TOTAL FREE ENERGY PREDICTED BY IDOCK:   -4.15 KCAL/MOL
REMARK 923 INTER-LIGAND FREE ENERGY PREDICTED BY IDOCK:   -4.03 KCAL/MOL
REMARK 924 INTRA-LIGAND FREE ENERGY PREDICTED BY IDOCK:   -0.12 KCAL/MOL
REMARK 927      BINDING AFFINITY PREDICTED BY RF-SCORE:    0.00 PKD
ROOT
HETATM    1  C   UNL     1     -12.252  12.430  70.636  1.00  0.00    -0.368 C  
HETATM    2  C   UNL     1     -11.903  11.311  69.667  1.00  0.00    -0.430 C  
ENDROOT
BRANCH   2   3
HETATM    3  C   UNL     1     -10.702  11.680  68.789  1.00  0.00    -0.254 C  
BRANCH   3   4
HETATM    4  C   UNL     1     -11.061  12.663  67.702  1.00  0.00    -0.263 C  
HETATM    5  C   UNL     1     -11.782  12.326  66.624  1.00  0.00    -0.417 C  
HETATM    6  C   UNL     1     -12.087  13.348  65.601  1.00  0.00    -0.434 C  
HETATM    7  N   UNL     1     -11.603  14.603  65.848  1.00  0.00    -0.349 N  
HETATM    8  O   UNL     1     -12.737  13.067  64.601  1.00  0.00    -0.658 OA 
HETATM    9  C   UNL     1     -10.863  14.948  66.940  1.00  0.00    -0.319 C  
HETATM   10  H   UNL     1     -11.811  15.333  65.167  1.00  0.00     0.000 HD 
HETATM   11  S   UNL     1     -10.305  16.495  67.172  1.00  0.00    -0.292 S  
HETATM   12  N   UNL     1     -10.603  13.953  67.839  1.00  0.00    -0.242 NA 
ENDBRANCH   3   4
ENDBRANCH   2   3
TORSDOF 2
ENDMDL
MODEL       50
REMARK 921   NORMALIZED FREE ENERGY PREDICTED BY IDOCK:   -3.55 KCAL/MOL
REMARK 922        TOTAL FREE ENERGY PREDICTED BY IDOCK:   -4.09 KCAL/MOL
REMARK 923 INTER-LIGAND FREE ENERGY PREDICTED BY IDOCK:   -4.02 KCAL/MOL
REMARK 924 INTRA-LIGAND FREE ENERGY PREDICTED BY IDOCK:   -0.08 KCAL/MOL
REMARK 927      BINDING AFFINITY PREDICTED BY RF-SCORE:    0.00 PKD
ROOT
HETATM    1  C   UNL     1     -14.100  14.317  71.982  1.00  0.00    -0.618 C  
HETATM    2  C   UNL     1     -13.413  15.177  70.934  1.00  0.00    -0.432 C  
ENDROOT
BRANCH   2   3
HETATM    3  C   UNL     1     -11.984  14.694  70.657  1.00  0.00    -0.380 C  
BRANCH   3   4
HETATM    4  C   UNL     1     -11.460  15.174  69.327  1.00  0.00    -0.311 C  
HETATM    5  C   UNL     1     -11.503  14.428  68.214  1.00  0.00    -0.333 C  
HETATM    6  C   UNL     1     -10.963  14.970  66.950  1.00  0.00    -0.324 C  
HETATM    7  N   UNL     1     -10.453  16.237  67.013  1.00  0.00    -0.310 N  
HETATM    8  O   UNL     1     -10.982  14.308  65.919  1.00  0.00    -0.295 OA 
HETATM    9  C   UNL     1     -10.399  16.996  68.145  1.00  0.00    -0.347 C  
HETATM   10  H   UNL     1     -10.086  16.643  66.153  1.00  0.00     0.000 HD 
HETATM   11  S   UNL     1      -9.760  18.530  68.147  1.00  0.00    -0.358 S  
HETATM   12  N   UNL     1     -10.901  16.431  69.283  1.00  0.00    -0.312 NA 
ENDBRANCH   3   4
ENDBRANCH   2   3
TORSDOF 2
ENDMDL
MODEL       51
REMARK 921   NORMALIZED FREE ENERGY PREDICTED BY IDOCK:   -3.54 KCAL/MOL
REMARK 922        TOTAL FREE ENERGY PREDICTED BY IDOCK:   -4.08 KCAL/MOL
REMARK 923 INTER-LIGAND FREE ENERGY PREDICTED BY IDOCK:   -3.99 KCAL/MOL
REMARK 924 INTRA-LIGAND FREE ENERGY PREDICTED BY IDOCK:   -0.09 KCAL/MOL
REMARK 927      BINDING AFFINITY PREDICTED BY RF-SCORE:    0.00 PKD
ROOT
HETATM    1  C   UNL     1      -9.944  16.653  67.184  1.00  0.00    -0.268 C  
HETATM    2  C   UNL     1     -10.928  15.624  67.716  1.00  0.00    -0.316 C  
ENDROOT
BRANCH   2   3
HETATM    3  C   UNL     1     -11.701  16.157  68.928  1.00  0.00    -0.250 C  
BRANCH   3   4
HETATM    4  C   UNL     1     -12.157  15.055  69.853  1.00  0.00    -0.334 C  
HETATM    5  C   UNL     1     -12.865  15.286  70.967  1.00  0.00    -0.505 C  
HETATM    6  C   UNL     1     -13.269  14.152  71.823  1.00  0.00    -0.373 C  
HETATM    7  N   UNL     1     -12.885  12.912  71.392  1.00  0.00    -0.341 N  
HETATM    8  O   UNL     1     -13.910  14.332  72.852  1.00  0.00    -0.615 OA 
HETATM    9  C   UNL     1     -12.157  12.673  70.264  1.00  0.00    -0.294 C  
HETATM   10  H   UNL     1     -13.162  12.108  71.955  1.00  0.00     0.000 HD 
HETATM   11  S   UNL     1     -11.723  11.138  69.803  1.00  0.00    -0.376 S  
HETATM   12  N   UNL     1     -11.803  13.767  69.525  1.00  0.00    -0.318 NA 
ENDBRANCH   3   4
ENDBRANCH   2   3
TORSDOF 2
ENDMDL
MODEL       52
REMARK 921   NORMALIZED FREE ENERGY PREDICTED BY IDOCK:   -3.48 KCAL/MOL
REMARK 922        TOTAL FREE ENERGY PREDICTED BY IDOCK:   -4.01 KCAL/MOL
REMARK 923 INTER-LIGAND FREE ENERGY PREDICTED BY IDOCK:   -3.90 KCAL/MOL
REMARK 924 INTRA-LIGAND FREE ENERGY PREDICTED BY IDOCK:   -0.11 KCAL/MOL
REMARK 927      BINDING AFFINITY PREDICTED BY RF-SCORE:    0.00 PKD
ROOT
HETATM    1  C   UNL     1     -11.384  15.153  64.834  1.00  0.00    -0.402 C  
HETATM    2  C   UNL     1     -12.176  14.002  65.434  1.00  0.00    -0.453 C  
ENDROOT
BRANCH   2   3
HETATM    3  C   UNL     1     -12.072  13.983  66.963  1.00  0.00    -0.455 C  
BRANCH   3   4
HETATM    4  C   UNL     1     -11.784  12.606  67.506  1.00  0.00    -0.368 C  
HETATM    5  C   UNL     1     -11.104  11.678  66.818  1.00  0.00    -0.366 C  
HETATM    6  C   UNL     1     -10.868  10.350  67.419  1.00  0.00    -0.286 C  
HETATM    7  N   UNL     1     -11.369  10.166  68.678  1.00  0.00    -0.478 N  
HETATM    8  O   UNL     1     -10.257   9.479  66.810  1.00  0.00    -0.231 OA 
HETATM    9  C   UNL     1     -12.068  11.104  69.379  1.00  0.00    -0.326 C  
HETATM   10  H   UNL     1     -11.208   9.264  69.125  1.00  0.00     0.000 HD 
HETATM   11  S   UNL     1     -12.650  10.809  70.907  1.00  0.00    -0.417 S  
HETATM   12  N   UNL     1     -12.265  12.306  68.760  1.00  0.00    -0.118 NA 
ENDBRANCH   3   4
ENDBRANCH   2   3
TORSDOF 2
ENDMDL
MODEL       53
REMARK 921   NORMALIZED FREE ENERGY PREDICTED BY IDOCK:   -3.48 KCAL/MOL
REMARK 922        TOTAL FREE ENERGY PREDICTED BY IDOCK:   -4.01 KCAL/MOL
REMARK 923 INTER-LIGAND FREE ENERGY PREDICTED BY IDOCK:   -3.93 KCAL/MOL
REMARK 924 INTRA-LIGAND FREE ENERGY PREDICTED BY IDOCK:   -0.08 KCAL/MOL
REMARK 927      BINDING AFFINITY PREDICTED BY RF-SCORE:    0.00 PKD
ROOT
HETATM    1  C   UNL     1     -10.614   5.722  67.002  1.00  0.00    -0.373 C  
HETATM    2  C   UNL     1     -10.898   6.457  68.303  1.00  0.00    -0.384 C  
ENDROOT
BRANCH   2   3
HETATM    3  C   UNL     1     -10.680   5.551  69.520  1.00  0.00    -0.332 C  
BRANCH   3   4
HETATM    4  C   UNL     1     -11.007   6.243  70.821  1.00  0.00    -0.297 C  
HETATM    5  C   UNL     1     -10.364   5.982  71.967  1.00  0.00    -0.241 C  
HETATM    6  C   UNL     1     -10.748   6.700  73.200  1.00  0.00    -0.278 C  
HETATM    7  N   UNL     1     -11.757   7.614  73.069  1.00  0.00    -0.616 N  
HETATM    8  O   UNL     1     -10.183   6.476  74.264  1.00  0.00    -0.339 OA 
HETATM    9  C   UNL     1     -12.420   7.877  71.906  1.00  0.00    -0.321 C  
HETATM   10  H   UNL     1     -12.034   8.136  73.900  1.00  0.00     0.000 HD 
HETATM   11  S   UNL     1     -13.640   9.001  71.823  1.00  0.00    -0.421 S  
HETATM   12  N   UNL     1     -12.026   7.167  70.807  1.00  0.00    -0.329 NA 
ENDBRANCH   3   4
ENDBRANCH   2   3
TORSDOF 2
ENDMDL
MODEL       54
REMARK 921   NORMALIZED FREE ENERGY PREDICTED BY IDOCK:   -3.47 KCAL/MOL
REMARK 922        TOTAL FREE ENERGY PREDICTED BY IDOCK:   -4.01 KCAL/MOL
REMARK 923 INTER-LIGAND FREE ENERGY PREDICTED BY IDOCK:   -3.89 KCAL/MOL
REMARK 924 INTRA-LIGAND FREE ENERGY PREDICTED BY IDOCK:   -0.11 KCAL/MOL
REMARK 927      BINDING AFFINITY PREDICTED BY RF-SCORE:    0.00 PKD
ROOT
HETATM    1  C   UNL     1     -12.220  13.800  66.068  1.00  0.00    -0.495 C  
HETATM    2  C   UNL     1     -11.197  14.629  66.829  1.00  0.00    -0.344 C  
ENDROOT
BRANCH   2   3
HETATM    3  C   UNL     1     -10.041  15.067  65.922  1.00  0.00    -0.343 C  
BRANCH   3   4
HETATM    4  C   UNL     1      -9.637  16.502  66.155  1.00  0.00    -0.315 C  
HETATM    5  C   UNL     1     -10.517  17.469  66.449  1.00  0.00    -0.277 C  
HETATM    6  C   UNL     1     -10.040  18.852  66.658  1.00  0.00    -0.388 C  
HETATM    7  N   UNL     1      -8.691  19.043  66.540  1.00  0.00    -0.314 N  
HETATM    8  O   UNL     1     -10.823  19.758  66.920  1.00  0.00    -0.472 OA 
HETATM    9  C   UNL     1      -7.793  18.064  66.232  1.00  0.00    -0.253 C  
HETATM   10  H   UNL     1      -8.331  19.984  66.693  1.00  0.00     0.000 HD 
HETATM   11  S   UNL     1      -6.166  18.370  66.103  1.00  0.00    -0.221 S  
HETATM   12  N   UNL     1      -8.301  16.810  66.037  1.00  0.00    -0.473 NA 
ENDBRANCH   3   4
ENDBRANCH   2   3
TORSDOF 2
ENDMDL
MODEL       55
REMARK 921   NORMALIZED FREE ENERGY PREDICTED BY IDOCK:   -3.47 KCAL/MOL
REMARK 922        TOTAL FREE ENERGY PREDICTED BY IDOCK:   -4.01 KCAL/MOL
REMARK 923 INTER-LIGAND FREE ENERGY PREDICTED BY IDOCK:   -3.91 KCAL/MOL
REMARK 924 INTRA-LIGAND FREE ENERGY PREDICTED BY IDOCK:   -0.09 KCAL/MOL
REMARK 927      BINDING AFFINITY PREDICTED BY RF-SCORE:    0.00 PKD
ROOT
HETATM    1  C   UNL     1     -10.089  18.822  66.812  1.00  0.00    -0.409 C  
HETATM    2  C   UNL     1     -10.373  17.350  67.066  1.00  0.00    -0.318 C  
ENDROOT
BRANCH   2   3
HETATM    3  C   UNL     1     -10.496  16.566  65.755  1.00  0.00    -0.343 C  
BRANCH   3   4
HETATM    4  C   UNL     1     -11.006  15.162  65.967  1.00  0.00    -0.332 C  
HETATM    5  C   UNL     1     -11.012  14.562  67.165  1.00  0.00    -0.304 C  
HETATM    6  C   UNL     1     -11.523  13.182  67.289  1.00  0.00    -0.331 C  
HETATM    7  N   UNL     1     -11.975  12.607  66.133  1.00  0.00    -0.420 N  
HETATM    8  O   UNL     1     -11.533  12.605  68.370  1.00  0.00    -0.263 OA 
HETATM    9  C   UNL     1     -11.963  13.210  64.910  1.00  0.00    -0.388 C  
HETATM   10  H   UNL     1     -12.348  11.659  66.190  1.00  0.00     0.000 HD 
HETATM   11  S   UNL     1     -12.528  12.449  63.546  1.00  0.00    -0.425 S  
HETATM   12  N   UNL     1     -11.463  14.481  64.863  1.00  0.00    -0.377 NA 
ENDBRANCH   3   4
ENDBRANCH   2   3
TORSDOF 2
ENDMDL
MODEL       56
REMARK 921   NORMALIZED FREE ENERGY PREDICTED BY IDOCK:   -3.47 KCAL/MOL
REMARK 922        TOTAL FREE ENERGY PREDICTED BY IDOCK:   -4.00 KCAL/MOL
REMARK 923 INTER-LIGAND FREE ENERGY PREDICTED BY IDOCK:   -3.93 KCAL/MOL
REMARK 924 INTRA-LIGAND FREE ENERGY PREDICTED BY IDOCK:   -0.08 KCAL/MOL
REMARK 927      BINDING AFFINITY PREDICTED BY RF-SCORE:    0.00 PKD
ROOT
HETATM    1  C   UNL     1      -8.562  16.143  67.997  1.00  0.00    -0.171 C  
HETATM    2  C   UNL     1      -8.841  15.428  66.685  1.00  0.00    -0.330 C  
ENDROOT
BRANCH   2   3
HETATM    3  C   UNL     1      -9.712  14.184  66.896  1.00  0.00    -0.272 C  
BRANCH   3   4
HETATM    4  C   UNL     1     -10.282  13.652  65.604  1.00  0.00    -0.304 C  
HETATM    5  C   UNL     1     -11.314  14.227  64.972  1.00  0.00    -0.365 C  
HETATM    6  C   UNL     1     -11.817  13.641  63.712  1.00  0.00    -0.329 C  
HETATM    7  N   UNL     1     -11.162  12.526  63.269  1.00  0.00    -0.719 N  
HETATM    8  O   UNL     1     -12.765  14.140  63.117  1.00  0.00    -0.627 OA 
HETATM    9  C   UNL     1     -10.116  11.933  63.913  1.00  0.00    -0.370 C  
HETATM   10  H   UNL     1     -11.477  12.107  62.394  1.00  0.00     0.000 HD 
HETATM   11  S   UNL     1      -9.369  10.575  63.315  1.00  0.00    -0.342 S  
HETATM   12  N   UNL     1      -9.710  12.516  65.080  1.00  0.00    -0.098 NA 
ENDBRANCH   3   4
ENDBRANCH   2   3
TORSDOF 2
ENDMDL
MODEL       57
REMARK 921   NORMALIZED FREE ENERGY PREDICTED BY IDOCK:   -3.47 KCAL/MOL
REMARK 922        TOTAL FREE ENERGY PREDICTED BY IDOCK:   -4.00 KCAL/MOL
REMARK 923 INTER-LIGAND FREE ENERGY PREDICTED BY IDOCK:   -3.92 KCAL/MOL
REMARK 924 INTRA-LIGAND FREE ENERGY PREDICTED BY IDOCK:   -0.08 KCAL/MOL
REMARK 927      BINDING AFFINITY PREDICTED BY RF-SCORE:    0.00 PKD
ROOT
HETATM    1  C   UNL     1     -11.918  13.537  63.909  1.00  0.00    -0.491 C  
HETATM    2  C   UNL     1     -12.179  12.516  65.005  1.00  0.00    -0.519 C  
ENDROOT
BRANCH   2   3
HETATM    3  C   UNL     1     -11.765  13.049  66.382  1.00  0.00    -0.444 C  
BRANCH   3   4
HETATM    4  C   UNL     1     -11.575  11.947  67.395  1.00  0.00    -0.297 C  
HETATM    5  C   UNL     1     -11.928  12.071  68.681  1.00  0.00    -0.290 C  
HETATM    6  C   UNL     1     -11.703  10.946  69.612  1.00  0.00    -0.331 C  
HETATM    7  N   UNL     1     -11.144   9.824  69.068  1.00  0.00    -0.403 N  
HETATM    8  O   UNL     1     -12.008  11.034  70.796  1.00  0.00    -0.333 OA 
HETATM    9  C   UNL     1     -10.775   9.696  67.761  1.00  0.00    -0.257 C  
HETATM   10  H   UNL     1     -10.990   9.025  69.683  1.00  0.00     0.000 HD 
HETATM   11  S   UNL     1     -10.097   8.300  67.170  1.00  0.00    -0.292 S  
HETATM   12  N   UNL     1     -10.996  10.779  66.957  1.00  0.00    -0.259 NA 
ENDBRANCH   3   4
ENDBRANCH   2   3
TORSDOF 2
ENDMDL
MODEL       58
REMARK 921   NORMALIZED FREE ENERGY PREDICTED BY IDOCK:   -3.46 KCAL/MOL
REMARK 922        TOTAL FREE ENERGY PREDICTED BY IDOCK:   -3.99 KCAL/MOL
REMARK 923 INTER-LIGAND FREE ENERGY PREDICTED BY IDOCK:   -3.90 KCAL/MOL
REMARK 924 INTRA-LIGAND FREE ENERGY PREDICTED BY IDOCK:   -0.09 KCAL/MOL
REMARK 927      BINDING AFFINITY PREDICTED BY RF-SCORE:    0.00 PKD
ROOT
HETATM    1  C   UNL     1      -9.295  17.278  67.983  1.00  0.00    -0.264 C  
HETATM    2  C   UNL     1     -10.777  17.038  67.741  1.00  0.00    -0.318 C  
ENDROOT
BRANCH   2   3
HETATM    3  C   UNL     1     -11.339  15.979  68.697  1.00  0.00    -0.383 C  
BRANCH   3   4
HETATM    4  C   UNL     1     -11.425  14.614  68.061  1.00  0.00    -0.324 C  
HETATM    5  C   UNL     1     -11.820  13.522  68.730  1.00  0.00    -0.390 C  
HETATM    6  C   UNL     1     -11.872  12.219  68.035  1.00  0.00    -0.305 C  
HETATM    7  N   UNL     1     -11.512  12.231  66.716  1.00  0.00    -0.345 N  
HETATM    8  O   UNL     1     -12.221  11.202  68.623  1.00  0.00    -0.582 OA 
HETATM    9  C   UNL     1     -11.102  13.338  66.033  1.00  0.00    -0.283 C  
HETATM   10  H   UNL     1     -11.553  11.348  66.206  1.00  0.00     0.000 HD 
HETATM   11  S   UNL     1     -10.676  13.276  64.429  1.00  0.00    -0.391 S  
HETATM   12  N   UNL     1     -11.061  14.508  66.738  1.00  0.00    -0.317 NA 
ENDBRANCH   3   4
ENDBRANCH   2   3
TORSDOF 2
ENDMDL
MODEL       59
REMARK 921   NORMALIZED FREE ENERGY PREDICTED BY IDOCK:   -3.45 KCAL/MOL
REMARK 922        TOTAL FREE ENERGY PREDICTED BY IDOCK:   -3.98 KCAL/MOL
REMARK 923 INTER-LIGAND FREE ENERGY PREDICTED BY IDOCK:   -3.86 KCAL/MOL
REMARK 924 INTRA-LIGAND FREE ENERGY PREDICTED BY IDOCK:   -0.13 KCAL/MOL
REMARK 927      BINDING AFFINITY PREDICTED BY RF-SCORE:    0.00 PKD
ROOT
HETATM    1  C   UNL     1     -11.174  15.886  64.778  1.00  0.00    -0.364 C  
HETATM    2  C   UNL     1     -12.054  14.702  64.409  1.00  0.00    -0.481 C  
ENDROOT
BRANCH   2   3
HETATM    3  C   UNL     1     -12.491  13.916  65.650  1.00  0.00    -0.538 C  
BRANCH   3   4
HETATM    4  C   UNL     1     -11.712  12.636  65.827  1.00  0.00    -0.419 C  
HETATM    5  C   UNL     1     -11.647  11.978  66.992  1.00  0.00    -0.387 C  
HETATM    6  C   UNL     1     -10.858  10.732  67.085  1.00  0.00    -0.277 C  
HETATM    7  N   UNL     1     -10.243  10.328  65.932  1.00  0.00    -0.246 N  
HETATM    8  O   UNL     1     -10.774  10.113  68.139  1.00  0.00    -0.210 OA 
HETATM    9  C   UNL     1     -10.299  11.000  64.746  1.00  0.00    -0.324 C  
HETATM   10  H   UNL     1      -9.703   9.464  65.961  1.00  0.00     0.000 HD 
HETATM   11  S   UNL     1      -9.522  10.450  63.385  1.00  0.00    -0.310 S  
HETATM   12  N   UNL     1     -11.033  12.152  64.733  1.00  0.00    -0.299 NA 
ENDBRANCH   3   4
ENDBRANCH   2   3
TORSDOF 2
ENDMDL
MODEL       60
REMARK 921   NORMALIZED FREE ENERGY PREDICTED BY IDOCK:   -3.43 KCAL/MOL
REMARK 922        TOTAL FREE ENERGY PREDICTED BY IDOCK:   -3.95 KCAL/MOL
REMARK 923 INTER-LIGAND FREE ENERGY PREDICTED BY IDOCK:   -3.84 KCAL/MOL
REMARK 924 INTRA-LIGAND FREE ENERGY PREDICTED BY IDOCK:   -0.11 KCAL/MOL
REMARK 927      BINDING AFFINITY PREDICTED BY RF-SCORE:    0.00 PKD
ROOT
HETATM    1  C   UNL     1     -11.809  14.353  66.739  1.00  0.00    -0.431 C  
HETATM    2  C   UNL     1     -10.654  15.180  67.281  1.00  0.00    -0.286 C  
ENDROOT
BRANCH   2   3
HETATM    3  C   UNL     1      -9.999  16.021  66.179  1.00  0.00    -0.347 C  
BRANCH   3   4
HETATM    4  C   UNL     1      -9.639  17.409  66.649  1.00  0.00    -0.274 C  
HETATM    5  C   UNL     1     -10.272  18.024  67.658  1.00  0.00    -0.376 C  
HETATM    6  C   UNL     1      -9.862  19.387  68.054  1.00  0.00    -0.369 C  
HETATM    7  N   UNL     1      -8.828  19.930  67.344  1.00  0.00    -0.325 N  
HETATM    8  O   UNL     1     -10.428  19.977  68.967  1.00  0.00    -0.312 OA 
HETATM    9  C   UNL     1      -8.186  19.311  66.311  1.00  0.00    -0.318 C  
HETATM   10  H   UNL     1      -8.513  20.864  67.605  1.00  0.00     0.000 HD 
HETATM   11  S   UNL     1      -6.937  20.035  65.490  1.00  0.00    -0.288 S  
HETATM   12  N   UNL     1      -8.624  18.058  65.985  1.00  0.00    -0.517 NA 
ENDBRANCH   3   4
ENDBRANCH   2   3
TORSDOF 2
ENDMDL
MODEL       61
REMARK 921   NORMALIZED FREE ENERGY PREDICTED BY IDOCK:   -3.40 KCAL/MOL
REMARK 922        TOTAL FREE ENERGY PREDICTED BY IDOCK:   -3.93 KCAL/MOL
REMARK 923 INTER-LIGAND FREE ENERGY PREDICTED BY IDOCK:   -3.85 KCAL/MOL
REMARK 924 INTRA-LIGAND FREE ENERGY PREDICTED BY IDOCK:   -0.08 KCAL/MOL
REMARK 927      BINDING AFFINITY PREDICTED BY RF-SCORE:    0.00 PKD
ROOT
HETATM    1  C   UNL     1      -5.421  19.322  63.695  1.00  0.00    -0.351 C  
HETATM    2  C   UNL     1      -6.331  19.653  64.867  1.00  0.00    -0.312 C  
ENDROOT
BRANCH   2   3
HETATM    3  C   UNL     1      -6.499  18.453  65.806  1.00  0.00    -0.305 C  
BRANCH   3   4
HETATM    4  C   UNL     1      -7.921  18.284  66.280  1.00  0.00    -0.234 C  
HETATM    5  C   UNL     1      -8.536  19.173  67.072  1.00  0.00    -0.304 C  
HETATM    6  C   UNL     1      -9.930  18.932  67.497  1.00  0.00    -0.345 C  
HETATM    7  N   UNL     1     -10.509  17.787  67.024  1.00  0.00    -0.343 N  
HETATM    8  O   UNL     1     -10.515  19.723  68.228  1.00  0.00    -0.431 OA 
HETATM    9  C   UNL     1      -9.884  16.875  66.224  1.00  0.00    -0.302 C  
HETATM   10  H   UNL     1     -11.476  17.600  67.288  1.00  0.00     0.000 HD 
HETATM   11  S   UNL     1     -10.650  15.502  65.690  1.00  0.00    -0.396 S  
HETATM   12  N   UNL     1      -8.591  17.150  65.881  1.00  0.00    -0.529 NA 
ENDBRANCH   3   4
ENDBRANCH   2   3
TORSDOF 2
ENDMDL
MODEL       62
REMARK 921   NORMALIZED FREE ENERGY PREDICTED BY IDOCK:   -3.40 KCAL/MOL
REMARK 922        TOTAL FREE ENERGY PREDICTED BY IDOCK:   -3.92 KCAL/MOL
REMARK 923 INTER-LIGAND FREE ENERGY PREDICTED BY IDOCK:   -3.81 KCAL/MOL
REMARK 924 INTRA-LIGAND FREE ENERGY PREDICTED BY IDOCK:   -0.11 KCAL/MOL
REMARK 927      BINDING AFFINITY PREDICTED BY RF-SCORE:    0.00 PKD
ROOT
HETATM    1  C   UNL     1     -12.649  11.982  63.437  1.00  0.00    -0.592 C  
HETATM    2  C   UNL     1     -11.396  12.699  63.914  1.00  0.00    -0.501 C  
ENDROOT
BRANCH   2   3
HETATM    3  C   UNL     1     -11.739  13.904  64.797  1.00  0.00    -0.399 C  
BRANCH   3   4
HETATM    4  C   UNL     1     -11.226  13.752  66.208  1.00  0.00    -0.306 C  
HETATM    5  C   UNL     1     -11.833  12.989  67.126  1.00  0.00    -0.431 C  
HETATM    6  C   UNL     1     -11.269  12.896  68.488  1.00  0.00    -0.274 C  
HETATM    7  N   UNL     1     -10.126  13.613  68.711  1.00  0.00    -0.388 N  
HETATM    8  O   UNL     1     -11.807  12.213  69.351  1.00  0.00    -0.299 OA 
HETATM    9  C   UNL     1      -9.509  14.398  67.782  1.00  0.00    -0.211 C  
HETATM   10  H   UNL     1      -9.705  13.558  69.638  1.00  0.00     0.000 HD 
HETATM   11  S   UNL     1      -8.122  15.245  68.125  1.00  0.00    -0.141 S  
HETATM   12  N   UNL     1     -10.091  14.452  66.546  1.00  0.00    -0.268 NA 
ENDBRANCH   3   4
ENDBRANCH   2   3
TORSDOF 2
ENDMDL
MODEL       63
REMARK 921   NORMALIZED FREE ENERGY PREDICTED BY IDOCK:   -3.38 KCAL/MOL
REMARK 922        TOTAL FREE ENERGY PREDICTED BY IDOCK:   -3.90 KCAL/MOL
REMARK 923 INTER-LIGAND FREE ENERGY PREDICTED BY IDOCK:   -3.79 KCAL/MOL
REMARK 924 INTRA-LIGAND FREE ENERGY PREDICTED BY IDOCK:   -0.12 KCAL/MOL
REMARK 927      BINDING AFFINITY PREDICTED BY RF-SCORE:    0.00 PKD
ROOT
HETATM    1  C   UNL     1      -6.650  21.001  66.846  1.00  0.00    -0.397 C  
HETATM    2  C   UNL     1      -7.746  20.145  67.460  1.00  0.00    -0.342 C  
ENDROOT
BRANCH   2   3
HETATM    3  C   UNL     1      -8.637  19.514  66.385  1.00  0.00    -0.384 C  
BRANCH   3   4
HETATM    4  C   UNL     1      -8.545  18.008  66.369  1.00  0.00    -0.228 C  
HETATM    5  C   UNL     1      -7.474  17.339  66.815  1.00  0.00    -0.258 C  
HETATM    6  C   UNL     1      -7.460  15.862  66.760  1.00  0.00    -0.149 C  
HETATM    7  N   UNL     1      -8.583  15.273  66.250  1.00  0.00    -0.438 N  
HETATM    8  O   UNL     1      -6.490  15.224  67.154  1.00  0.00    -0.299 OA 
HETATM    9  C   UNL     1      -9.672  15.951  65.787  1.00  0.00    -0.325 C  
HETATM   10  H   UNL     1      -8.609  14.254  66.213  1.00  0.00     0.000 HD 
HETATM   11  S   UNL     1     -11.004  15.166  65.177  1.00  0.00    -0.438 S  
HETATM   12  N   UNL     1      -9.615  17.314  65.852  1.00  0.00    -0.527 NA 
ENDBRANCH   3   4
ENDBRANCH   2   3
TORSDOF 2
ENDMDL
MODEL       64
REMARK 921   NORMALIZED FREE ENERGY PREDICTED BY IDOCK:   -3.37 KCAL/MOL
REMARK 922        TOTAL FREE ENERGY PREDICTED BY IDOCK:   -3.89 KCAL/MOL
REMARK 923 INTER-LIGAND FREE ENERGY PREDICTED BY IDOCK:   -3.79 KCAL/MOL
REMARK 924 INTRA-LIGAND FREE ENERGY PREDICTED BY IDOCK:   -0.10 KCAL/MOL
REMARK 927      BINDING AFFINITY PREDICTED BY RF-SCORE:    0.00 PKD
ROOT
HETATM    1  C   UNL     1     -10.482  19.722  65.960  1.00  0.00    -0.609 C  
HETATM    2  C   UNL     1      -9.958  18.720  66.977  1.00  0.00    -0.379 C  
ENDROOT
BRANCH   2   3
HETATM    3  C   UNL     1      -8.759  17.937  66.430  1.00  0.00    -0.249 C  
BRANCH   3   4
HETATM    4  C   UNL     1      -9.039  16.459  66.312  1.00  0.00    -0.327 C  
HETATM    5  C   UNL     1      -8.265  15.523  66.880  1.00  0.00    -0.287 C  
HETATM    6  C   UNL     1      -8.604  14.095  66.713  1.00  0.00    -0.069 C  
HETATM    7  N   UNL     1      -9.726  13.830  65.977  1.00  0.00    -0.429 N  
HETATM    8  O   UNL     1      -7.910  13.218  67.213  1.00  0.00    -0.165 OA 
HETATM    9  C   UNL     1     -10.512  14.778  65.391  1.00  0.00    -0.380 C  
HETATM   10  H   UNL     1      -9.994  12.853  65.858  1.00  0.00     0.000 HD 
HETATM   11  S   UNL     1     -11.860  14.381  64.507  1.00  0.00    -0.435 S  
HETATM   12  N   UNL     1     -10.133  16.079  65.571  1.00  0.00    -0.461 NA 
ENDBRANCH   3   4
ENDBRANCH   2   3
TORSDOF 2
ENDMDL
MODEL       65
REMARK 921   NORMALIZED FREE ENERGY PREDICTED BY IDOCK:   -3.34 KCAL/MOL
REMARK 922        TOTAL FREE ENERGY PREDICTED BY IDOCK:   -3.86 KCAL/MOL
REMARK 923 INTER-LIGAND FREE ENERGY PREDICTED BY IDOCK:   -3.73 KCAL/MOL
REMARK 924 INTRA-LIGAND FREE ENERGY PREDICTED BY IDOCK:   -0.13 KCAL/MOL
REMARK 927      BINDING AFFINITY PREDICTED BY RF-SCORE:    0.00 PKD
ROOT
HETATM    1  C   UNL     1      -9.600  11.421  68.311  1.00  0.00    -0.192 C  
HETATM    2  C   UNL     1     -10.548  12.077  67.319  1.00  0.00    -0.252 C  
ENDROOT
BRANCH   2   3
HETATM    3  C   UNL     1     -11.868  12.481  67.986  1.00  0.00    -0.382 C  
BRANCH   3   4
HETATM    4  C   UNL     1     -11.821  13.876  68.560  1.00  0.00    -0.366 C  
HETATM    5  C   UNL     1     -11.231  14.903  67.933  1.00  0.00    -0.324 C  
HETATM    6  C   UNL     1     -11.225  16.238  68.565  1.00  0.00    -0.359 C  
HETATM    7  N   UNL     1     -11.852  16.328  69.778  1.00  0.00    -0.292 N  
HETATM    8  O   UNL     1     -10.686  17.194  68.020  1.00  0.00    -0.372 OA 
HETATM    9  C   UNL     1     -12.446  15.284  70.423  1.00  0.00    -0.381 C  
HETATM   10  H   UNL     1     -11.876  17.241  70.232  1.00  0.00     0.000 HD 
HETATM   11  S   UNL     1     -13.187  15.467  71.898  1.00  0.00    -0.480 S  
HETATM   12  N   UNL     1     -12.403  14.073  69.791  1.00  0.00    -0.331 NA 
ENDBRANCH   3   4
ENDBRANCH   2   3
TORSDOF 2
ENDMDL
MODEL       66
REMARK 921   NORMALIZED FREE ENERGY PREDICTED BY IDOCK:   -3.34 KCAL/MOL
REMARK 922        TOTAL FREE ENERGY PREDICTED BY IDOCK:   -3.85 KCAL/MOL
REMARK 923 INTER-LIGAND FREE ENERGY PREDICTED BY IDOCK:   -3.75 KCAL/MOL
REMARK 924 INTRA-LIGAND FREE ENERGY PREDICTED BY IDOCK:   -0.10 KCAL/MOL
REMARK 927      BINDING AFFINITY PREDICTED BY RF-SCORE:    0.00 PKD
ROOT
HETATM    1  C   UNL     1      -7.862  10.382  63.321  1.00  0.00    -0.102 C  
HETATM    2  C   UNL     1      -8.992  11.328  62.949  1.00  0.00    -0.246 C  
ENDROOT
BRANCH   2   3
HETATM    3  C   UNL     1     -10.316  10.906  63.594  1.00  0.00    -0.364 C  
BRANCH   3   4
HETATM    4  C   UNL     1     -10.820  11.916  64.595  1.00  0.00    -0.311 C  
HETATM    5  C   UNL     1     -12.015  12.513  64.490  1.00  0.00    -0.472 C  
HETATM    6  C   UNL     1     -12.433  13.496  65.510  1.00  0.00    -0.491 C  
HETATM    7  N   UNL     1     -11.542  13.720  66.523  1.00  0.00    -0.348 N  
HETATM    8  O   UNL     1     -13.516  14.064  65.436  1.00  0.00    -0.679 OA 
HETATM    9  C   UNL     1     -10.321  13.121  66.630  1.00  0.00    -0.265 C  
HETATM   10  H   UNL     1     -11.809  14.383  67.251  1.00  0.00     0.000 HD 
HETATM   11  S   UNL     1      -9.287  13.445  67.889  1.00  0.00    -0.224 S  
HETATM   12  N   UNL     1      -9.990  12.234  65.645  1.00  0.00    -0.253 NA 
ENDBRANCH   3   4
ENDBRANCH   2   3
TORSDOF 2
ENDMDL
MODEL       67
REMARK 921   NORMALIZED FREE ENERGY PREDICTED BY IDOCK:   -3.34 KCAL/MOL
REMARK 922        TOTAL FREE ENERGY PREDICTED BY IDOCK:   -3.85 KCAL/MOL
REMARK 923 INTER-LIGAND FREE ENERGY PREDICTED BY IDOCK:   -3.73 KCAL/MOL
REMARK 924 INTRA-LIGAND FREE ENERGY PREDICTED BY IDOCK:   -0.13 KCAL/MOL
REMARK 927      BINDING AFFINITY PREDICTED BY RF-SCORE:    0.00 PKD
ROOT
HETATM    1  C   UNL     1      -8.222   7.049  69.608  1.00  0.00    -0.131 C  
HETATM    2  C   UNL     1      -8.741   7.563  70.942  1.00  0.00    -0.142 C  
ENDROOT
BRANCH   2   3
HETATM    3  C   UNL     1      -8.860   9.091  70.950  1.00  0.00    -0.294 C  
BRANCH   3   4
HETATM    4  C   UNL     1     -10.247   9.564  70.590  1.00  0.00    -0.297 C  
HETATM    5  C   UNL     1     -10.506  10.303  69.503  1.00  0.00    -0.268 C  
HETATM    6  C   UNL     1     -11.892  10.731  69.224  1.00  0.00    -0.288 C  
HETATM    7  N   UNL     1     -12.837  10.318  70.122  1.00  0.00    -0.562 N  
HETATM    8  O   UNL     1     -12.158  11.414  68.241  1.00  0.00    -0.606 OA 
HETATM    9  C   UNL     1     -12.577   9.573  71.235  1.00  0.00    -0.339 C  
HETATM   10  H   UNL     1     -13.806  10.586  69.948  1.00  0.00     0.000 HD 
HETATM   11  S   UNL     1     -13.777   9.110  72.285  1.00  0.00    -0.462 S  
HETATM   12  N   UNL     1     -11.272   9.224  71.442  1.00  0.00    -0.335 NA 
ENDBRANCH   3   4
ENDBRANCH   2   3
TORSDOF 2
ENDMDL
MODEL       68
REMARK 921   NORMALIZED FREE ENERGY PREDICTED BY IDOCK:   -3.33 KCAL/MOL
REMARK 922        TOTAL FREE ENERGY PREDICTED BY IDOCK:   -3.84 KCAL/MOL
REMARK 923 INTER-LIGAND FREE ENERGY PREDICTED BY IDOCK:   -3.73 KCAL/MOL
REMARK 924 INTRA-LIGAND FREE ENERGY PREDICTED BY IDOCK:   -0.11 KCAL/MOL
REMARK 927      BINDING AFFINITY PREDICTED BY RF-SCORE:    0.00 PKD
ROOT
HETATM    1  C   UNL     1     -14.069  14.342  71.854  1.00  0.00    -0.586 C  
HETATM    2  C   UNL     1     -13.400  15.489  71.113  1.00  0.00    -0.553 C  
ENDROOT
BRANCH   2   3
HETATM    3  C   UNL     1     -11.874  15.427  71.239  1.00  0.00    -0.437 C  
BRANCH   3   4
HETATM    4  C   UNL     1     -11.189  15.275  69.904  1.00  0.00    -0.288 C  
HETATM    5  C   UNL     1      -9.930  15.675  69.680  1.00  0.00    -0.290 C  
HETATM    6  C   UNL     1      -9.333  15.494  68.341  1.00  0.00    -0.192 C  
HETATM    7  N   UNL     1     -10.135  14.903  67.404  1.00  0.00    -0.228 N  
HETATM    8  O   UNL     1      -8.186  15.858  68.105  1.00  0.00    -0.146 OA 
HETATM    9  C   UNL     1     -11.419  14.502  67.625  1.00  0.00    -0.353 C  
HETATM   10  H   UNL     1      -9.745  14.752  66.474  1.00  0.00     0.000 HD 
HETATM   11  S   UNL     1     -12.337  13.792  66.436  1.00  0.00    -0.364 S  
HETATM   12  N   UNL     1     -11.916  14.712  68.881  1.00  0.00    -0.297 NA 
ENDBRANCH   3   4
ENDBRANCH   2   3
TORSDOF 2
ENDMDL
MODEL       69
REMARK 921   NORMALIZED FREE ENERGY PREDICTED BY IDOCK:   -3.32 KCAL/MOL
REMARK 922        TOTAL FREE ENERGY PREDICTED BY IDOCK:   -3.83 KCAL/MOL
REMARK 923 INTER-LIGAND FREE ENERGY PREDICTED BY IDOCK:   -3.72 KCAL/MOL
REMARK 924 INTRA-LIGAND FREE ENERGY PREDICTED BY IDOCK:   -0.12 KCAL/MOL
REMARK 927      BINDING AFFINITY PREDICTED BY RF-SCORE:    0.00 PKD
ROOT
HETATM    1  C   UNL     1      -9.719  20.336  66.913  1.00  0.00    -0.584 C  
HETATM    2  C   UNL     1     -10.419  19.600  68.044  1.00  0.00    -0.537 C  
ENDROOT
BRANCH   2   3
HETATM    3  C   UNL     1     -11.002  18.264  67.571  1.00  0.00    -0.140 C  
BRANCH   3   4
HETATM    4  C   UNL     1     -10.447  17.088  68.336  1.00  0.00    -0.370 C  
HETATM    5  C   UNL     1      -9.157  16.990  68.688  1.00  0.00    -0.271 C  
HETATM    6  C   UNL     1      -8.691  15.803  69.433  1.00  0.00    -0.230 C  
HETATM    7  N   UNL     1      -9.646  14.868  69.725  1.00  0.00    -0.443 N  
HETATM    8  O   UNL     1      -7.516  15.682  69.760  1.00  0.00    -0.175 OA 
HETATM    9  C   UNL     1     -10.957  14.960  69.362  1.00  0.00    -0.271 C  
HETATM   10  H   UNL     1      -9.356  14.044  70.252  1.00  0.00     0.000 HD 
HETATM   11  S   UNL     1     -12.062  13.782  69.750  1.00  0.00    -0.325 S  
HETATM   12  N   UNL     1     -11.319  16.076  68.661  1.00  0.00    -0.369 NA 
ENDBRANCH   3   4
ENDBRANCH   2   3
TORSDOF 2
ENDMDL
MODEL       70
REMARK 921   NORMALIZED FREE ENERGY PREDICTED BY IDOCK:   -3.30 KCAL/MOL
REMARK 922        TOTAL FREE ENERGY PREDICTED BY IDOCK:   -3.81 KCAL/MOL
REMARK 923 INTER-LIGAND FREE ENERGY PREDICTED BY IDOCK:   -3.72 KCAL/MOL
REMARK 924 INTRA-LIGAND FREE ENERGY PREDICTED BY IDOCK:   -0.09 KCAL/MOL
REMARK 927      BINDING AFFINITY PREDICTED BY RF-SCORE:    0.00 PKD
ROOT
HETATM    1  C   UNL     1      -7.485   8.513  72.534  1.00  0.00    -0.078 C  
HETATM    2  C   UNL     1      -8.893   8.002  72.798  1.00  0.00    -0.277 C  
ENDROOT
BRANCH   2   3
HETATM    3  C   UNL     1      -9.699   7.879  71.500  1.00  0.00    -0.201 C  
BRANCH   3   4
HETATM    4  C   UNL     1     -10.932   8.748  71.501  1.00  0.00    -0.307 C  
HETATM    5  C   UNL     1     -12.026   8.461  72.220  1.00  0.00    -0.455 C  
HETATM    6  C   UNL     1     -13.196   9.362  72.162  1.00  0.00    -0.460 C  
HETATM    7  N   UNL     1     -13.064  10.461  71.360  1.00  0.00    -0.406 N  
HETATM    8  O   UNL     1     -14.212   9.120  72.802  1.00  0.00    -0.552 OA 
HETATM    9  C   UNL     1     -11.956  10.753  70.620  1.00  0.00    -0.367 C  
HETATM   10  H   UNL     1     -13.849  11.110  71.312  1.00  0.00     0.000 HD 
HETATM   11  S   UNL     1     -11.867  12.109  69.664  1.00  0.00    -0.292 S  
HETATM   12  N   UNL     1     -10.915   9.871  70.707  1.00  0.00    -0.327 NA 
ENDBRANCH   3   4
ENDBRANCH   2   3
TORSDOF 2
ENDMDL
MODEL       71
REMARK 921   NORMALIZED FREE ENERGY PREDICTED BY IDOCK:   -3.29 KCAL/MOL
REMARK 922        TOTAL FREE ENERGY PREDICTED BY IDOCK:   -3.80 KCAL/MOL
REMARK 923 INTER-LIGAND FREE ENERGY PREDICTED BY IDOCK:   -3.69 KCAL/MOL
REMARK 924 INTRA-LIGAND FREE ENERGY PREDICTED BY IDOCK:   -0.11 KCAL/MOL
REMARK 927      BINDING AFFINITY PREDICTED BY RF-SCORE:    0.00 PKD
ROOT
HETATM    1  C   UNL     1      -6.788  15.252  67.658  1.00  0.00    -0.205 C  
HETATM    2  C   UNL     1      -7.823  16.316  67.326  1.00  0.00    -0.203 C  
ENDROOT
BRANCH   2   3
HETATM    3  C   UNL     1      -8.589  16.766  68.576  1.00  0.00    -0.245 C  
BRANCH   3   4
HETATM    4  C   UNL     1      -9.958  16.139  68.670  1.00  0.00    -0.228 C  
HETATM    5  C   UNL     1     -10.741  16.259  69.751  1.00  0.00    -0.345 C  
HETATM    6  C   UNL     1     -12.068  15.610  69.767  1.00  0.00    -0.326 C  
HETATM    7  N   UNL     1     -12.410  14.922  68.636  1.00  0.00    -0.592 N  
HETATM    8  O   UNL     1     -12.802  15.695  70.745  1.00  0.00    -0.469 OA 
HETATM    9  C   UNL     1     -11.613  14.791  67.537  1.00  0.00    -0.361 C  
HETATM   10  H   UNL     1     -13.327  14.476  68.611  1.00  0.00     0.000 HD 
HETATM   11  S   UNL     1     -12.095  13.937  66.196  1.00  0.00    -0.462 S  
HETATM   12  N   UNL     1     -10.392  15.403  67.593  1.00  0.00    -0.258 NA 
ENDBRANCH   3   4
ENDBRANCH   2   3
TORSDOF 2
ENDMDL
MODEL       72
REMARK 921   NORMALIZED FREE ENERGY PREDICTED BY IDOCK:   -3.29 KCAL/MOL
REMARK 922        TOTAL FREE ENERGY PREDICTED BY IDOCK:   -3.80 KCAL/MOL
REMARK 923 INTER-LIGAND FREE ENERGY PREDICTED BY IDOCK:   -3.70 KCAL/MOL
REMARK 924 INTRA-LIGAND FREE ENERGY PREDICTED BY IDOCK:   -0.10 KCAL/MOL
REMARK 927      BINDING AFFINITY PREDICTED BY RF-SCORE:    0.00 PKD
ROOT
HETATM    1  C   UNL     1      -7.258   7.705  74.135  1.00  0.00    -0.145 C  
HETATM    2  C   UNL     1      -8.394   8.109  73.208  1.00  0.00    -0.277 C  
ENDROOT
BRANCH   2   3
HETATM    3  C   UNL     1      -9.724   7.485  73.642  1.00  0.00    -0.341 C  
BRANCH   3   4
HETATM    4  C   UNL     1     -10.665   7.263  72.483  1.00  0.00    -0.262 C  
HETATM    5  C   UNL     1     -10.320   6.574  71.387  1.00  0.00    -0.234 C  
HETATM    6  C   UNL     1     -11.298   6.406  70.292  1.00  0.00    -0.403 C  
HETATM    7  N   UNL     1     -12.524   6.978  70.494  1.00  0.00    -0.615 N  
HETATM    8  O   UNL     1     -11.008   5.788  69.274  1.00  0.00    -0.330 OA 
HETATM    9  C   UNL     1     -12.876   7.687  71.604  1.00  0.00    -0.349 C  
HETATM   10  H   UNL     1     -13.225   6.866  69.762  1.00  0.00     0.000 HD 
HETATM   11  S   UNL     1     -14.386   8.357  71.779  1.00  0.00    -0.455 S  
HETATM   12  N   UNL     1     -11.920   7.818  72.572  1.00  0.00    -0.291 NA 
ENDBRANCH   3   4
ENDBRANCH   2   3
TORSDOF 2
ENDMDL
MODEL       73
REMARK 921   NORMALIZED FREE ENERGY PREDICTED BY IDOCK:   -3.29 KCAL/MOL
REMARK 922        TOTAL FREE ENERGY PREDICTED BY IDOCK:   -3.80 KCAL/MOL
REMARK 923 INTER-LIGAND FREE ENERGY PREDICTED BY IDOCK:   -3.69 KCAL/MOL
REMARK 924 INTRA-LIGAND FREE ENERGY PREDICTED BY IDOCK:   -0.11 KCAL/MOL
REMARK 927      BINDING AFFINITY PREDICTED BY RF-SCORE:    0.00 PKD
ROOT
HETATM    1  C   UNL     1     -11.566  14.748  70.119  1.00  0.00    -0.338 C  
HETATM    2  C   UNL     1     -11.850  15.346  68.750  1.00  0.00    -0.339 C  
ENDROOT
BRANCH   2   3
HETATM    3  C   UNL     1     -10.707  15.069  67.767  1.00  0.00    -0.278 C  
BRANCH   3   4
HETATM    4  C   UNL     1     -11.061  14.008  66.754  1.00  0.00    -0.306 C  
HETATM    5  C   UNL     1     -11.768  14.266  65.645  1.00  0.00    -0.358 C  
HETATM    6  C   UNL     1     -12.078  13.169  64.705  1.00  0.00    -0.408 C  
HETATM    7  N   UNL     1     -11.594  11.936  65.045  1.00  0.00    -0.262 N  
HETATM    8  O   UNL     1     -12.729  13.373  63.687  1.00  0.00    -0.698 OA 
HETATM    9  C   UNL     1     -10.882  11.667  66.177  1.00  0.00    -0.294 C  
HETATM   10  H   UNL     1     -11.779  11.162  64.408  1.00  0.00     0.000 HD 
HETATM   11  S   UNL     1     -10.328  10.141  66.528  1.00  0.00    -0.170 S  
HETATM   12  N   UNL     1     -10.643  12.723  67.012  1.00  0.00    -0.240 NA 
ENDBRANCH   3   4
ENDBRANCH   2   3
TORSDOF 2
ENDMDL
MODEL       74
REMARK 921   NORMALIZED FREE ENERGY PREDICTED BY IDOCK:   -3.29 KCAL/MOL
REMARK 922        TOTAL FREE ENERGY PREDICTED BY IDOCK:   -3.80 KCAL/MOL
REMARK 923 INTER-LIGAND FREE ENERGY PREDICTED BY IDOCK:   -3.67 KCAL/MOL
REMARK 924 INTRA-LIGAND FREE ENERGY PREDICTED BY IDOCK:   -0.12 KCAL/MOL
REMARK 927      BINDING AFFINITY PREDICTED BY RF-SCORE:    0.00 PKD
ROOT
HETATM    1  C   UNL     1      -6.131  20.110  70.161  1.00  0.00    -0.387 C  
HETATM    2  C   UNL     1      -6.146  19.337  68.852  1.00  0.00    -0.268 C  
ENDROOT
BRANCH   2   3
HETATM    3  C   UNL     1      -6.925  18.023  68.982  1.00  0.00    -0.252 C  
BRANCH   3   4
HETATM    4  C   UNL     1      -8.317  18.118  68.408  1.00  0.00    -0.299 C  
HETATM    5  C   UNL     1      -8.689  19.080  67.553  1.00  0.00    -0.315 C  
HETATM    6  C   UNL     1     -10.074  19.105  67.039  1.00  0.00    -0.366 C  
HETATM    7  N   UNL     1     -10.894  18.105  67.483  1.00  0.00    -0.335 N  
HETATM    8  O   UNL     1     -10.445  19.978  66.263  1.00  0.00    -0.454 OA 
HETATM    9  C   UNL     1     -10.522  17.129  68.360  1.00  0.00    -0.376 C  
HETATM   10  H   UNL     1     -11.852  18.088  67.134  1.00  0.00     0.000 HD 
HETATM   11  S   UNL     1     -11.576  15.946  68.859  1.00  0.00    -0.355 S  
HETATM   12  N   UNL     1      -9.232  17.172  68.809  1.00  0.00    -0.268 NA 
ENDBRANCH   3   4
ENDBRANCH   2   3
TORSDOF 2
ENDMDL
MODEL       75
REMARK 921   NORMALIZED FREE ENERGY PREDICTED BY IDOCK:   -3.28 KCAL/MOL
REMARK 922        TOTAL FREE ENERGY PREDICTED BY IDOCK:   -3.79 KCAL/MOL
REMARK 923 INTER-LIGAND FREE ENERGY PREDICTED BY IDOCK:   -3.70 KCAL/MOL
REMARK 924 INTRA-LIGAND FREE ENERGY PREDICTED BY IDOCK:   -0.10 KCAL/MOL
REMARK 927      BINDING AFFINITY PREDICTED BY RF-SCORE:    0.00 PKD
ROOT
HETATM    1  C   UNL     1     -10.557   5.537  66.845  1.00  0.00    -0.348 C  
HETATM    2  C   UNL     1     -10.976   6.303  68.090  1.00  0.00    -0.412 C  
ENDROOT
BRANCH   2   3
HETATM    3  C   UNL     1     -10.736   5.484  69.363  1.00  0.00    -0.312 C  
BRANCH   3   4
HETATM    4  C   UNL     1     -11.014   6.273  70.619  1.00  0.00    -0.309 C  
HETATM    5  C   UNL     1     -11.660   7.447  70.614  1.00  0.00    -0.295 C  
HETATM    6  C   UNL     1     -11.889   8.161  71.887  1.00  0.00    -0.317 C  
HETATM    7  N   UNL     1     -11.417   7.542  73.011  1.00  0.00    -0.607 N  
HETATM    8  O   UNL     1     -12.469   9.240  71.912  1.00  0.00    -0.342 OA 
HETATM    9  C   UNL     1     -10.752   6.352  73.020  1.00  0.00    -0.259 C  
HETATM   10  H   UNL     1     -11.573   8.004  73.907  1.00  0.00     0.000 HD 
HETATM   11  S   UNL     1     -10.203   5.660  74.427  1.00  0.00    -0.266 S  
HETATM   12  N   UNL     1     -10.560   5.751  71.808  1.00  0.00    -0.231 NA 
ENDBRANCH   3   4
ENDBRANCH   2   3
TORSDOF 2
ENDMDL
MODEL       76
REMARK 921   NORMALIZED FREE ENERGY PREDICTED BY IDOCK:   -3.27 KCAL/MOL
REMARK 922        TOTAL FREE ENERGY PREDICTED BY IDOCK:   -3.78 KCAL/MOL
REMARK 923 INTER-LIGAND FREE ENERGY PREDICTED BY IDOCK:   -3.66 KCAL/MOL
REMARK 924 INTRA-LIGAND FREE ENERGY PREDICTED BY IDOCK:   -0.12 KCAL/MOL
REMARK 927      BINDING AFFINITY PREDICTED BY RF-SCORE:    0.00 PKD
ROOT
HETATM    1  C   UNL     1     -10.872   6.101  67.083  1.00  0.00    -0.442 C  
HETATM    2  C   UNL     1      -9.825   7.095  67.562  1.00  0.00    -0.192 C  
ENDROOT
BRANCH   2   3
HETATM    3  C   UNL     1      -9.337   7.993  66.419  1.00  0.00    -0.259 C  
BRANCH   3   4
HETATM    4  C   UNL     1     -10.022   9.337  66.408  1.00  0.00    -0.286 C  
HETATM    5  C   UNL     1     -10.694   9.821  67.461  1.00  0.00    -0.327 C  
HETATM    6  C   UNL     1     -11.342  11.146  67.368  1.00  0.00    -0.255 C  
HETATM    7  N   UNL     1     -11.192  11.802  66.178  1.00  0.00    -0.323 N  
HETATM    8  O   UNL     1     -11.971  11.611  68.312  1.00  0.00    -0.516 OA 
HETATM    9  C   UNL     1     -10.516  11.309  65.100  1.00  0.00    -0.291 C  
HETATM   10  H   UNL     1     -11.616  12.725  66.088  1.00  0.00     0.000 HD 
HETATM   11  S   UNL     1     -10.376  12.163  63.682  1.00  0.00    -0.443 S  
HETATM   12  N   UNL     1      -9.953  10.073  65.247  1.00  0.00    -0.324 NA 
ENDBRANCH   3   4
ENDBRANCH   2   3
TORSDOF 2
ENDMDL
MODEL       77
REMARK 921   NORMALIZED FREE ENERGY PREDICTED BY IDOCK:   -3.25 KCAL/MOL
REMARK 922        TOTAL FREE ENERGY PREDICTED BY IDOCK:   -3.75 KCAL/MOL
REMARK 923 INTER-LIGAND FREE ENERGY PREDICTED BY IDOCK:   -3.62 KCAL/MOL
REMARK 924 INTRA-LIGAND FREE ENERGY PREDICTED BY IDOCK:   -0.13 KCAL/MOL
REMARK 927      BINDING AFFINITY PREDICTED BY RF-SCORE:    0.00 PKD
ROOT
HETATM    1  C   UNL     1      -5.535  18.531  70.288  1.00  0.00    -0.238 C  
HETATM    2  C   UNL     1      -6.130  19.931  70.286  1.00  0.00    -0.356 C  
ENDROOT
BRANCH   2   3
HETATM    3  C   UNL     1      -5.619  20.757  69.100  1.00  0.00    -0.413 C  
BRANCH   3   4
HETATM    4  C   UNL     1      -6.459  20.571  67.861  1.00  0.00    -0.297 C  
HETATM    5  C   UNL     1      -5.977  20.740  66.622  1.00  0.00    -0.272 C  
HETATM    6  C   UNL     1      -6.867  20.542  65.459  1.00  0.00    -0.194 C  
HETATM    7  N   UNL     1      -8.154  20.181  65.747  1.00  0.00    -0.507 N  
HETATM    8  O   UNL     1      -6.456  20.698  64.315  1.00  0.00    -0.314 OA 
HETATM    9  C   UNL     1      -8.650  20.016  67.006  1.00  0.00    -0.334 C  
HETATM   10  H   UNL     1      -8.788  20.023  64.963  1.00  0.00     0.000 HD 
HETATM   11  S   UNL     1     -10.229  19.577  67.280  1.00  0.00    -0.464 S  
HETATM   12  N   UNL     1      -7.779  20.228  68.037  1.00  0.00    -0.234 NA 
ENDBRANCH   3   4
ENDBRANCH   2   3
TORSDOF 2
ENDMDL
MODEL       78
REMARK 921   NORMALIZED FREE ENERGY PREDICTED BY IDOCK:   -3.24 KCAL/MOL
REMARK 922        TOTAL FREE ENERGY PREDICTED BY IDOCK:   -3.75 KCAL/MOL
REMARK 923 INTER-LIGAND FREE ENERGY PREDICTED BY IDOCK:   -3.63 KCAL/MOL
REMARK 924 INTRA-LIGAND FREE ENERGY PREDICTED BY IDOCK:   -0.12 KCAL/MOL
REMARK 927      BINDING AFFINITY PREDICTED BY RF-SCORE:    0.00 PKD
ROOT
HETATM    1  C   UNL     1     -11.764  12.757  69.717  1.00  0.00    -0.352 C  
HETATM    2  C   UNL     1     -12.269  14.059  69.115  1.00  0.00    -0.299 C  
ENDROOT
BRANCH   2   3
HETATM    3  C   UNL     1     -11.468  15.263  69.624  1.00  0.00    -0.321 C  
BRANCH   3   4
HETATM    4  C   UNL     1     -10.818  16.038  68.505  1.00  0.00    -0.304 C  
HETATM    5  C   UNL     1     -11.071  15.800  67.211  1.00  0.00    -0.211 C  
HETATM    6  C   UNL     1     -10.388  16.601  66.174  1.00  0.00    -0.330 C  
HETATM    7  N   UNL     1      -9.531  17.564  66.631  1.00  0.00    -0.266 N  
HETATM    8  O   UNL     1     -10.593  16.401  64.982  1.00  0.00    -0.651 OA 
HETATM    9  C   UNL     1      -9.265  17.804  67.947  1.00  0.00    -0.265 C  
HETATM   10  H   UNL     1      -9.056  18.143  65.939  1.00  0.00     0.000 HD 
HETATM   11  S   UNL     1      -8.207  18.990  68.430  1.00  0.00    -0.357 S  
HETATM   12  N   UNL     1      -9.917  17.017  68.854  1.00  0.00    -0.277 NA 
ENDBRANCH   3   4
ENDBRANCH   2   3
TORSDOF 2
ENDMDL
MODEL       79
REMARK 921   NORMALIZED FREE ENERGY PREDICTED BY IDOCK:   -3.22 KCAL/MOL
REMARK 922        TOTAL FREE ENERGY PREDICTED BY IDOCK:   -3.72 KCAL/MOL
REMARK 923 INTER-LIGAND FREE ENERGY PREDICTED BY IDOCK:   -3.62 KCAL/MOL
REMARK 924 INTRA-LIGAND FREE ENERGY PREDICTED BY IDOCK:   -0.11 KCAL/MOL
REMARK 927      BINDING AFFINITY PREDICTED BY RF-SCORE:    0.00 PKD
ROOT
HETATM    1  C   UNL     1      -6.541  16.785  67.969  1.00  0.00    -0.148 C  
HETATM    2  C   UNL     1      -8.010  17.173  68.044  1.00  0.00    -0.212 C  
ENDROOT
BRANCH   2   3
HETATM    3  C   UNL     1      -8.764  16.771  66.772  1.00  0.00    -0.260 C  
BRANCH   3   4
HETATM    4  C   UNL     1     -10.008  15.970  67.067  1.00  0.00    -0.257 C  
HETATM    5  C   UNL     1     -10.701  15.323  66.119  1.00  0.00    -0.322 C  
HETATM    6  C   UNL     1     -11.913  14.564  66.490  1.00  0.00    -0.340 C  
HETATM    7  N   UNL     1     -12.240  14.572  67.817  1.00  0.00    -0.623 N  
HETATM    8  O   UNL     1     -12.571  13.970  65.643  1.00  0.00    -0.497 OA 
HETATM    9  C   UNL     1     -11.543  15.235  68.784  1.00  0.00    -0.362 C  
HETATM   10  H   UNL     1     -13.063  14.044  68.106  1.00  0.00     0.000 HD 
HETATM   11  S   UNL     1     -12.002  15.202  70.380  1.00  0.00    -0.350 S  
HETATM   12  N   UNL     1     -10.441  15.931  68.372  1.00  0.00    -0.246 NA 
ENDBRANCH   3   4
ENDBRANCH   2   3
TORSDOF 2
ENDMDL
MODEL       80
REMARK 921   NORMALIZED FREE ENERGY PREDICTED BY IDOCK:   -3.22 KCAL/MOL
REMARK 922        TOTAL FREE ENERGY PREDICTED BY IDOCK:   -3.72 KCAL/MOL
REMARK 923 INTER-LIGAND FREE ENERGY PREDICTED BY IDOCK:   -3.62 KCAL/MOL
REMARK 924 INTRA-LIGAND FREE ENERGY PREDICTED BY IDOCK:   -0.10 KCAL/MOL
REMARK 927      BINDING AFFINITY PREDICTED BY RF-SCORE:    0.00 PKD
ROOT
HETATM    1  C   UNL     1     -10.494  10.045  68.131  1.00  0.00    -0.250 C  
HETATM    2  C   UNL     1     -11.359  11.154  68.708  1.00  0.00    -0.342 C  
ENDROOT
BRANCH   2   3
HETATM    3  C   UNL     1     -11.321  12.411  67.832  1.00  0.00    -0.344 C  
BRANCH   3   4
HETATM    4  C   UNL     1     -11.439  13.681  68.638  1.00  0.00    -0.307 C  
HETATM    5  C   UNL     1     -11.937  13.711  69.882  1.00  0.00    -0.415 C  
HETATM    6  C   UNL     1     -12.024  14.998  70.603  1.00  0.00    -0.318 C  
HETATM    7  N   UNL     1     -11.565  16.094  69.926  1.00  0.00    -0.334 N  
HETATM    8  O   UNL     1     -12.483  15.057  71.738  1.00  0.00    -0.305 OA 
HETATM    9  C   UNL     1     -11.065  16.069  68.657  1.00  0.00    -0.349 C  
HETATM   10  H   UNL     1     -11.598  16.994  70.404  1.00  0.00     0.000 HD 
HETATM   11  S   UNL     1     -10.527  17.444  67.896  1.00  0.00    -0.388 S  
HETATM   12  N   UNL     1     -11.026  14.850  68.041  1.00  0.00    -0.270 NA 
ENDBRANCH   3   4
ENDBRANCH   2   3
TORSDOF 2
ENDMDL
MODEL       81
REMARK 921   NORMALIZED FREE ENERGY PREDICTED BY IDOCK:   -3.20 KCAL/MOL
REMARK 922        TOTAL FREE ENERGY PREDICTED BY IDOCK:   -3.70 KCAL/MOL
REMARK 923 INTER-LIGAND FREE ENERGY PREDICTED BY IDOCK:   -3.61 KCAL/MOL
REMARK 924 INTRA-LIGAND FREE ENERGY PREDICTED BY IDOCK:   -0.09 KCAL/MOL
REMARK 927      BINDING AFFINITY PREDICTED BY RF-SCORE:    0.00 PKD
ROOT
HETATM    1  C   UNL     1     -12.797  14.757  71.568  1.00  0.00    -0.406 C  
HETATM    2  C   UNL     1     -11.665  14.489  70.589  1.00  0.00    -0.330 C  
ENDROOT
BRANCH   2   3
HETATM    3  C   UNL     1     -12.153  13.711  69.362  1.00  0.00    -0.364 C  
BRANCH   3   4
HETATM    4  C   UNL     1     -11.289  13.945  68.148  1.00  0.00    -0.295 C  
HETATM    5  C   UNL     1      -9.980  14.221  68.227  1.00  0.00    -0.239 C  
HETATM    6  C   UNL     1      -9.204  14.442  66.990  1.00  0.00    -0.234 C  
HETATM    7  N   UNL     1      -9.902  14.334  65.819  1.00  0.00    -0.437 N  
HETATM    8  O   UNL     1      -8.007  14.704  67.032  1.00  0.00    -0.189 OA 
HETATM    9  C   UNL     1     -11.236  14.061  65.734  1.00  0.00    -0.303 C  
HETATM   10  H   UNL     1      -9.390  14.467  64.948  1.00  0.00     0.000 HD 
HETATM   11  S   UNL     1     -12.020  13.948  64.274  1.00  0.00    -0.414 S  
HETATM   12  N   UNL     1     -11.898  13.883  66.916  1.00  0.00    -0.399 NA 
ENDBRANCH   3   4
ENDBRANCH   2   3
TORSDOF 2
ENDMDL
MODEL       82
REMARK 921   NORMALIZED FREE ENERGY PREDICTED BY IDOCK:   -3.19 KCAL/MOL
REMARK 922        TOTAL FREE ENERGY PREDICTED BY IDOCK:   -3.69 KCAL/MOL
REMARK 923 INTER-LIGAND FREE ENERGY PREDICTED BY IDOCK:   -3.57 KCAL/MOL
REMARK 924 INTRA-LIGAND FREE ENERGY PREDICTED BY IDOCK:   -0.11 KCAL/MOL
REMARK 927      BINDING AFFINITY PREDICTED BY RF-SCORE:    0.00 PKD
ROOT
HETATM    1  C   UNL     1     -12.646  14.055  65.673  1.00  0.00    -0.542 C  
HETATM    2  C   UNL     1     -11.999  14.122  67.047  1.00  0.00    -0.471 C  
ENDROOT
BRANCH   2   3
HETATM    3  C   UNL     1     -10.748  13.239  67.125  1.00  0.00    -0.264 C  
BRANCH   3   4
HETATM    4  C   UNL     1     -10.798  12.268  68.279  1.00  0.00    -0.225 C  
HETATM    5  C   UNL     1     -11.753  12.300  69.218  1.00  0.00    -0.388 C  
HETATM    6  C   UNL     1     -11.728  11.316  70.320  1.00  0.00    -0.324 C  
HETATM    7  N   UNL     1     -10.703  10.411  70.288  1.00  0.00    -0.436 N  
HETATM    8  O   UNL     1     -12.583  11.327  71.197  1.00  0.00    -0.385 OA 
HETATM    9  C   UNL     1      -9.725  10.379  69.339  1.00  0.00    -0.200 C  
HETATM   10  H   UNL     1     -10.668   9.710  71.028  1.00  0.00     0.000 HD 
HETATM   11  S   UNL     1      -8.507   9.250  69.366  1.00  0.00    -0.146 S  
HETATM   12  N   UNL     1      -9.798  11.327  68.357  1.00  0.00    -0.193 NA 
ENDBRANCH   3   4
ENDBRANCH   2   3
TORSDOF 2
ENDMDL
MODEL       83
REMARK 921   NORMALIZED FREE ENERGY PREDICTED BY IDOCK:   -3.18 KCAL/MOL
REMARK 922        TOTAL FREE ENERGY PREDICTED BY IDOCK:   -3.67 KCAL/MOL
REMARK 923 INTER-LIGAND FREE ENERGY PREDICTED BY IDOCK:   -3.55 KCAL/MOL
REMARK 924 INTRA-LIGAND FREE ENERGY PREDICTED BY IDOCK:   -0.12 KCAL/MOL
REMARK 927      BINDING AFFINITY PREDICTED BY RF-SCORE:    0.00 PKD
ROOT
HETATM    1  C   UNL     1      -6.666  14.428  67.749  1.00  0.00    -0.191 C  
HETATM    2  C   UNL     1      -7.646  15.533  67.389  1.00  0.00    -0.231 C  
ENDROOT
BRANCH   2   3
HETATM    3  C   UNL     1      -8.458  15.985  68.608  1.00  0.00    -0.208 C  
BRANCH   3   4
HETATM    4  C   UNL     1      -9.886  15.501  68.562  1.00  0.00    -0.202 C  
HETATM    5  C   UNL     1     -10.430  14.936  67.476  1.00  0.00    -0.254 C  
HETATM    6  C   UNL     1     -11.839  14.493  67.511  1.00  0.00    -0.374 C  
HETATM    7  N   UNL     1     -12.498  14.690  68.693  1.00  0.00    -0.544 N  
HETATM    8  O   UNL     1     -12.365  13.980  66.530  1.00  0.00    -0.457 OA 
HETATM    9  C   UNL     1     -11.951  15.272  69.798  1.00  0.00    -0.347 C  
HETATM   10  H   UNL     1     -13.468  14.380  68.752  1.00  0.00     0.000 HD 
HETATM   11  S   UNL     1     -12.814  15.483  71.201  1.00  0.00    -0.487 S  
HETATM   12  N   UNL     1     -10.649  15.674  69.694  1.00  0.00    -0.260 NA 
ENDBRANCH   3   4
ENDBRANCH   2   3
TORSDOF 2
ENDMDL
MODEL       84
REMARK 921   NORMALIZED FREE ENERGY PREDICTED BY IDOCK:   -3.17 KCAL/MOL
REMARK 922        TOTAL FREE ENERGY PREDICTED BY IDOCK:   -3.67 KCAL/MOL
REMARK 923 INTER-LIGAND FREE ENERGY PREDICTED BY IDOCK:   -3.59 KCAL/MOL
REMARK 924 INTRA-LIGAND FREE ENERGY PREDICTED BY IDOCK:   -0.08 KCAL/MOL
REMARK 927      BINDING AFFINITY PREDICTED BY RF-SCORE:    0.00 PKD
ROOT
HETATM    1  C   UNL     1     -11.609  13.203  64.174  1.00  0.00    -0.460 C  
HETATM    2  C   UNL     1     -10.485  14.045  64.757  1.00  0.00    -0.445 C  
ENDROOT
BRANCH   2   3
HETATM    3  C   UNL     1     -10.886  15.521  64.867  1.00  0.00    -0.447 C  
BRANCH   3   4
HETATM    4  C   UNL     1     -10.496  16.128  66.192  1.00  0.00    -0.325 C  
HETATM    5  C   UNL     1      -9.466  16.974  66.331  1.00  0.00    -0.294 C  
HETATM    6  C   UNL     1      -9.146  17.522  67.665  1.00  0.00    -0.243 C  
HETATM    7  N   UNL     1      -9.960  17.118  68.687  1.00  0.00    -0.295 N  
HETATM    8  O   UNL     1      -8.205  18.290  67.824  1.00  0.00    -0.240 OA 
HETATM    9  C   UNL     1     -11.004  16.251  68.552  1.00  0.00    -0.345 C  
HETATM   10  H   UNL     1      -9.772  17.492  69.617  1.00  0.00     0.000 HD 
HETATM   11  S   UNL     1     -11.949  15.803  69.841  1.00  0.00    -0.285 S  
HETATM   12  N   UNL     1     -11.237  15.770  67.294  1.00  0.00    -0.209 NA 
ENDBRANCH   3   4
ENDBRANCH   2   3
TORSDOF 2
ENDMDL
MODEL       85
REMARK 921   NORMALIZED FREE ENERGY PREDICTED BY IDOCK:   -3.17 KCAL/MOL
REMARK 922        TOTAL FREE ENERGY PREDICTED BY IDOCK:   -3.66 KCAL/MOL
REMARK 923 INTER-LIGAND FREE ENERGY PREDICTED BY IDOCK:   -3.55 KCAL/MOL
REMARK 924 INTRA-LIGAND FREE ENERGY PREDICTED BY IDOCK:   -0.12 KCAL/MOL
REMARK 927      BINDING AFFINITY PREDICTED BY RF-SCORE:    0.00 PKD
ROOT
HETATM    1  C   UNL     1      -7.712  11.661  68.669  1.00  0.00    -0.134 C  
HETATM    2  C   UNL     1      -8.047  12.070  67.243  1.00  0.00    -0.174 C  
ENDROOT
BRANCH   2   3
HETATM    3  C   UNL     1      -8.319  13.574  67.138  1.00  0.00    -0.151 C  
BRANCH   3   4
HETATM    4  C   UNL     1      -9.790  13.902  67.216  1.00  0.00    -0.244 C  
HETATM    5  C   UNL     1     -10.628  13.742  66.183  1.00  0.00    -0.291 C  
HETATM    6  C   UNL     1     -12.055  14.092  66.339  1.00  0.00    -0.455 C  
HETATM    7  N   UNL     1     -12.425  14.556  67.571  1.00  0.00    -0.505 N  
HETATM    8  O   UNL     1     -12.843  13.964  65.409  1.00  0.00    -0.662 OA 
HETATM    9  C   UNL     1     -11.574  14.728  68.623  1.00  0.00    -0.319 C  
HETATM   10  H   UNL     1     -13.407  14.792  67.713  1.00  0.00     0.000 HD 
HETATM   11  S   UNL     1     -12.095  15.301  70.092  1.00  0.00    -0.376 S  
HETATM   12  N   UNL     1     -10.265  14.401  68.407  1.00  0.00    -0.236 NA 
ENDBRANCH   3   4
ENDBRANCH   2   3
TORSDOF 2
ENDMDL
MODEL       86
REMARK 921   NORMALIZED FREE ENERGY PREDICTED BY IDOCK:   -3.15 KCAL/MOL
REMARK 922        TOTAL FREE ENERGY PREDICTED BY IDOCK:   -3.65 KCAL/MOL
REMARK 923 INTER-LIGAND FREE ENERGY PREDICTED BY IDOCK:   -3.64 KCAL/MOL
REMARK 924 INTRA-LIGAND FREE ENERGY PREDICTED BY IDOCK:   -0.00 KCAL/MOL
REMARK 927      BINDING AFFINITY PREDICTED BY RF-SCORE:    0.00 PKD
ROOT
HETATM    1  C   UNL     1     -10.662   9.060  71.732  1.00  0.00    -0.437 C  
HETATM    2  C   UNL     1     -11.913   9.548  71.019  1.00  0.00    -0.407 C  
ENDROOT
BRANCH   2   3
HETATM    3  C   UNL     1     -11.716  10.948  70.429  1.00  0.00    -0.444 C  
BRANCH   3   4
HETATM    4  C   UNL     1     -11.378  10.914  68.958  1.00  0.00    -0.281 C  
HETATM    5  C   UNL     1     -10.777   9.869  68.373  1.00  0.00    -0.271 C  
HETATM    6  C   UNL     1     -10.476   9.915  66.928  1.00  0.00    -0.215 C  
HETATM    7  N   UNL     1     -10.856  11.055  66.275  1.00  0.00    -0.216 N  
HETATM    8  O   UNL     1      -9.919   8.978  66.367  1.00  0.00    -0.273 OA 
HETATM    9  C   UNL     1     -11.460  12.124  66.868  1.00  0.00    -0.351 C  
HETATM   10  H   UNL     1     -10.674  11.110  65.273  1.00  0.00     0.000 HD 
HETATM   11  S   UNL     1     -11.892  13.479  66.010  1.00  0.00    -0.403 S  
HETATM   12  N   UNL     1     -11.696  12.023  68.210  1.00  0.00    -0.344 NA 
ENDBRANCH   3   4
ENDBRANCH   2   3
TORSDOF 2
ENDMDL
MODEL       87
REMARK 921   NORMALIZED FREE ENERGY PREDICTED BY IDOCK:   -3.14 KCAL/MOL
REMARK 922        TOTAL FREE ENERGY PREDICTED BY IDOCK:   -3.64 KCAL/MOL
REMARK 923 INTER-LIGAND FREE ENERGY PREDICTED BY IDOCK:   -3.53 KCAL/MOL
REMARK 924 INTRA-LIGAND FREE ENERGY PREDICTED BY IDOCK:   -0.11 KCAL/MOL
REMARK 927      BINDING AFFINITY PREDICTED BY RF-SCORE:    0.00 PKD
ROOT
HETATM    1  C   UNL     1     -10.968  16.090  68.091  1.00  0.00    -0.339 C  
HETATM    2  C   UNL     1     -10.829  15.304  66.797  1.00  0.00    -0.312 C  
ENDROOT
BRANCH   2   3
HETATM    3  C   UNL     1     -11.981  14.309  66.615  1.00  0.00    -0.454 C  
BRANCH   3   4
HETATM    4  C   UNL     1     -11.562  12.884  66.882  1.00  0.00    -0.368 C  
HETATM    5  C   UNL     1     -11.029  12.094  65.940  1.00  0.00    -0.332 C  
HETATM    6  C   UNL     1     -10.649  10.707  66.281  1.00  0.00    -0.161 C  
HETATM    7  N   UNL     1     -10.869  10.328  67.576  1.00  0.00    -0.295 N  
HETATM    8  O   UNL     1     -10.168   9.958  65.438  1.00  0.00    -0.273 OA 
HETATM    9  C   UNL     1     -11.419  11.127  68.535  1.00  0.00    -0.302 C  
HETATM   10  H   UNL     1     -10.603   9.381  67.845  1.00  0.00     0.000 HD 
HETATM   11  S   UNL     1     -11.659  10.598  70.091  1.00  0.00    -0.353 S  
HETATM   12  N   UNL     1     -11.762  12.393  68.151  1.00  0.00    -0.341 NA 
ENDBRANCH   3   4
ENDBRANCH   2   3
TORSDOF 2
ENDMDL
MODEL       88
REMARK 921   NORMALIZED FREE ENERGY PREDICTED BY IDOCK:   -3.13 KCAL/MOL
REMARK 922        TOTAL FREE ENERGY PREDICTED BY IDOCK:   -3.62 KCAL/MOL
REMARK 923 INTER-LIGAND FREE ENERGY PREDICTED BY IDOCK:   -3.50 KCAL/MOL
REMARK 924 INTRA-LIGAND FREE ENERGY PREDICTED BY IDOCK:   -0.13 KCAL/MOL
REMARK 927      BINDING AFFINITY PREDICTED BY RF-SCORE:    0.00 PKD
ROOT
HETATM    1  C   UNL     1      -9.794   9.836  69.224  1.00  0.00    -0.208 C  
HETATM    2  C   UNL     1     -11.018  10.490  68.600  1.00  0.00    -0.294 C  
ENDROOT
BRANCH   2   3
HETATM    3  C   UNL     1     -10.970  12.016  68.733  1.00  0.00    -0.282 C  
BRANCH   3   4
HETATM    4  C   UNL     1     -10.563  12.695  67.449  1.00  0.00    -0.224 C  
HETATM    5  C   UNL     1     -10.089  13.948  67.406  1.00  0.00    -0.244 C  
HETATM    6  C   UNL     1      -9.717  14.543  66.106  1.00  0.00    -0.316 C  
HETATM    7  N   UNL     1      -9.881  13.739  65.012  1.00  0.00    -0.604 N  
HETATM    8  O   UNL     1      -9.288  15.689  66.034  1.00  0.00    -0.318 OA 
HETATM    9  C   UNL     1     -10.371  12.467  65.050  1.00  0.00    -0.299 C  
HETATM   10  H   UNL     1      -9.619  14.118  64.102  1.00  0.00     0.000 HD 
HETATM   11  S   UNL     1     -10.546  11.549  63.677  1.00  0.00    -0.450 S  
HETATM   12  N   UNL     1     -10.711  11.982  66.282  1.00  0.00    -0.257 NA 
ENDBRANCH   3   4
ENDBRANCH   2   3
TORSDOF 2
ENDMDL
MODEL       89
REMARK 921   NORMALIZED FREE ENERGY PREDICTED BY IDOCK:   -3.12 KCAL/MOL
REMARK 922        TOTAL FREE ENERGY PREDICTED BY IDOCK:   -3.61 KCAL/MOL
REMARK 923 INTER-LIGAND FREE ENERGY PREDICTED BY IDOCK:   -3.52 KCAL/MOL
REMARK 924 INTRA-LIGAND FREE ENERGY PREDICTED BY IDOCK:   -0.09 KCAL/MOL
REMARK 927      BINDING AFFINITY PREDICTED BY RF-SCORE:    0.00 PKD
ROOT
HETATM    1  C   UNL     1     -11.690  15.253  71.401  1.00  0.00    -0.444 C  
HETATM    2  C   UNL     1     -11.847  15.234  69.889  1.00  0.00    -0.363 C  
ENDROOT
BRANCH   2   3
HETATM    3  C   UNL     1     -12.231  13.840  69.380  1.00  0.00    -0.325 C  
BRANCH   3   4
HETATM    4  C   UNL     1     -11.553  13.494  68.077  1.00  0.00    -0.337 C  
HETATM    5  C   UNL     1     -11.299  14.401  67.124  1.00  0.00    -0.356 C  
HETATM    6  C   UNL     1     -10.636  13.980  65.873  1.00  0.00    -0.301 C  
HETATM    7  N   UNL     1     -10.311  12.654  65.786  1.00  0.00    -0.274 N  
HETATM    8  O   UNL     1     -10.399  14.785  64.980  1.00  0.00    -0.400 OA 
HETATM    9  C   UNL     1     -10.575  11.726  66.750  1.00  0.00    -0.238 C  
HETATM   10  H   UNL     1      -9.839  12.337  64.940  1.00  0.00     0.000 HD 
HETATM   11  S   UNL     1     -10.153  10.129  66.574  1.00  0.00    -0.231 S  
HETATM   12  N   UNL     1     -11.204  12.178  67.876  1.00  0.00    -0.252 NA 
ENDBRANCH   3   4
ENDBRANCH   2   3
TORSDOF 2
ENDMDL
MODEL       90
REMARK 921   NORMALIZED FREE ENERGY PREDICTED BY IDOCK:   -3.12 KCAL/MOL
REMARK 922        TOTAL FREE ENERGY PREDICTED BY IDOCK:   -3.61 KCAL/MOL
REMARK 923 INTER-LIGAND FREE ENERGY PREDICTED BY IDOCK:   -3.51 KCAL/MOL
REMARK 924 INTRA-LIGAND FREE ENERGY PREDICTED BY IDOCK:   -0.10 KCAL/MOL
REMARK 927      BINDING AFFINITY PREDICTED BY RF-SCORE:    0.00 PKD
ROOT
HETATM    1  C   UNL     1     -10.744  19.536  65.953  1.00  0.00    -0.518 C  
HETATM    2  C   UNL     1     -10.144  20.069  67.245  1.00  0.00    -0.577 C  
ENDROOT
BRANCH   2   3
HETATM    3  C   UNL     1      -8.639  20.325  67.103  1.00  0.00    -0.417 C  
BRANCH   3   4
HETATM    4  C   UNL     1      -7.814  19.428  67.993  1.00  0.00    -0.302 C  
HETATM    5  C   UNL     1      -6.837  19.888  68.785  1.00  0.00    -0.358 C  
HETATM    6  C   UNL     1      -6.071  18.943  69.624  1.00  0.00    -0.264 C  
HETATM    7  N   UNL     1      -6.439  17.629  69.531  1.00  0.00    -0.231 N  
HETATM    8  O   UNL     1      -5.165  19.333  70.352  1.00  0.00    -0.190 OA 
HETATM    9  C   UNL     1      -7.428  17.156  68.720  1.00  0.00    -0.250 C  
HETATM   10  H   UNL     1      -5.938  16.955  70.109  1.00  0.00     0.000 HD 
HETATM   11  S   UNL     1      -7.819  15.543  68.657  1.00  0.00    -0.155 S  
HETATM   12  N   UNL     1      -8.086  18.080  67.959  1.00  0.00    -0.250 NA 
ENDBRANCH   3   4
ENDBRANCH   2   3
TORSDOF 2
ENDMDL
MODEL       91
REMARK 921   NORMALIZED FREE ENERGY PREDICTED BY IDOCK:   -3.12 KCAL/MOL
REMARK 922        TOTAL FREE ENERGY PREDICTED BY IDOCK:   -3.61 KCAL/MOL
REMARK 923 INTER-LIGAND FREE ENERGY PREDICTED BY IDOCK:   -3.51 KCAL/MOL
REMARK 924 INTRA-LIGAND FREE ENERGY PREDICTED BY IDOCK:   -0.10 KCAL/MOL
REMARK 927      BINDING AFFINITY PREDICTED BY RF-SCORE:    0.00 PKD
ROOT
HETATM    1  C   UNL     1     -12.035  15.430  72.969  1.00  0.00    -0.557 C  
HETATM    2  C   UNL     1     -12.412  15.624  71.509  1.00  0.00    -0.499 C  
ENDROOT
BRANCH   2   3
HETATM    3  C   UNL     1     -11.447  14.885  70.576  1.00  0.00    -0.310 C  
BRANCH   3   4
HETATM    4  C   UNL     1     -10.646  15.826  69.710  1.00  0.00    -0.312 C  
HETATM    5  C   UNL     1     -11.202  16.822  69.007  1.00  0.00    -0.072 C  
HETATM    6  C   UNL     1     -10.348  17.697  68.179  1.00  0.00    -0.386 C  
HETATM    7  N   UNL     1      -9.009  17.421  68.202  1.00  0.00    -0.253 N  
HETATM    8  O   UNL     1     -10.830  18.611  67.519  1.00  0.00    -0.435 OA 
HETATM    9  C   UNL     1      -8.439  16.403  68.909  1.00  0.00    -0.247 C  
HETATM   10  H   UNL     1      -8.393  18.018  67.651  1.00  0.00     0.000 HD 
HETATM   11  S   UNL     1      -6.802  16.125  68.887  1.00  0.00    -0.164 S  
HETATM   12  N   UNL     1      -9.287  15.622  69.642  1.00  0.00    -0.271 NA 
ENDBRANCH   3   4
ENDBRANCH   2   3
TORSDOF 2
ENDMDL
MODEL       92
REMARK 921   NORMALIZED FREE ENERGY PREDICTED BY IDOCK:   -3.11 KCAL/MOL
REMARK 922        TOTAL FREE ENERGY PREDICTED BY IDOCK:   -3.60 KCAL/MOL
REMARK 923 INTER-LIGAND FREE ENERGY PREDICTED BY IDOCK:   -3.51 KCAL/MOL
REMARK 924 INTRA-LIGAND FREE ENERGY PREDICTED BY IDOCK:   -0.09 KCAL/MOL
REMARK 927      BINDING AFFINITY PREDICTED BY RF-SCORE:    0.00 PKD
ROOT
HETATM    1  C   UNL     1     -11.911  13.181  63.487  1.00  0.00    -0.580 C  
HETATM    2  C   UNL     1     -11.032  13.698  64.615  1.00  0.00    -0.403 C  
ENDROOT
BRANCH   2   3
HETATM    3  C   UNL     1     -11.398  15.135  65.002  1.00  0.00    -0.381 C  
BRANCH   3   4
HETATM    4  C   UNL     1     -10.298  15.824  65.772  1.00  0.00    -0.369 C  
HETATM    5  C   UNL     1     -10.270  17.148  65.974  1.00  0.00    -0.332 C  
HETATM    6  C   UNL     1      -9.154  17.747  66.735  1.00  0.00    -0.262 C  
HETATM    7  N   UNL     1      -8.211  16.873  67.200  1.00  0.00    -0.182 N  
HETATM    8  O   UNL     1      -9.097  18.956  66.928  1.00  0.00    -0.283 OA 
HETATM    9  C   UNL     1      -8.232  15.525  66.990  1.00  0.00    -0.240 C  
HETATM   10  H   UNL     1      -7.436  17.255  67.742  1.00  0.00     0.000 HD 
HETATM   11  S   UNL     1      -7.048  14.523  67.583  1.00  0.00    -0.179 S  
HETATM   12  N   UNL     1      -9.283  15.038  66.265  1.00  0.00    -0.299 NA 
ENDBRANCH   3   4
ENDBRANCH   2   3
TORSDOF 2
ENDMDL
MODEL       93
REMARK 921   NORMALIZED FREE ENERGY PREDICTED BY IDOCK:   -3.09 KCAL/MOL
REMARK 922        TOTAL FREE ENERGY PREDICTED BY IDOCK:   -3.58 KCAL/MOL
REMARK 923 INTER-LIGAND FREE ENERGY PREDICTED BY IDOCK:   -3.46 KCAL/MOL
REMARK 924 INTRA-LIGAND FREE ENERGY PREDICTED BY IDOCK:   -0.12 KCAL/MOL
REMARK 927      BINDING AFFINITY PREDICTED BY RF-SCORE:    0.00 PKD
ROOT
HETATM    1  C   UNL     1      -5.279  18.847  70.919  1.00  0.00    -0.264 C  
HETATM    2  C   UNL     1      -6.084  20.093  70.584  1.00  0.00    -0.361 C  
ENDROOT
BRANCH   2   3
HETATM    3  C   UNL     1      -5.604  20.738  69.279  1.00  0.00    -0.409 C  
BRANCH   3   4
HETATM    4  C   UNL     1      -6.524  20.448  68.118  1.00  0.00    -0.304 C  
HETATM    5  C   UNL     1      -7.775  19.996  68.276  1.00  0.00    -0.247 C  
HETATM    6  C   UNL     1      -8.611  19.730  67.087  1.00  0.00    -0.322 C  
HETATM    7  N   UNL     1      -8.026  19.985  65.877  1.00  0.00    -0.486 N  
HETATM    8  O   UNL     1      -9.756  19.308  67.200  1.00  0.00    -0.312 OA 
HETATM    9  C   UNL     1      -6.750  20.437  65.712  1.00  0.00    -0.240 C  
HETATM   10  H   UNL     1      -8.584  19.825  65.038  1.00  0.00     0.000 HD 
HETATM   11  S   UNL     1      -6.104  20.723  64.208  1.00  0.00    -0.325 S  
HETATM   12  N   UNL     1      -6.026  20.648  66.852  1.00  0.00    -0.187 NA 
ENDBRANCH   3   4
ENDBRANCH   2   3
TORSDOF 2
ENDMDL
MODEL       94
REMARK 921   NORMALIZED FREE ENERGY PREDICTED BY IDOCK:   -3.08 KCAL/MOL
REMARK 922        TOTAL FREE ENERGY PREDICTED BY IDOCK:   -3.57 KCAL/MOL
REMARK 923 INTER-LIGAND FREE ENERGY PREDICTED BY IDOCK:   -3.50 KCAL/MOL
REMARK 924 INTRA-LIGAND FREE ENERGY PREDICTED BY IDOCK:   -0.07 KCAL/MOL
REMARK 927      BINDING AFFINITY PREDICTED BY RF-SCORE:    0.00 PKD
ROOT
HETATM    1  C   UNL     1     -13.277  10.126  71.926  1.00  0.00    -0.557 C  
HETATM    2  C   UNL     1     -12.438   8.892  72.218  1.00  0.00    -0.440 C  
ENDROOT
BRANCH   2   3
HETATM    3  C   UNL     1     -12.968   7.662  71.473  1.00  0.00    -0.378 C  
BRANCH   3   4
HETATM    4  C   UNL     1     -11.866   6.715  71.064  1.00  0.00    -0.372 C  
HETATM    5  C   UNL     1     -11.170   5.984  71.946  1.00  0.00    -0.338 C  
HETATM    6  C   UNL     1     -10.102   5.083  71.465  1.00  0.00    -0.196 C  
HETATM    7  N   UNL     1      -9.907   5.057  70.112  1.00  0.00    -0.212 N  
HETATM    8  O   UNL     1      -9.444   4.408  72.248  1.00  0.00    -0.127 OA 
HETATM    9  C   UNL     1     -10.607   5.806  69.212  1.00  0.00    -0.306 C  
HETATM   10  H   UNL     1      -9.186   4.433  69.749  1.00  0.00     0.000 HD 
HETATM   11  S   UNL     1     -10.312   5.724  67.580  1.00  0.00    -0.238 S  
HETATM   12  N   UNL     1     -11.570   6.630  69.724  1.00  0.00    -0.334 NA 
ENDBRANCH   3   4
ENDBRANCH   2   3
TORSDOF 2
ENDMDL
MODEL       95
REMARK 921   NORMALIZED FREE ENERGY PREDICTED BY IDOCK:   -3.08 KCAL/MOL
REMARK 922        TOTAL FREE ENERGY PREDICTED BY IDOCK:   -3.57 KCAL/MOL
REMARK 923 INTER-LIGAND FREE ENERGY PREDICTED BY IDOCK:   -3.47 KCAL/MOL
REMARK 924 INTRA-LIGAND FREE ENERGY PREDICTED BY IDOCK:   -0.09 KCAL/MOL
REMARK 927      BINDING AFFINITY PREDICTED BY RF-SCORE:    0.00 PKD
ROOT
HETATM    1  C   UNL     1     -10.694  19.542  65.745  1.00  0.00    -0.490 C  
HETATM    2  C   UNL     1     -10.224  19.762  67.174  1.00  0.00    -0.574 C  
ENDROOT
BRANCH   2   3
HETATM    3  C   UNL     1      -8.801  20.329  67.218  1.00  0.00    -0.454 C  
BRANCH   3   4
HETATM    4  C   UNL     1      -7.783  19.302  67.650  1.00  0.00    -0.257 C  
HETATM    5  C   UNL     1      -7.524  18.192  66.946  1.00  0.00    -0.229 C  
HETATM    6  C   UNL     1      -6.515  17.232  67.440  1.00  0.00    -0.146 C  
HETATM    7  N   UNL     1      -5.895  17.568  68.612  1.00  0.00    -0.167 N  
HETATM    8  O   UNL     1      -6.263  16.205  66.822  1.00  0.00    -0.303 OA 
HETATM    9  C   UNL     1      -6.162  18.693  69.336  1.00  0.00    -0.265 C  
HETATM   10  H   UNL     1      -5.183  16.932  68.970  1.00  0.00     0.000 HD 
HETATM   11  S   UNL     1      -5.370  19.035  70.755  1.00  0.00    -0.241 S  
HETATM   12  N   UNL     1      -7.116  19.530  68.831  1.00  0.00    -0.348 NA 
ENDBRANCH   3   4
ENDBRANCH   2   3
TORSDOF 2
ENDMDL
MODEL       96
REMARK 921   NORMALIZED FREE ENERGY PREDICTED BY IDOCK:   -3.08 KCAL/MOL
REMARK 922        TOTAL FREE ENERGY PREDICTED BY IDOCK:   -3.56 KCAL/MOL
REMARK 923 INTER-LIGAND FREE ENERGY PREDICTED BY IDOCK:   -3.48 KCAL/MOL
REMARK 924 INTRA-LIGAND FREE ENERGY PREDICTED BY IDOCK:   -0.09 KCAL/MOL
REMARK 927      BINDING AFFINITY PREDICTED BY RF-SCORE:    0.00 PKD
ROOT
HETATM    1  C   UNL     1     -12.556  12.111  63.174  1.00  0.00    -0.326 C  
HETATM    2  C   UNL     1     -11.967  13.509  63.287  1.00  0.00    -0.182 C  
ENDROOT
BRANCH   2   3
HETATM    3  C   UNL     1     -12.317  14.159  64.630  1.00  0.00    -0.432 C  
BRANCH   3   4
HETATM    4  C   UNL     1     -11.111  14.755  65.315  1.00  0.00    -0.370 C  
HETATM    5  C   UNL     1     -10.789  16.052  65.226  1.00  0.00    -0.376 C  
HETATM    6  C   UNL     1      -9.588  16.556  65.923  1.00  0.00    -0.248 C  
HETATM    7  N   UNL     1      -8.879  15.630  66.637  1.00  0.00    -0.266 N  
HETATM    8  O   UNL     1      -9.264  17.736  65.852  1.00  0.00    -0.519 OA 
HETATM    9  C   UNL     1      -9.199  14.307  66.724  1.00  0.00    -0.264 C  
HETATM   10  H   UNL     1      -8.053  15.952  67.141  1.00  0.00     0.000 HD 
HETATM   11  S   UNL     1      -8.288  13.237  67.610  1.00  0.00    -0.196 S  
HETATM   12  N   UNL     1     -10.313  13.903  66.043  1.00  0.00    -0.297 NA 
ENDBRANCH   3   4
ENDBRANCH   2   3
TORSDOF 2
ENDMDL
MODEL       97
REMARK 921   NORMALIZED FREE ENERGY PREDICTED BY IDOCK:   -3.07 KCAL/MOL
REMARK 922        TOTAL FREE ENERGY PREDICTED BY IDOCK:   -3.56 KCAL/MOL
REMARK 923 INTER-LIGAND FREE ENERGY PREDICTED BY IDOCK:   -3.44 KCAL/MOL
REMARK 924 INTRA-LIGAND FREE ENERGY PREDICTED BY IDOCK:   -0.12 KCAL/MOL
REMARK 927      BINDING AFFINITY PREDICTED BY RF-SCORE:    0.00 PKD
ROOT
HETATM    1  C   UNL     1     -10.704  18.887  67.098  1.00  0.00    -0.506 C  
HETATM    2  C   UNL     1      -9.592  19.366  68.019  1.00  0.00    -0.429 C  
ENDROOT
BRANCH   2   3
HETATM    3  C   UNL     1      -8.644  20.334  67.302  1.00  0.00    -0.425 C  
BRANCH   3   4
HETATM    4  C   UNL     1      -7.556  19.618  66.539  1.00  0.00    -0.269 C  
HETATM    5  C   UNL     1      -7.015  18.465  66.953  1.00  0.00    -0.214 C  
HETATM    6  C   UNL     1      -5.948  17.830  66.151  1.00  0.00    -0.216 C  
HETATM    7  N   UNL     1      -5.592  18.485  65.005  1.00  0.00    -0.204 N  
HETATM    8  O   UNL     1      -5.429  16.779  66.509  1.00  0.00    -0.346 OA 
HETATM    9  C   UNL     1      -6.135  19.664  64.585  1.00  0.00    -0.269 C  
HETATM   10  H   UNL     1      -4.869  18.063  64.423  1.00  0.00     0.000 HD 
HETATM   11  S   UNL     1      -5.650  20.406  63.180  1.00  0.00    -0.255 S  
HETATM   12  N   UNL     1      -7.105  20.206  65.380  1.00  0.00    -0.306 NA 
ENDBRANCH   3   4
ENDBRANCH   2   3
TORSDOF 2
ENDMDL
MODEL       98
REMARK 921   NORMALIZED FREE ENERGY PREDICTED BY IDOCK:   -3.06 KCAL/MOL
REMARK 922        TOTAL FREE ENERGY PREDICTED BY IDOCK:   -3.55 KCAL/MOL
REMARK 923 INTER-LIGAND FREE ENERGY PREDICTED BY IDOCK:   -3.43 KCAL/MOL
REMARK 924 INTRA-LIGAND FREE ENERGY PREDICTED BY IDOCK:   -0.11 KCAL/MOL
REMARK 927      BINDING AFFINITY PREDICTED BY RF-SCORE:    0.00 PKD
ROOT
HETATM    1  C   UNL     1      -9.859   8.570  68.403  1.00  0.00    -0.189 C  
HETATM    2  C   UNL     1      -9.618  10.067  68.280  1.00  0.00    -0.151 C  
ENDROOT
BRANCH   2   3
HETATM    3  C   UNL     1     -10.877  10.803  67.807  1.00  0.00    -0.320 C  
BRANCH   3   4
HETATM    4  C   UNL     1     -10.637  11.611  66.555  1.00  0.00    -0.253 C  
HETATM    5  C   UNL     1     -10.342  11.053  65.373  1.00  0.00    -0.330 C  
HETATM    6  C   UNL     1     -10.117  11.914  64.194  1.00  0.00    -0.310 C  
HETATM    7  N   UNL     1     -10.240  13.260  64.406  1.00  0.00    -0.602 N  
HETATM    8  O   UNL     1      -9.837  11.433  63.103  1.00  0.00    -0.351 OA 
HETATM    9  C   UNL     1     -10.531  13.832  65.609  1.00  0.00    -0.305 C  
HETATM   10  H   UNL     1     -10.104  13.880  63.608  1.00  0.00     0.000 HD 
HETATM   11  S   UNL     1     -10.663  15.478  65.793  1.00  0.00    -0.352 S  
HETATM   12  N   UNL     1     -10.713  12.980  66.662  1.00  0.00    -0.272 NA 
ENDBRANCH   3   4
ENDBRANCH   2   3
TORSDOF 2
ENDMDL
MODEL       99
REMARK 921   NORMALIZED FREE ENERGY PREDICTED BY IDOCK:   -3.06 KCAL/MOL
REMARK 922        TOTAL FREE ENERGY PREDICTED BY IDOCK:   -3.54 KCAL/MOL
REMARK 923 INTER-LIGAND FREE ENERGY PREDICTED BY IDOCK:   -3.41 KCAL/MOL
REMARK 924 INTRA-LIGAND FREE ENERGY PREDICTED BY IDOCK:   -0.13 KCAL/MOL
REMARK 927      BINDING AFFINITY PREDICTED BY RF-SCORE:    0.00 PKD
ROOT
HETATM    1  C   UNL     1     -10.114  19.848  65.932  1.00  0.00    -0.519 C  
HETATM    2  C   UNL     1      -9.941  20.128  67.416  1.00  0.00    -0.570 C  
ENDROOT
BRANCH   2   3
HETATM    3  C   UNL     1      -8.774  19.328  68.007  1.00  0.00    -0.357 C  
BRANCH   3   4
HETATM    4  C   UNL     1      -9.178  17.933  68.414  1.00  0.00    -0.286 C  
HETATM    5  C   UNL     1     -10.311  17.666  69.078  1.00  0.00    -0.272 C  
HETATM    6  C   UNL     1     -10.631  16.272  69.445  1.00  0.00    -0.301 C  
HETATM    7  N   UNL     1      -9.721  15.328  69.057  1.00  0.00    -0.222 N  
HETATM    8  O   UNL     1     -11.656  15.999  70.060  1.00  0.00    -0.332 OA 
HETATM    9  C   UNL     1      -8.563  15.595  68.389  1.00  0.00    -0.173 C  
HETATM   10  H   UNL     1      -9.923  14.354  69.284  1.00  0.00     0.000 HD 
HETATM   11  S   UNL     1      -7.501  14.395  67.951  1.00  0.00    -0.171 S  
HETATM   12  N   UNL     1      -8.319  16.907  68.093  1.00  0.00    -0.205 NA 
ENDBRANCH   3   4
ENDBRANCH   2   3
TORSDOF 2
ENDMDL
MODEL      100
REMARK 921   NORMALIZED FREE ENERGY PREDICTED BY IDOCK:   -3.06 KCAL/MOL
REMARK 922        TOTAL FREE ENERGY PREDICTED BY IDOCK:   -3.54 KCAL/MOL
REMARK 923 INTER-LIGAND FREE ENERGY PREDICTED BY IDOCK:   -3.43 KCAL/MOL
REMARK 924 INTRA-LIGAND FREE ENERGY PREDICTED BY IDOCK:   -0.11 KCAL/MOL
REMARK 927      BINDING AFFINITY PREDICTED BY RF-SCORE:    0.00 PKD
ROOT
HETATM    1  C   UNL     1     -10.924  14.041  65.562  1.00  0.00    -0.309 C  
HETATM    2  C   UNL     1     -11.788  13.023  66.290  1.00  0.00    -0.466 C  
ENDROOT
BRANCH   2   3
HETATM    3  C   UNL     1     -11.170  11.622  66.239  1.00  0.00    -0.332 C  
BRANCH   3   4
HETATM    4  C   UNL     1     -10.721  11.139  67.597  1.00  0.00    -0.230 C  
HETATM    5  C   UNL     1      -9.445  10.847  67.881  1.00  0.00    -0.166 C  
HETATM    6  C   UNL     1      -9.087  10.375  69.234  1.00  0.00    -0.175 C  
HETATM    7  N   UNL     1     -10.120  10.278  70.125  1.00  0.00    -0.425 N  
HETATM    8  O   UNL     1      -7.930  10.092  69.521  1.00  0.00    -0.136 OA 
HETATM    9  C   UNL     1     -11.422  10.565  69.838  1.00  0.00    -0.310 C  
HETATM   10  H   UNL     1      -9.902   9.968  71.072  1.00  0.00     0.000 HD 
HETATM   11  S   UNL     1     -12.627  10.421  70.972  1.00  0.00    -0.425 S  
HETATM   12  N   UNL     1     -11.687  10.982  68.564  1.00  0.00    -0.459 NA 
ENDBRANCH   3   4
ENDBRANCH   2   3
TORSDOF 2
ENDMDL
MODEL      101
REMARK 921   NORMALIZED FREE ENERGY PREDICTED BY IDOCK:   -3.05 KCAL/MOL
REMARK 922        TOTAL FREE ENERGY PREDICTED BY IDOCK:   -3.53 KCAL/MOL
REMARK 923 INTER-LIGAND FREE ENERGY PREDICTED BY IDOCK:   -3.45 KCAL/MOL
REMARK 924 INTRA-LIGAND FREE ENERGY PREDICTED BY IDOCK:   -0.08 KCAL/MOL
REMARK 927      BINDING AFFINITY PREDICTED BY RF-SCORE:    0.00 PKD
ROOT
HETATM    1  C   UNL     1     -13.214  10.092  71.571  1.00  0.00    -0.496 C  
HETATM    2  C   UNL     1     -12.589   8.831  72.146  1.00  0.00    -0.463 C  
ENDROOT
BRANCH   2   3
HETATM    3  C   UNL     1     -13.024   7.583  71.370  1.00  0.00    -0.379 C  
BRANCH   3   4
HETATM    4  C   UNL     1     -11.929   6.548  71.280  1.00  0.00    -0.306 C  
HETATM    5  C   UNL     1     -11.267   6.284  70.145  1.00  0.00    -0.470 C  
HETATM    6  C   UNL     1     -10.211   5.251  70.139  1.00  0.00    -0.280 C  
HETATM    7  N   UNL     1      -9.975   4.631  71.335  1.00  0.00    -0.193 N  
HETATM    8  O   UNL     1      -9.595   4.982  69.114  1.00  0.00    -0.129 OA 
HETATM    9  C   UNL     1     -10.651   4.891  72.490  1.00  0.00    -0.210 C  
HETATM   10  H   UNL     1      -9.241   3.924  71.365  1.00  0.00     0.000 HD 
HETATM   11  S   UNL     1     -10.311   4.095  73.908  1.00  0.00    -0.212 S  
HETATM   12  N   UNL     1     -11.626   5.846  72.424  1.00  0.00    -0.310 NA 
ENDBRANCH   3   4
ENDBRANCH   2   3
TORSDOF 2
ENDMDL
MODEL      102
REMARK 921   NORMALIZED FREE ENERGY PREDICTED BY IDOCK:   -3.03 KCAL/MOL
REMARK 922        TOTAL FREE ENERGY PREDICTED BY IDOCK:   -3.51 KCAL/MOL
REMARK 923 INTER-LIGAND FREE ENERGY PREDICTED BY IDOCK:   -3.39 KCAL/MOL
REMARK 924 INTRA-LIGAND FREE ENERGY PREDICTED BY IDOCK:   -0.11 KCAL/MOL
REMARK 927      BINDING AFFINITY PREDICTED BY RF-SCORE:    0.00 PKD
ROOT
HETATM    1  C   UNL     1      -6.022  19.388  69.105  1.00  0.00    -0.283 C  
HETATM    2  C   UNL     1      -6.040  19.609  67.601  1.00  0.00    -0.214 C  
ENDROOT
BRANCH   2   3
HETATM    3  C   UNL     1      -6.313  18.305  66.843  1.00  0.00    -0.198 C  
BRANCH   3   4
HETATM    4  C   UNL     1      -7.782  18.090  66.574  1.00  0.00    -0.249 C  
HETATM    5  C   UNL     1      -8.670  19.093  66.533  1.00  0.00    -0.348 C  
HETATM    6  C   UNL     1     -10.093  18.799  66.268  1.00  0.00    -0.409 C  
HETATM    7  N   UNL     1     -10.403  17.482  66.069  1.00  0.00    -0.354 N  
HETATM    8  O   UNL     1     -10.928  19.695  66.233  1.00  0.00    -0.372 OA 
HETATM    9  C   UNL     1      -9.505  16.457  66.118  1.00  0.00    -0.329 C  
HETATM   10  H   UNL     1     -11.376  17.249  65.869  1.00  0.00     0.000 HD 
HETATM   11  S   UNL     1      -9.955  14.878  65.868  1.00  0.00    -0.351 S  
HETATM   12  N   UNL     1      -8.208  16.796  66.383  1.00  0.00    -0.289 NA 
ENDBRANCH   3   4
ENDBRANCH   2   3
TORSDOF 2
ENDMDL
MODEL      103
REMARK 921   NORMALIZED FREE ENERGY PREDICTED BY IDOCK:   -3.03 KCAL/MOL
REMARK 922        TOTAL FREE ENERGY PREDICTED BY IDOCK:   -3.51 KCAL/MOL
REMARK 923 INTER-LIGAND FREE ENERGY PREDICTED BY IDOCK:   -3.36 KCAL/MOL
REMARK 924 INTRA-LIGAND FREE ENERGY PREDICTED BY IDOCK:   -0.14 KCAL/MOL
REMARK 927      BINDING AFFINITY PREDICTED BY RF-SCORE:    0.00 PKD
ROOT
HETATM    1  C   UNL     1      -7.542  10.862  66.775  1.00  0.00    -0.134 C  
HETATM    2  C   UNL     1      -8.514  10.147  67.700  1.00  0.00    -0.118 C  
ENDROOT
BRANCH   2   3
HETATM    3  C   UNL     1      -9.857   9.883  67.010  1.00  0.00    -0.241 C  
BRANCH   3   4
HETATM    4  C   UNL     1     -10.666  11.142  66.820  1.00  0.00    -0.276 C  
HETATM    5  C   UNL     1     -11.055  11.919  67.840  1.00  0.00    -0.297 C  
HETATM    6  C   UNL     1     -11.851  13.134  67.571  1.00  0.00    -0.360 C  
HETATM    7  N   UNL     1     -12.129  13.386  66.256  1.00  0.00    -0.420 N  
HETATM    8  O   UNL     1     -12.228  13.859  68.484  1.00  0.00    -0.342 OA 
HETATM    9  C   UNL     1     -11.742  12.594  65.215  1.00  0.00    -0.378 C  
HETATM   10  H   UNL     1     -12.664  14.226  66.037  1.00  0.00     0.000 HD 
HETATM   11  S   UNL     1     -12.120  12.962  63.640  1.00  0.00    -0.533 S  
HETATM   12  N   UNL     1     -11.022  11.477  65.534  1.00  0.00    -0.264 NA 
ENDBRANCH   3   4
ENDBRANCH   2   3
TORSDOF 2
ENDMDL
MODEL      104
REMARK 921   NORMALIZED FREE ENERGY PREDICTED BY IDOCK:   -3.01 KCAL/MOL
REMARK 922        TOTAL FREE ENERGY PREDICTED BY IDOCK:   -3.49 KCAL/MOL
REMARK 923 INTER-LIGAND FREE ENERGY PREDICTED BY IDOCK:   -3.44 KCAL/MOL
REMARK 924 INTRA-LIGAND FREE ENERGY PREDICTED BY IDOCK:   -0.04 KCAL/MOL
REMARK 927      BINDING AFFINITY PREDICTED BY RF-SCORE:    0.00 PKD
ROOT
HETATM    1  C   UNL     1     -10.375  14.037  68.471  1.00  0.00    -0.247 C  
HETATM    2  C   UNL     1     -11.776  13.480  68.273  1.00  0.00    -0.394 C  
ENDROOT
BRANCH   2   3
HETATM    3  C   UNL     1     -11.741  12.008  67.844  1.00  0.00    -0.393 C  
BRANCH   3   4
HETATM    4  C   UNL     1     -11.333  11.089  68.969  1.00  0.00    -0.277 C  
HETATM    5  C   UNL     1     -10.090  10.604  69.099  1.00  0.00    -0.234 C  
HETATM    6  C   UNL     1      -9.772   9.704  70.226  1.00  0.00    -0.259 C  
HETATM    7  N   UNL     1     -10.801   9.434  71.084  1.00  0.00    -0.331 N  
HETATM    8  O   UNL     1      -8.646   9.239  70.366  1.00  0.00    -0.180 OA 
HETATM    9  C   UNL     1     -12.069   9.918  70.951  1.00  0.00    -0.341 C  
HETATM   10  H   UNL     1     -10.608   8.827  71.881  1.00  0.00     0.000 HD 
HETATM   11  S   UNL     1     -13.273   9.545  72.033  1.00  0.00    -0.469 S  
HETATM   12  N   UNL     1     -12.301  10.733  69.878  1.00  0.00    -0.316 NA 
ENDBRANCH   3   4
ENDBRANCH   2   3
TORSDOF 2
ENDMDL
MODEL      105
REMARK 921   NORMALIZED FREE ENERGY PREDICTED BY IDOCK:   -2.99 KCAL/MOL
REMARK 922        TOTAL FREE ENERGY PREDICTED BY IDOCK:   -3.47 KCAL/MOL
REMARK 923 INTER-LIGAND FREE ENERGY PREDICTED BY IDOCK:   -3.38 KCAL/MOL
REMARK 924 INTRA-LIGAND FREE ENERGY PREDICTED BY IDOCK:   -0.09 KCAL/MOL
REMARK 927      BINDING AFFINITY PREDICTED BY RF-SCORE:    0.00 PKD
ROOT
HETATM    1  C   UNL     1     -12.656  14.662  71.575  1.00  0.00    -0.410 C  
HETATM    2  C   UNL     1     -11.674  14.412  70.441  1.00  0.00    -0.346 C  
ENDROOT
BRANCH   2   3
HETATM    3  C   UNL     1     -12.351  14.535  69.072  1.00  0.00    -0.122 C  
BRANCH   3   4
HETATM    4  C   UNL     1     -11.394  14.300  67.930  1.00  0.00    -0.297 C  
HETATM    5  C   UNL     1     -11.759  14.385  66.643  1.00  0.00    -0.410 C  
HETATM    6  C   UNL     1     -10.761  14.135  65.583  1.00  0.00    -0.313 C  
HETATM    7  N   UNL     1      -9.497  13.836  66.011  1.00  0.00    -0.492 N  
HETATM    8  O   UNL     1     -11.068  14.197  64.398  1.00  0.00    -0.350 OA 
HETATM    9  C   UNL     1      -9.123  13.741  67.319  1.00  0.00    -0.232 C  
HETATM   10  H   UNL     1      -8.783  13.673  65.301  1.00  0.00     0.000 HD 
HETATM   11  S   UNL     1      -7.566  13.371  67.765  1.00  0.00    -0.174 S  
HETATM   12  N   UNL     1     -10.097  13.969  68.250  1.00  0.00    -0.240 NA 
ENDBRANCH   3   4
ENDBRANCH   2   3
TORSDOF 2
ENDMDL
MODEL      106
REMARK 921   NORMALIZED FREE ENERGY PREDICTED BY IDOCK:   -2.98 KCAL/MOL
REMARK 922        TOTAL FREE ENERGY PREDICTED BY IDOCK:   -3.45 KCAL/MOL
REMARK 923 INTER-LIGAND FREE ENERGY PREDICTED BY IDOCK:   -3.41 KCAL/MOL
REMARK 924 INTRA-LIGAND FREE ENERGY PREDICTED BY IDOCK:   -0.04 KCAL/MOL
REMARK 927      BINDING AFFINITY PREDICTED BY RF-SCORE:    0.00 PKD
ROOT
HETATM    1  C   UNL     1     -14.046   8.484  71.554  1.00  0.00    -0.428 C  
HETATM    2  C   UNL     1     -13.399   9.792  71.979  1.00  0.00    -0.547 C  
ENDROOT
BRANCH   2   3
HETATM    3  C   UNL     1     -12.590  10.418  70.837  1.00  0.00    -0.478 C  
BRANCH   3   4
HETATM    4  C   UNL     1     -11.147   9.978  70.842  1.00  0.00    -0.314 C  
HETATM    5  C   UNL     1     -10.278  10.317  69.880  1.00  0.00    -0.250 C  
HETATM    6  C   UNL     1      -8.882   9.841  69.955  1.00  0.00    -0.215 C  
HETATM    7  N   UNL     1      -8.571   9.073  71.043  1.00  0.00    -0.204 N  
HETATM    8  O   UNL     1      -8.067  10.128  69.086  1.00  0.00    -0.112 OA 
HETATM    9  C   UNL     1      -9.454   8.718  72.020  1.00  0.00    -0.266 C  
HETATM   10  H   UNL     1      -7.610   8.742  71.130  1.00  0.00     0.000 HD 
HETATM   11  S   UNL     1      -9.005   7.778  73.314  1.00  0.00    -0.260 S  
HETATM   12  N   UNL     1     -10.733   9.179  71.882  1.00  0.00    -0.338 NA 
ENDBRANCH   3   4
ENDBRANCH   2   3
TORSDOF 2
ENDMDL
MODEL      107
REMARK 921   NORMALIZED FREE ENERGY PREDICTED BY IDOCK:   -2.97 KCAL/MOL
REMARK 922        TOTAL FREE ENERGY PREDICTED BY IDOCK:   -3.44 KCAL/MOL
REMARK 923 INTER-LIGAND FREE ENERGY PREDICTED BY IDOCK:   -3.35 KCAL/MOL
REMARK 924 INTRA-LIGAND FREE ENERGY PREDICTED BY IDOCK:   -0.09 KCAL/MOL
REMARK 927      BINDING AFFINITY PREDICTED BY RF-SCORE:    0.00 PKD
ROOT
HETATM    1  C   UNL     1     -10.277  17.008  69.091  1.00  0.00    -0.288 C  
HETATM    2  C   UNL     1     -10.360  15.630  69.730  1.00  0.00    -0.309 C  
ENDROOT
BRANCH   2   3
HETATM    3  C   UNL     1     -11.691  14.941  69.410  1.00  0.00    -0.349 C  
BRANCH   3   4
HETATM    4  C   UNL     1     -11.558  13.441  69.320  1.00  0.00    -0.310 C  
HETATM    5  C   UNL     1     -10.935  12.824  68.306  1.00  0.00    -0.278 C  
HETATM    6  C   UNL     1     -10.852  11.350  68.289  1.00  0.00    -0.209 C  
HETATM    7  N   UNL     1     -11.427  10.706  69.349  1.00  0.00    -0.269 N  
HETATM    8  O   UNL     1     -10.296  10.758  67.370  1.00  0.00    -0.191 OA 
HETATM    9  C   UNL     1     -12.070  11.329  70.379  1.00  0.00    -0.384 C  
HETATM   10  H   UNL     1     -11.373   9.688  69.372  1.00  0.00     0.000 HD 
HETATM   11  S   UNL     1     -12.749  10.481  71.635  1.00  0.00    -0.419 S  
HETATM   12  N   UNL     1     -12.124  12.694  70.326  1.00  0.00    -0.341 NA 
ENDBRANCH   3   4
ENDBRANCH   2   3
TORSDOF 2
ENDMDL
MODEL      108
REMARK 921   NORMALIZED FREE ENERGY PREDICTED BY IDOCK:   -2.96 KCAL/MOL
REMARK 922        TOTAL FREE ENERGY PREDICTED BY IDOCK:   -3.43 KCAL/MOL
REMARK 923 INTER-LIGAND FREE ENERGY PREDICTED BY IDOCK:   -3.35 KCAL/MOL
REMARK 924 INTRA-LIGAND FREE ENERGY PREDICTED BY IDOCK:   -0.08 KCAL/MOL
REMARK 927      BINDING AFFINITY PREDICTED BY RF-SCORE:    0.00 PKD
ROOT
HETATM    1  C   UNL     1      -9.245   9.690  65.172  1.00  0.00    -0.305 C  
HETATM    2  C   UNL     1      -9.104   8.887  66.456  1.00  0.00    -0.206 C  
ENDROOT
BRANCH   2   3
HETATM    3  C   UNL     1     -10.469   8.571  67.076  1.00  0.00    -0.362 C  
BRANCH   3   4
HETATM    4  C   UNL     1     -10.784   9.452  68.260  1.00  0.00    -0.171 C  
HETATM    5  C   UNL     1     -10.773   9.006  69.524  1.00  0.00    -0.215 C  
HETATM    6  C   UNL     1     -11.098   9.932  70.628  1.00  0.00    -0.340 C  
HETATM    7  N   UNL     1     -11.386  11.218  70.264  1.00  0.00    -0.491 N  
HETATM    8  O   UNL     1     -11.103   9.550  71.793  1.00  0.00    -0.352 OA 
HETATM    9  C   UNL     1     -11.407  11.674  68.979  1.00  0.00    -0.275 C  
HETATM   10  H   UNL     1     -11.600  11.884  71.006  1.00  0.00     0.000 HD 
HETATM   11  S   UNL     1     -11.769  13.253  68.610  1.00  0.00    -0.356 S  
HETATM   12  N   UNL     1     -11.112  10.763  68.004  1.00  0.00    -0.277 NA 
ENDBRANCH   3   4
ENDBRANCH   2   3
TORSDOF 2
ENDMDL
MODEL      109
REMARK 921   NORMALIZED FREE ENERGY PREDICTED BY IDOCK:   -2.95 KCAL/MOL
REMARK 922        TOTAL FREE ENERGY PREDICTED BY IDOCK:   -3.42 KCAL/MOL
REMARK 923 INTER-LIGAND FREE ENERGY PREDICTED BY IDOCK:   -3.31 KCAL/MOL
REMARK 924 INTRA-LIGAND FREE ENERGY PREDICTED BY IDOCK:   -0.11 KCAL/MOL
REMARK 927      BINDING AFFINITY PREDICTED BY RF-SCORE:    0.00 PKD
ROOT
HETATM    1  C   UNL     1      -9.431  10.543  63.196  1.00  0.00    -0.367 C  
HETATM    2  C   UNL     1     -10.524  10.956  64.169  1.00  0.00    -0.397 C  
ENDROOT
BRANCH   2   3
HETATM    3  C   UNL     1      -9.938  11.463  65.492  1.00  0.00    -0.282 C  
BRANCH   3   4
HETATM    4  C   UNL     1     -10.301  10.580  66.661  1.00  0.00    -0.237 C  
HETATM    5  C   UNL     1     -10.058   9.262  66.682  1.00  0.00    -0.341 C  
HETATM    6  C   UNL     1     -10.449   8.466  67.863  1.00  0.00    -0.193 C  
HETATM    7  N   UNL     1     -11.039   9.161  68.882  1.00  0.00    -0.439 N  
HETATM    8  O   UNL     1     -10.247   7.258  67.907  1.00  0.00    -0.171 OA 
HETATM    9  C   UNL     1     -11.296  10.500  68.862  1.00  0.00    -0.251 C  
HETATM   10  H   UNL     1     -11.307   8.640  69.717  1.00  0.00     0.000 HD 
HETATM   11  S   UNL     1     -12.020  11.278  70.138  1.00  0.00    -0.387 S  
HETATM   12  N   UNL     1     -10.923  11.175  67.733  1.00  0.00    -0.241 NA 
ENDBRANCH   3   4
ENDBRANCH   2   3
TORSDOF 2
ENDMDL
MODEL      110
REMARK 921   NORMALIZED FREE ENERGY PREDICTED BY IDOCK:   -2.94 KCAL/MOL
REMARK 922        TOTAL FREE ENERGY PREDICTED BY IDOCK:   -3.41 KCAL/MOL
REMARK 923 INTER-LIGAND FREE ENERGY PREDICTED BY IDOCK:   -3.42 KCAL/MOL
REMARK 924 INTRA-LIGAND FREE ENERGY PREDICTED BY IDOCK:    0.01 KCAL/MOL
REMARK 927      BINDING AFFINITY PREDICTED BY RF-SCORE:    0.00 PKD
ROOT
HETATM    1  C   UNL     1     -12.318  14.433  65.812  1.00  0.00    -0.345 C  
HETATM    2  C   UNL     1     -10.912  14.666  66.343  1.00  0.00    -0.325 C  
ENDROOT
BRANCH   2   3
HETATM    3  C   UNL     1     -10.232  13.348  66.733  1.00  0.00    -0.259 C  
BRANCH   3   4
HETATM    4  C   UNL     1     -10.791  12.766  68.008  1.00  0.00    -0.233 C  
HETATM    5  C   UNL     1     -10.706  11.463  68.312  1.00  0.00    -0.240 C  
HETATM    6  C   UNL     1     -11.283  10.971  69.580  1.00  0.00    -0.279 C  
HETATM    7  N   UNL     1     -11.869  11.915  70.376  1.00  0.00    -0.509 N  
HETATM    8  O   UNL     1     -11.229   9.784  69.880  1.00  0.00    -0.241 OA 
HETATM    9  C   UNL     1     -11.965  13.240  70.067  1.00  0.00    -0.329 C  
HETATM   10  H   UNL     1     -12.263  11.607  71.265  1.00  0.00     0.000 HD 
HETATM   11  S   UNL     1     -12.695  14.332  71.084  1.00  0.00    -0.381 S  
HETATM   12  N   UNL     1     -11.424  13.627  68.873  1.00  0.00    -0.281 NA 
ENDBRANCH   3   4
ENDBRANCH   2   3
TORSDOF 2
ENDMDL
MODEL      111
REMARK 921   NORMALIZED FREE ENERGY PREDICTED BY IDOCK:   -2.93 KCAL/MOL
REMARK 922        TOTAL FREE ENERGY PREDICTED BY IDOCK:   -3.40 KCAL/MOL
REMARK 923 INTER-LIGAND FREE ENERGY PREDICTED BY IDOCK:   -3.25 KCAL/MOL
REMARK 924 INTRA-LIGAND FREE ENERGY PREDICTED BY IDOCK:   -0.14 KCAL/MOL
REMARK 927      BINDING AFFINITY PREDICTED BY RF-SCORE:    0.00 PKD
ROOT
HETATM    1  C   UNL     1      -8.217  10.949  68.804  1.00  0.00    -0.151 C  
HETATM    2  C   UNL     1      -8.070  11.569  67.424  1.00  0.00    -0.146 C  
ENDROOT
BRANCH   2   3
HETATM    3  C   UNL     1      -8.199  13.096  67.475  1.00  0.00    -0.183 C  
BRANCH   3   4
HETATM    4  C   UNL     1      -9.631  13.558  67.357  1.00  0.00    -0.227 C  
HETATM    5  C   UNL     1     -10.192  14.418  68.218  1.00  0.00    -0.241 C  
HETATM    6  C   UNL     1     -11.603  14.818  68.036  1.00  0.00    -0.343 C  
HETATM    7  N   UNL     1     -12.245  14.270  66.960  1.00  0.00    -0.575 N  
HETATM    8  O   UNL     1     -12.146  15.595  68.813  1.00  0.00    -0.301 OA 
HETATM    9  C   UNL     1     -11.679  13.389  66.086  1.00  0.00    -0.368 C  
HETATM   10  H   UNL     1     -13.215  14.539  66.800  1.00  0.00     0.000 HD 
HETATM   11  S   UNL     1     -12.522  12.761  64.800  1.00  0.00    -0.441 S  
HETATM   12  N   UNL     1     -10.377  13.048  66.320  1.00  0.00    -0.279 NA 
ENDBRANCH   3   4
ENDBRANCH   2   3
TORSDOF 2
ENDMDL
MODEL      112
REMARK 921   NORMALIZED FREE ENERGY PREDICTED BY IDOCK:   -2.93 KCAL/MOL
REMARK 922        TOTAL FREE ENERGY PREDICTED BY IDOCK:   -3.39 KCAL/MOL
REMARK 923 INTER-LIGAND FREE ENERGY PREDICTED BY IDOCK:   -3.29 KCAL/MOL
REMARK 924 INTRA-LIGAND FREE ENERGY PREDICTED BY IDOCK:   -0.11 KCAL/MOL
REMARK 927      BINDING AFFINITY PREDICTED BY RF-SCORE:    0.00 PKD
ROOT
HETATM    1  C   UNL     1     -12.322  10.749  71.266  1.00  0.00    -0.470 C  
HETATM    2  C   UNL     1     -11.567   9.478  70.911  1.00  0.00    -0.398 C  
ENDROOT
BRANCH   2   3
HETATM    3  C   UNL     1     -12.351   8.225  71.319  1.00  0.00    -0.285 C  
BRANCH   3   4
HETATM    4  C   UNL     1     -11.547   7.303  72.203  1.00  0.00    -0.286 C  
HETATM    5  C   UNL     1     -11.898   6.032  72.440  1.00  0.00    -0.283 C  
HETATM    6  C   UNL     1     -11.060   5.195  73.323  1.00  0.00    -0.327 C  
HETATM    7  N   UNL     1      -9.947   5.800  73.838  1.00  0.00    -0.187 N  
HETATM    8  O   UNL     1     -11.361   4.032  73.565  1.00  0.00    -0.262 OA 
HETATM    9  C   UNL     1      -9.590   7.096  73.606  1.00  0.00    -0.246 C  
HETATM   10  H   UNL     1      -9.341   5.243  74.440  1.00  0.00     0.000 HD 
HETATM   11  S   UNL     1      -8.223   7.765  74.270  1.00  0.00    -0.244 S  
HETATM   12  N   UNL     1     -10.417   7.819  72.794  1.00  0.00    -0.299 NA 
ENDBRANCH   3   4
ENDBRANCH   2   3
TORSDOF 2
ENDMDL
MODEL      113
REMARK 921   NORMALIZED FREE ENERGY PREDICTED BY IDOCK:   -2.93 KCAL/MOL
REMARK 922        TOTAL FREE ENERGY PREDICTED BY IDOCK:   -3.39 KCAL/MOL
REMARK 923 INTER-LIGAND FREE ENERGY PREDICTED BY IDOCK:   -3.29 KCAL/MOL
REMARK 924 INTRA-LIGAND FREE ENERGY PREDICTED BY IDOCK:   -0.10 KCAL/MOL
REMARK 927      BINDING AFFINITY PREDICTED BY RF-SCORE:    0.00 PKD
ROOT
HETATM    1  C   UNL     1     -11.151  15.587  64.752  1.00  0.00    -0.421 C  
HETATM    2  C   UNL     1     -11.654  14.256  65.288  1.00  0.00    -0.348 C  
ENDROOT
BRANCH   2   3
HETATM    3  C   UNL     1     -11.980  14.337  66.783  1.00  0.00    -0.462 C  
BRANCH   3   4
HETATM    4  C   UNL     1     -11.221  13.318  67.596  1.00  0.00    -0.280 C  
HETATM    5  C   UNL     1     -11.767  12.650  68.621  1.00  0.00    -0.364 C  
HETATM    6  C   UNL     1     -10.953  11.671  69.372  1.00  0.00    -0.152 C  
HETATM    7  N   UNL     1      -9.666  11.510  68.941  1.00  0.00    -0.393 N  
HETATM    8  O   UNL     1     -11.424  11.052  70.319  1.00  0.00    -0.301 OA 
HETATM    9  C   UNL     1      -9.103  12.194  67.904  1.00  0.00    -0.185 C  
HETATM   10  H   UNL     1      -9.084  10.830  69.431  1.00  0.00     0.000 HD 
HETATM   11  S   UNL     1      -7.528  11.948  67.438  1.00  0.00    -0.157 S  
HETATM   12  N   UNL     1      -9.905  13.095  67.262  1.00  0.00    -0.228 NA 
ENDBRANCH   3   4
ENDBRANCH   2   3
TORSDOF 2
ENDMDL
MODEL      114
REMARK 921   NORMALIZED FREE ENERGY PREDICTED BY IDOCK:   -2.92 KCAL/MOL
REMARK 922        TOTAL FREE ENERGY PREDICTED BY IDOCK:   -3.39 KCAL/MOL
REMARK 923 INTER-LIGAND FREE ENERGY PREDICTED BY IDOCK:   -3.29 KCAL/MOL
REMARK 924 INTRA-LIGAND FREE ENERGY PREDICTED BY IDOCK:   -0.10 KCAL/MOL
REMARK 927      BINDING AFFINITY PREDICTED BY RF-SCORE:    0.00 PKD
ROOT
HETATM    1  C   UNL     1      -8.659   5.744  70.604  1.00  0.00    -0.132 C  
HETATM    2  C   UNL     1      -9.960   6.058  69.883  1.00  0.00    -0.225 C  
ENDROOT
BRANCH   2   3
HETATM    3  C   UNL     1     -11.031   6.574  70.851  1.00  0.00    -0.325 C  
BRANCH   3   4
HETATM    4  C   UNL     1     -11.214   8.069  70.767  1.00  0.00    -0.265 C  
HETATM    5  C   UNL     1     -12.098   8.738  71.520  1.00  0.00    -0.388 C  
HETATM    6  C   UNL     1     -12.219  10.203  71.374  1.00  0.00    -0.397 C  
HETATM    7  N   UNL     1     -11.386  10.784  70.459  1.00  0.00    -0.434 N  
HETATM    8  O   UNL     1     -13.025  10.841  72.043  1.00  0.00    -0.463 OA 
HETATM    9  C   UNL     1     -10.490  10.106  69.685  1.00  0.00    -0.252 C  
HETATM   10  H   UNL     1     -11.436  11.796  70.347  1.00  0.00     0.000 HD 
HETATM   11  S   UNL     1      -9.510  10.879  68.590  1.00  0.00    -0.191 S  
HETATM   12  N   UNL     1     -10.439   8.751  69.858  1.00  0.00    -0.216 NA 
ENDBRANCH   3   4
ENDBRANCH   2   3
TORSDOF 2
ENDMDL
MODEL      115
REMARK 921   NORMALIZED FREE ENERGY PREDICTED BY IDOCK:   -2.92 KCAL/MOL
REMARK 922        TOTAL FREE ENERGY PREDICTED BY IDOCK:   -3.39 KCAL/MOL
REMARK 923 INTER-LIGAND FREE ENERGY PREDICTED BY IDOCK:   -3.26 KCAL/MOL
REMARK 924 INTRA-LIGAND FREE ENERGY PREDICTED BY IDOCK:   -0.13 KCAL/MOL
REMARK 927      BINDING AFFINITY PREDICTED BY RF-SCORE:    0.00 PKD
ROOT
HETATM    1  C   UNL     1     -10.925   6.174  67.032  1.00  0.00    -0.414 C  
HETATM    2  C   UNL     1      -9.882   7.182  67.489  1.00  0.00    -0.192 C  
ENDROOT
BRANCH   2   3
HETATM    3  C   UNL     1      -9.424   8.080  66.334  1.00  0.00    -0.268 C  
BRANCH   3   4
HETATM    4  C   UNL     1     -10.067   9.444  66.372  1.00  0.00    -0.262 C  
HETATM    5  C   UNL     1     -10.083  10.273  65.319  1.00  0.00    -0.359 C  
HETATM    6  C   UNL     1     -10.729  11.595  65.440  1.00  0.00    -0.287 C  
HETATM    7  N   UNL     1     -11.290  11.878  66.655  1.00  0.00    -0.335 N  
HETATM    8  O   UNL     1     -10.752  12.377  64.496  1.00  0.00    -0.288 OA 
HETATM    9  C   UNL     1     -11.269  11.041  67.732  1.00  0.00    -0.308 C  
HETATM   10  H   UNL     1     -11.757  12.778  66.764  1.00  0.00     0.000 HD 
HETATM   11  S   UNL     1     -11.970  11.453  69.180  1.00  0.00    -0.285 S  
HETATM   12  N   UNL     1     -10.642   9.839  67.558  1.00  0.00    -0.263 NA 
ENDBRANCH   3   4
ENDBRANCH   2   3
TORSDOF 2
ENDMDL
MODEL      116
REMARK 921   NORMALIZED FREE ENERGY PREDICTED BY IDOCK:   -2.92 KCAL/MOL
REMARK 922        TOTAL FREE ENERGY PREDICTED BY IDOCK:   -3.39 KCAL/MOL
REMARK 923 INTER-LIGAND FREE ENERGY PREDICTED BY IDOCK:   -3.25 KCAL/MOL
REMARK 924 INTRA-LIGAND FREE ENERGY PREDICTED BY IDOCK:   -0.14 KCAL/MOL
REMARK 927      BINDING AFFINITY PREDICTED BY RF-SCORE:    0.00 PKD
ROOT
HETATM    1  C   UNL     1      -6.175  20.054  70.125  1.00  0.00    -0.393 C  
HETATM    2  C   UNL     1      -6.067  19.550  68.695  1.00  0.00    -0.267 C  
ENDROOT
BRANCH   2   3
HETATM    3  C   UNL     1      -6.344  18.045  68.606  1.00  0.00    -0.211 C  
BRANCH   3   4
HETATM    4  C   UNL     1      -7.784  17.741  68.273  1.00  0.00    -0.266 C  
HETATM    5  C   UNL     1      -8.419  16.646  68.713  1.00  0.00    -0.255 C  
HETATM    6  C   UNL     1      -9.829  16.419  68.339  1.00  0.00    -0.233 C  
HETATM    7  N   UNL     1     -10.401  17.382  67.553  1.00  0.00    -0.339 N  
HETATM    8  O   UNL     1     -10.433  15.423  68.719  1.00  0.00    -0.220 OA 
HETATM    9  C   UNL     1      -9.757  18.494  67.097  1.00  0.00    -0.304 C  
HETATM   10  H   UNL     1     -11.379  17.260  67.291  1.00  0.00     0.000 HD 
HETATM   11  S   UNL     1     -10.516  19.622  66.142  1.00  0.00    -0.499 S  
HETATM   12  N   UNL     1      -8.449  18.636  67.467  1.00  0.00    -0.264 NA 
ENDBRANCH   3   4
ENDBRANCH   2   3
TORSDOF 2
ENDMDL
MODEL      117
REMARK 921   NORMALIZED FREE ENERGY PREDICTED BY IDOCK:   -2.91 KCAL/MOL
REMARK 922        TOTAL FREE ENERGY PREDICTED BY IDOCK:   -3.37 KCAL/MOL
REMARK 923 INTER-LIGAND FREE ENERGY PREDICTED BY IDOCK:   -3.28 KCAL/MOL
REMARK 924 INTRA-LIGAND FREE ENERGY PREDICTED BY IDOCK:   -0.10 KCAL/MOL
REMARK 927      BINDING AFFINITY PREDICTED BY RF-SCORE:    0.00 PKD
ROOT
HETATM    1  C   UNL     1      -9.878  13.178  68.202  1.00  0.00    -0.228 C  
HETATM    2  C   UNL     1     -10.006  14.680  68.001  1.00  0.00    -0.220 C  
ENDROOT
BRANCH   2   3
HETATM    3  C   UNL     1      -8.716  15.411  68.386  1.00  0.00    -0.171 C  
BRANCH   3   4
HETATM    4  C   UNL     1      -8.854  16.912  68.301  1.00  0.00    -0.228 C  
HETATM    5  C   UNL     1      -9.961  17.516  67.849  1.00  0.00    -0.312 C  
HETATM    6  C   UNL     1     -10.016  18.992  67.791  1.00  0.00    -0.357 C  
HETATM    7  N   UNL     1      -8.898  19.648  68.228  1.00  0.00    -0.325 N  
HETATM    8  O   UNL     1     -11.011  19.572  67.375  1.00  0.00    -0.477 OA 
HETATM    9  C   UNL     1      -7.766  19.036  68.680  1.00  0.00    -0.343 C  
HETATM   10  H   UNL     1      -8.912  20.668  68.213  1.00  0.00     0.000 HD 
HETATM   11  S   UNL     1      -6.443  19.900  69.193  1.00  0.00    -0.338 S  
HETATM   12  N   UNL     1      -7.776  17.670  68.693  1.00  0.00    -0.279 NA 
ENDBRANCH   3   4
ENDBRANCH   2   3
TORSDOF 2
ENDMDL
MODEL      118
REMARK 921   NORMALIZED FREE ENERGY PREDICTED BY IDOCK:   -2.90 KCAL/MOL
REMARK 922        TOTAL FREE ENERGY PREDICTED BY IDOCK:   -3.37 KCAL/MOL
REMARK 923 INTER-LIGAND FREE ENERGY PREDICTED BY IDOCK:   -3.29 KCAL/MOL
REMARK 924 INTRA-LIGAND FREE ENERGY PREDICTED BY IDOCK:   -0.08 KCAL/MOL
REMARK 927      BINDING AFFINITY PREDICTED BY RF-SCORE:    0.00 PKD
ROOT
HETATM    1  C   UNL     1      -6.798   8.118  69.774  1.00  0.00    -0.040 C  
HETATM    2  C   UNL     1      -8.310   8.285  69.755  1.00  0.00    -0.123 C  
ENDROOT
BRANCH   2   3
HETATM    3  C   UNL     1      -8.799   9.118  70.945  1.00  0.00    -0.292 C  
BRANCH   3   4
HETATM    4  C   UNL     1     -10.109   8.617  71.501  1.00  0.00    -0.274 C  
HETATM    5  C   UNL     1     -11.215   9.372  71.553  1.00  0.00    -0.457 C  
HETATM    6  C   UNL     1     -12.458   8.808  72.118  1.00  0.00    -0.393 C  
HETATM    7  N   UNL     1     -12.384   7.513  72.550  1.00  0.00    -0.534 N  
HETATM    8  O   UNL     1     -13.483   9.477  72.186  1.00  0.00    -0.420 OA 
HETATM    9  C   UNL     1     -11.259   6.744  72.507  1.00  0.00    -0.268 C  
HETATM   10  H   UNL     1     -13.231   7.091  72.932  1.00  0.00     0.000 HD 
HETATM   11  S   UNL     1     -11.242   5.175  73.053  1.00  0.00    -0.302 S  
HETATM   12  N   UNL     1     -10.139   7.330  71.987  1.00  0.00    -0.184 NA 
ENDBRANCH   3   4
ENDBRANCH   2   3
TORSDOF 2
ENDMDL
MODEL      119
REMARK 921   NORMALIZED FREE ENERGY PREDICTED BY IDOCK:   -2.90 KCAL/MOL
REMARK 922        TOTAL FREE ENERGY PREDICTED BY IDOCK:   -3.36 KCAL/MOL
REMARK 923 INTER-LIGAND FREE ENERGY PREDICTED BY IDOCK:   -3.29 KCAL/MOL
REMARK 924 INTRA-LIGAND FREE ENERGY PREDICTED BY IDOCK:   -0.08 KCAL/MOL
REMARK 927      BINDING AFFINITY PREDICTED BY RF-SCORE:    0.00 PKD
ROOT
HETATM    1  C   UNL     1      -6.596  14.550  67.594  1.00  0.00    -0.174 C  
HETATM    2  C   UNL     1      -7.119  15.975  67.682  1.00  0.00    -0.178 C  
ENDROOT
BRANCH   2   3
HETATM    3  C   UNL     1      -8.049  16.307  66.510  1.00  0.00    -0.337 C  
BRANCH   3   4
HETATM    4  C   UNL     1      -8.452  17.761  66.486  1.00  0.00    -0.260 C  
HETATM    5  C   UNL     1      -9.697  18.167  66.205  1.00  0.00    -0.280 C  
HETATM    6  C   UNL     1     -10.010  19.611  66.197  1.00  0.00    -0.463 C  
HETATM    7  N   UNL     1      -8.972  20.449  66.497  1.00  0.00    -0.569 N  
HETATM    8  O   UNL     1     -11.138  20.013  65.936  1.00  0.00    -0.163 OA 
HETATM    9  C   UNL     1      -7.701  20.040  66.775  1.00  0.00    -0.304 C  
HETATM   10  H   UNL     1      -9.161  21.451  66.514  1.00  0.00     0.000 HD 
HETATM   11  S   UNL     1      -6.486  21.117  67.129  1.00  0.00    -0.339 S  
HETATM   12  N   UNL     1      -7.475  18.692  66.751  1.00  0.00    -0.218 NA 
ENDBRANCH   3   4
ENDBRANCH   2   3
TORSDOF 2
ENDMDL
MODEL      120
REMARK 921   NORMALIZED FREE ENERGY PREDICTED BY IDOCK:   -2.89 KCAL/MOL
REMARK 922        TOTAL FREE ENERGY PREDICTED BY IDOCK:   -3.36 KCAL/MOL
REMARK 923 INTER-LIGAND FREE ENERGY PREDICTED BY IDOCK:   -3.28 KCAL/MOL
REMARK 924 INTRA-LIGAND FREE ENERGY PREDICTED BY IDOCK:   -0.08 KCAL/MOL
REMARK 927      BINDING AFFINITY PREDICTED BY RF-SCORE:    0.00 PKD
ROOT
HETATM    1  C   UNL     1     -10.225  17.957  68.519  1.00  0.00    -0.393 C  
HETATM    2  C   UNL     1     -10.167  16.452  68.309  1.00  0.00    -0.255 C  
ENDROOT
BRANCH   2   3
HETATM    3  C   UNL     1     -11.564  15.823  68.352  1.00  0.00    -0.343 C  
BRANCH   3   4
HETATM    4  C   UNL     1     -11.521  14.334  68.596  1.00  0.00    -0.296 C  
HETATM    5  C   UNL     1     -12.055  13.758  69.681  1.00  0.00    -0.392 C  
HETATM    6  C   UNL     1     -11.966  12.293  69.849  1.00  0.00    -0.306 C  
HETATM    7  N   UNL     1     -11.332  11.615  68.844  1.00  0.00    -0.241 N  
HETATM    8  O   UNL     1     -12.438  11.738  70.834  1.00  0.00    -0.372 OA 
HETATM    9  C   UNL     1     -10.779  12.198  67.743  1.00  0.00    -0.209 C  
HETATM   10  H   UNL     1     -11.268  10.600  68.925  1.00  0.00     0.000 HD 
HETATM   11  S   UNL     1     -10.020  11.309  66.562  1.00  0.00    -0.219 S  
HETATM   12  N   UNL     1     -10.883  13.558  67.657  1.00  0.00    -0.257 NA 
ENDBRANCH   3   4
ENDBRANCH   2   3
TORSDOF 2
ENDMDL
MODEL      121
REMARK 921   NORMALIZED FREE ENERGY PREDICTED BY IDOCK:   -2.89 KCAL/MOL
REMARK 922        TOTAL FREE ENERGY PREDICTED BY IDOCK:   -3.35 KCAL/MOL
REMARK 923 INTER-LIGAND FREE ENERGY PREDICTED BY IDOCK:   -3.25 KCAL/MOL
REMARK 924 INTRA-LIGAND FREE ENERGY PREDICTED BY IDOCK:   -0.10 KCAL/MOL
REMARK 927      BINDING AFFINITY PREDICTED BY RF-SCORE:    0.00 PKD
ROOT
HETATM    1  C   UNL     1      -6.722   8.435  64.998  1.00  0.00    -0.063 C  
HETATM    2  C   UNL     1      -8.115   8.787  64.502  1.00  0.00    -0.156 C  
ENDROOT
BRANCH   2   3
HETATM    3  C   UNL     1      -9.114   8.896  65.659  1.00  0.00    -0.269 C  
BRANCH   3   4
HETATM    4  C   UNL     1      -9.948  10.152  65.586  1.00  0.00    -0.279 C  
HETATM    5  C   UNL     1     -10.252  10.759  64.431  1.00  0.00    -0.432 C  
HETATM    6  C   UNL     1     -11.070  11.989  64.445  1.00  0.00    -0.342 C  
HETATM    7  N   UNL     1     -11.476  12.422  65.677  1.00  0.00    -0.351 N  
HETATM    8  O   UNL     1     -11.356  12.570  63.405  1.00  0.00    -0.466 OA 
HETATM    9  C   UNL     1     -11.162  11.812  66.856  1.00  0.00    -0.327 C  
HETATM   10  H   UNL     1     -12.055  13.260  65.717  1.00  0.00     0.000 HD 
HETATM   11  S   UNL     1     -11.690  12.397  68.318  1.00  0.00    -0.329 S  
HETATM   12  N   UNL     1     -10.390  10.688  66.774  1.00  0.00    -0.236 NA 
ENDBRANCH   3   4
ENDBRANCH   2   3
TORSDOF 2
ENDMDL
MODEL      122
REMARK 921   NORMALIZED FREE ENERGY PREDICTED BY IDOCK:   -2.86 KCAL/MOL
REMARK 922        TOTAL FREE ENERGY PREDICTED BY IDOCK:   -3.33 KCAL/MOL
REMARK 923 INTER-LIGAND FREE ENERGY PREDICTED BY IDOCK:   -3.22 KCAL/MOL
REMARK 924 INTRA-LIGAND FREE ENERGY PREDICTED BY IDOCK:   -0.10 KCAL/MOL
REMARK 927      BINDING AFFINITY PREDICTED BY RF-SCORE:    0.00 PKD
ROOT
HETATM    1  C   UNL     1      -5.219  19.235  63.355  1.00  0.00    -0.318 C  
HETATM    2  C   UNL     1      -5.920  19.416  64.692  1.00  0.00    -0.310 C  
ENDROOT
BRANCH   2   3
HETATM    3  C   UNL     1      -5.833  18.148  65.549  1.00  0.00    -0.226 C  
BRANCH   3   4
HETATM    4  C   UNL     1      -7.166  17.754  66.135  1.00  0.00    -0.311 C  
HETATM    5  C   UNL     1      -7.366  16.594  66.776  1.00  0.00    -0.283 C  
HETATM    6  C   UNL     1      -8.705  16.280  67.316  1.00  0.00    -0.182 C  
HETATM    7  N   UNL     1      -9.665  17.234  67.124  1.00  0.00    -0.252 N  
HETATM    8  O   UNL     1      -8.920  15.223  67.899  1.00  0.00    -0.168 OA 
HETATM    9  C   UNL     1      -9.468  18.412  66.466  1.00  0.00    -0.317 C  
HETATM   10  H   UNL     1     -10.596  17.051  67.499  1.00  0.00     0.000 HD 
HETATM   11  S   UNL     1     -10.686  19.524  66.267  1.00  0.00    -0.369 S  
HETATM   12  N   UNL     1      -8.212  18.634  65.977  1.00  0.00    -0.486 NA 
ENDBRANCH   3   4
ENDBRANCH   2   3
TORSDOF 2
ENDMDL
MODEL      123
REMARK 921   NORMALIZED FREE ENERGY PREDICTED BY IDOCK:   -2.85 KCAL/MOL
REMARK 922        TOTAL FREE ENERGY PREDICTED BY IDOCK:   -3.31 KCAL/MOL
REMARK 923 INTER-LIGAND FREE ENERGY PREDICTED BY IDOCK:   -3.22 KCAL/MOL
REMARK 924 INTRA-LIGAND FREE ENERGY PREDICTED BY IDOCK:   -0.09 KCAL/MOL
REMARK 927      BINDING AFFINITY PREDICTED BY RF-SCORE:    0.00 PKD
ROOT
HETATM    1  C   UNL     1      -8.187  12.392  67.506  1.00  0.00    -0.173 C  
HETATM    2  C   UNL     1      -8.685  11.405  68.551  1.00  0.00    -0.149 C  
ENDROOT
BRANCH   2   3
HETATM    3  C   UNL     1     -10.155  11.038  68.324  1.00  0.00    -0.191 C  
BRANCH   3   4
HETATM    4  C   UNL     1     -11.070  11.654  69.353  1.00  0.00    -0.206 C  
HETATM    5  C   UNL     1     -11.697  10.935  70.295  1.00  0.00    -0.437 C  
HETATM    6  C   UNL     1     -12.582  11.614  71.264  1.00  0.00    -0.320 C  
HETATM    7  N   UNL     1     -12.688  12.971  71.127  1.00  0.00    -0.336 N  
HETATM    8  O   UNL     1     -13.175  10.981  72.130  1.00  0.00    -0.481 OA 
HETATM    9  C   UNL     1     -12.058  13.705  70.166  1.00  0.00    -0.361 C  
HETATM   10  H   UNL     1     -13.280  13.469  71.792  1.00  0.00     0.000 HD 
HETATM   11  S   UNL     1     -12.236  15.353  70.059  1.00  0.00    -0.332 S  
HETATM   12  N   UNL     1     -11.267  13.014  69.292  1.00  0.00    -0.232 NA 
ENDBRANCH   3   4
ENDBRANCH   2   3
TORSDOF 2
ENDMDL
MODEL      124
REMARK 921   NORMALIZED FREE ENERGY PREDICTED BY IDOCK:   -2.83 KCAL/MOL
REMARK 922        TOTAL FREE ENERGY PREDICTED BY IDOCK:   -3.29 KCAL/MOL
REMARK 923 INTER-LIGAND FREE ENERGY PREDICTED BY IDOCK:   -3.18 KCAL/MOL
REMARK 924 INTRA-LIGAND FREE ENERGY PREDICTED BY IDOCK:   -0.11 KCAL/MOL
REMARK 927      BINDING AFFINITY PREDICTED BY RF-SCORE:    0.00 PKD
ROOT
HETATM    1  C   UNL     1     -10.828  12.181  63.755  1.00  0.00    -0.490 C  
HETATM    2  C   UNL     1     -11.836  13.098  64.430  1.00  0.00    -0.441 C  
ENDROOT
BRANCH   2   3
HETATM    3  C   UNL     1     -11.859  12.890  65.948  1.00  0.00    -0.476 C  
BRANCH   3   4
HETATM    4  C   UNL     1     -10.687  13.543  66.638  1.00  0.00    -0.282 C  
HETATM    5  C   UNL     1      -9.652  12.849  67.130  1.00  0.00    -0.225 C  
HETATM    6  C   UNL     1      -8.544  13.564  67.797  1.00  0.00    -0.183 C  
HETATM    7  N   UNL     1      -8.660  14.925  67.854  1.00  0.00    -0.155 N  
HETATM    8  O   UNL     1      -7.588  12.955  68.264  1.00  0.00    -0.117 OA 
HETATM    9  C   UNL     1      -9.716  15.635  67.363  1.00  0.00    -0.222 C  
HETATM   10  H   UNL     1      -7.904  15.447  68.296  1.00  0.00     0.000 HD 
HETATM   11  S   UNL     1      -9.791  17.291  67.471  1.00  0.00    -0.284 S  
HETATM   12  N   UNL     1     -10.714  14.912  66.772  1.00  0.00    -0.306 NA 
ENDBRANCH   3   4
ENDBRANCH   2   3
TORSDOF 2
ENDMDL
MODEL      125
REMARK 921   NORMALIZED FREE ENERGY PREDICTED BY IDOCK:   -2.82 KCAL/MOL
REMARK 922        TOTAL FREE ENERGY PREDICTED BY IDOCK:   -3.28 KCAL/MOL
REMARK 923 INTER-LIGAND FREE ENERGY PREDICTED BY IDOCK:   -3.18 KCAL/MOL
REMARK 924 INTRA-LIGAND FREE ENERGY PREDICTED BY IDOCK:   -0.10 KCAL/MOL
REMARK 927      BINDING AFFINITY PREDICTED BY RF-SCORE:    0.00 PKD
ROOT
HETATM    1  C   UNL     1     -12.774  14.305  65.804  1.00  0.00    -0.365 C  
HETATM    2  C   UNL     1     -11.651  14.580  66.791  1.00  0.00    -0.388 C  
ENDROOT
BRANCH   2   3
HETATM    3  C   UNL     1     -10.282  14.577  66.102  1.00  0.00    -0.317 C  
BRANCH   3   4
HETATM    4  C   UNL     1      -9.505  15.845  66.355  1.00  0.00    -0.295 C  
HETATM    5  C   UNL     1      -8.265  15.851  66.864  1.00  0.00    -0.283 C  
HETATM    6  C   UNL     1      -7.573  17.137  67.088  1.00  0.00    -0.174 C  
HETATM    7  N   UNL     1      -8.271  18.259  66.737  1.00  0.00    -0.245 N  
HETATM    8  O   UNL     1      -6.443  17.173  67.559  1.00  0.00    -0.125 OA 
HETATM    9  C   UNL     1      -9.536  18.259  66.226  1.00  0.00    -0.230 C  
HETATM   10  H   UNL     1      -7.813  19.161  66.866  1.00  0.00     0.000 HD 
HETATM   11  S   UNL     1     -10.324  19.665  65.825  1.00  0.00    -0.306 S  
HETATM   12  N   UNL     1     -10.125  17.037  66.059  1.00  0.00    -0.453 NA 
ENDBRANCH   3   4
ENDBRANCH   2   3
TORSDOF 2
ENDMDL
MODEL      126
REMARK 921   NORMALIZED FREE ENERGY PREDICTED BY IDOCK:   -2.82 KCAL/MOL
REMARK 922        TOTAL FREE ENERGY PREDICTED BY IDOCK:   -3.27 KCAL/MOL
REMARK 923 INTER-LIGAND FREE ENERGY PREDICTED BY IDOCK:   -3.19 KCAL/MOL
REMARK 924 INTRA-LIGAND FREE ENERGY PREDICTED BY IDOCK:   -0.08 KCAL/MOL
REMARK 927      BINDING AFFINITY PREDICTED BY RF-SCORE:    0.00 PKD
ROOT
HETATM    1  C   UNL     1      -7.202   9.755  69.988  1.00  0.00    -0.130 C  
HETATM    2  C   UNL     1      -8.593   9.443  70.515  1.00  0.00    -0.265 C  
ENDROOT
BRANCH   2   3
HETATM    3  C   UNL     1      -8.537   8.534  71.749  1.00  0.00    -0.254 C  
BRANCH   3   4
HETATM    4  C   UNL     1      -9.859   7.865  72.033  1.00  0.00    -0.192 C  
HETATM    5  C   UNL     1      -9.958   6.594  72.448  1.00  0.00    -0.180 C  
HETATM    6  C   UNL     1     -11.291   6.010  72.700  1.00  0.00    -0.277 C  
HETATM    7  N   UNL     1     -12.357   6.841  72.494  1.00  0.00    -0.496 N  
HETATM    8  O   UNL     1     -11.412   4.848  73.073  1.00  0.00    -0.293 OA 
HETATM    9  C   UNL     1     -12.261   8.132  72.064  1.00  0.00    -0.339 C  
HETATM   10  H   UNL     1     -13.289   6.470  72.674  1.00  0.00     0.000 HD 
HETATM   11  S   UNL     1     -13.602   9.084  71.831  1.00  0.00    -0.450 S  
HETATM   12  N   UNL     1     -11.000   8.607  71.834  1.00  0.00    -0.318 NA 
ENDBRANCH   3   4
ENDBRANCH   2   3
TORSDOF 2
ENDMDL
MODEL      127
REMARK 921   NORMALIZED FREE ENERGY PREDICTED BY IDOCK:   -2.82 KCAL/MOL
REMARK 922        TOTAL FREE ENERGY PREDICTED BY IDOCK:   -3.27 KCAL/MOL
REMARK 923 INTER-LIGAND FREE ENERGY PREDICTED BY IDOCK:   -3.15 KCAL/MOL
REMARK 924 INTRA-LIGAND FREE ENERGY PREDICTED BY IDOCK:   -0.12 KCAL/MOL
REMARK 927      BINDING AFFINITY PREDICTED BY RF-SCORE:    0.00 PKD
ROOT
HETATM    1  C   UNL     1     -11.124   9.137  71.254  1.00  0.00    -0.405 C  
HETATM    2  C   UNL     1     -12.283   9.493  70.336  1.00  0.00     0.003 C  
ENDROOT
BRANCH   2   3
HETATM    3  C   UNL     1     -12.710  10.955  70.509  1.00  0.00    -0.363 C  
BRANCH   3   4
HETATM    4  C   UNL     1     -12.153  11.851  69.431  1.00  0.00    -0.216 C  
HETATM    5  C   UNL     1     -12.149  13.188  69.524  1.00  0.00    -0.296 C  
HETATM    6  C   UNL     1     -11.590  13.995  68.421  1.00  0.00    -0.331 C  
HETATM    7  N   UNL     1     -11.093  13.292  67.358  1.00  0.00    -0.271 N  
HETATM    8  O   UNL     1     -11.580  15.220  68.475  1.00  0.00    -0.328 OA 
HETATM    9  C   UNL     1     -11.103  11.933  67.255  1.00  0.00    -0.288 C  
HETATM   10  H   UNL     1     -10.687  13.823  66.588  1.00  0.00     0.000 HD 
HETATM   11  S   UNL     1     -10.484  11.145  65.930  1.00  0.00    -0.233 S  
HETATM   12  N   UNL     1     -11.649  11.246  68.303  1.00  0.00    -0.422 NA 
ENDBRANCH   3   4
ENDBRANCH   2   3
TORSDOF 2
ENDMDL
MODEL      128
REMARK 921   NORMALIZED FREE ENERGY PREDICTED BY IDOCK:   -2.81 KCAL/MOL
REMARK 922        TOTAL FREE ENERGY PREDICTED BY IDOCK:   -3.27 KCAL/MOL
REMARK 923 INTER-LIGAND FREE ENERGY PREDICTED BY IDOCK:   -3.15 KCAL/MOL
REMARK 924 INTRA-LIGAND FREE ENERGY PREDICTED BY IDOCK:   -0.12 KCAL/MOL
REMARK 927      BINDING AFFINITY PREDICTED BY RF-SCORE:    0.00 PKD
ROOT
HETATM    1  C   UNL     1     -13.473   9.364  72.119  1.00  0.00    -0.543 C  
HETATM    2  C   UNL     1     -12.370   8.344  72.357  1.00  0.00    -0.412 C  
ENDROOT
BRANCH   2   3
HETATM    3  C   UNL     1     -12.463   7.174  71.371  1.00  0.00    -0.427 C  
BRANCH   3   4
HETATM    4  C   UNL     1     -11.350   7.187  70.353  1.00  0.00    -0.289 C  
HETATM    5  C   UNL     1     -11.204   6.235  69.420  1.00  0.00    -0.489 C  
HETATM    6  C   UNL     1     -10.083   6.317  68.461  1.00  0.00    -0.157 C  
HETATM    7  N   UNL     1      -9.259   7.400  68.598  1.00  0.00    -0.144 N  
HETATM    8  O   UNL     1      -9.920   5.458  67.603  1.00  0.00    -0.142 OA 
HETATM    9  C   UNL     1      -9.399   8.366  69.550  1.00  0.00    -0.158 C  
HETATM   10  H   UNL     1      -8.485   7.492  67.940  1.00  0.00     0.000 HD 
HETATM   11  S   UNL     1      -8.355   9.654  69.658  1.00  0.00    -0.185 S  
HETATM   12  N   UNL     1     -10.447   8.222  70.415  1.00  0.00    -0.210 NA 
ENDBRANCH   3   4
ENDBRANCH   2   3
TORSDOF 2
ENDMDL
MODEL      129
REMARK 921   NORMALIZED FREE ENERGY PREDICTED BY IDOCK:   -2.81 KCAL/MOL
REMARK 922        TOTAL FREE ENERGY PREDICTED BY IDOCK:   -3.27 KCAL/MOL
REMARK 923 INTER-LIGAND FREE ENERGY PREDICTED BY IDOCK:   -3.17 KCAL/MOL
REMARK 924 INTRA-LIGAND FREE ENERGY PREDICTED BY IDOCK:   -0.10 KCAL/MOL
REMARK 927      BINDING AFFINITY PREDICTED BY RF-SCORE:    0.00 PKD
ROOT
HETATM    1  C   UNL     1      -8.918   9.396  65.914  1.00  0.00    -0.217 C  
HETATM    2  C   UNL     1     -10.277   9.617  66.559  1.00  0.00    -0.294 C  
ENDROOT
BRANCH   2   3
HETATM    3  C   UNL     1     -10.259  10.815  67.514  1.00  0.00    -0.231 C  
BRANCH   3   4
HETATM    4  C   UNL     1     -10.684  10.445  68.913  1.00  0.00    -0.224 C  
HETATM    5  C   UNL     1     -11.799  10.920  69.486  1.00  0.00    -0.404 C  
HETATM    6  C   UNL     1     -12.142  10.512  70.864  1.00  0.00    -0.383 C  
HETATM    7  N   UNL     1     -11.272   9.645  71.465  1.00  0.00    -0.362 N  
HETATM    8  O   UNL     1     -13.150  10.936  71.417  1.00  0.00    -0.389 OA 
HETATM    9  C   UNL     1     -10.132   9.166  70.889  1.00  0.00    -0.287 C  
HETATM   10  H   UNL     1     -11.491   9.334  72.411  1.00  0.00     0.000 HD 
HETATM   11  S   UNL     1      -9.119   8.115  71.681  1.00  0.00    -0.181 S  
HETATM   12  N   UNL     1      -9.865   9.594  69.619  1.00  0.00    -0.201 NA 
ENDBRANCH   3   4
ENDBRANCH   2   3
TORSDOF 2
ENDMDL
MODEL      130
REMARK 921   NORMALIZED FREE ENERGY PREDICTED BY IDOCK:   -2.80 KCAL/MOL
REMARK 922        TOTAL FREE ENERGY PREDICTED BY IDOCK:   -3.25 KCAL/MOL
REMARK 923 INTER-LIGAND FREE ENERGY PREDICTED BY IDOCK:   -3.14 KCAL/MOL
REMARK 924 INTRA-LIGAND FREE ENERGY PREDICTED BY IDOCK:   -0.11 KCAL/MOL
REMARK 927      BINDING AFFINITY PREDICTED BY RF-SCORE:    0.00 PKD
ROOT
HETATM    1  C   UNL     1     -12.057  10.942  70.783  1.00  0.00    -0.469 C  
HETATM    2  C   UNL     1     -10.939   9.911  70.803  1.00  0.00    -0.407 C  
ENDROOT
BRANCH   2   3
HETATM    3  C   UNL     1     -11.459   8.524  71.196  1.00  0.00    -0.322 C  
BRANCH   3   4
HETATM    4  C   UNL     1     -10.607   7.865  72.253  1.00  0.00    -0.271 C  
HETATM    5  C   UNL     1      -9.536   8.457  72.798  1.00  0.00    -0.312 C  
HETATM    6  C   UNL     1      -8.750   7.742  73.824  1.00  0.00    -0.262 C  
HETATM    7  N   UNL     1      -9.198   6.493  74.157  1.00  0.00    -0.162 N  
HETATM    8  O   UNL     1      -7.761   8.254  74.335  1.00  0.00    -0.213 OA 
HETATM    9  C   UNL     1     -10.283   5.884  73.599  1.00  0.00    -0.226 C  
HETATM   10  H   UNL     1      -8.685   5.981  74.874  1.00  0.00     0.000 HD 
HETATM   11  S   UNL     1     -10.768   4.361  74.052  1.00  0.00    -0.249 S  
HETATM   12  N   UNL     1     -10.957   6.594  72.645  1.00  0.00    -0.245 NA 
ENDBRANCH   3   4
ENDBRANCH   2   3
TORSDOF 2
ENDMDL
MODEL      131
REMARK 921   NORMALIZED FREE ENERGY PREDICTED BY IDOCK:   -2.79 KCAL/MOL
REMARK 922        TOTAL FREE ENERGY PREDICTED BY IDOCK:   -3.24 KCAL/MOL
REMARK 923 INTER-LIGAND FREE ENERGY PREDICTED BY IDOCK:   -3.12 KCAL/MOL
REMARK 924 INTRA-LIGAND FREE ENERGY PREDICTED BY IDOCK:   -0.12 KCAL/MOL
REMARK 927      BINDING AFFINITY PREDICTED BY RF-SCORE:    0.00 PKD
ROOT
HETATM    1  C   UNL     1      -7.827  10.457  68.583  1.00  0.00    -0.108 C  
HETATM    2  C   UNL     1      -9.209  10.544  67.955  1.00  0.00    -0.143 C  
ENDROOT
BRANCH   2   3
HETATM    3  C   UNL     1     -10.198   9.592  68.637  1.00  0.00    -0.215 C  
BRANCH   3   4
HETATM    4  C   UNL     1     -11.114  10.304  69.601  1.00  0.00    -0.274 C  
HETATM    5  C   UNL     1     -11.247  11.637  69.631  1.00  0.00    -0.249 C  
HETATM    6  C   UNL     1     -12.162  12.258  70.610  1.00  0.00    -0.287 C  
HETATM    7  N   UNL     1     -12.834  11.395  71.431  1.00  0.00    -0.422 N  
HETATM    8  O   UNL     1     -12.298  13.475  70.665  1.00  0.00    -0.345 OA 
HETATM    9  C   UNL     1     -12.695  10.039  71.410  1.00  0.00    -0.415 C  
HETATM   10  H   UNL     1     -13.484  11.794  72.108  1.00  0.00     0.000 HD 
HETATM   11  S   UNL     1     -13.543   9.051  72.442  1.00  0.00    -0.439 S  
HETATM   12  N   UNL     1     -11.821   9.529  70.491  1.00  0.00    -0.227 NA 
ENDBRANCH   3   4
ENDBRANCH   2   3
TORSDOF 2
ENDMDL
MODEL      132
REMARK 921   NORMALIZED FREE ENERGY PREDICTED BY IDOCK:   -2.78 KCAL/MOL
REMARK 922        TOTAL FREE ENERGY PREDICTED BY IDOCK:   -3.24 KCAL/MOL
REMARK 923 INTER-LIGAND FREE ENERGY PREDICTED BY IDOCK:   -3.14 KCAL/MOL
REMARK 924 INTRA-LIGAND FREE ENERGY PREDICTED BY IDOCK:   -0.09 KCAL/MOL
REMARK 927      BINDING AFFINITY PREDICTED BY RF-SCORE:    0.00 PKD
ROOT
HETATM    1  C   UNL     1      -9.844   7.673  69.261  1.00  0.00    -0.168 C  
HETATM    2  C   UNL     1      -9.663   9.170  69.058  1.00  0.00    -0.166 C  
ENDROOT
BRANCH   2   3
HETATM    3  C   UNL     1     -10.995   9.919  69.176  1.00  0.00    -0.233 C  
BRANCH   3   4
HETATM    4  C   UNL     1     -11.128  11.024  68.158  1.00  0.00    -0.270 C  
HETATM    5  C   UNL     1     -11.571  12.251  68.468  1.00  0.00    -0.359 C  
HETATM    6  C   UNL     1     -11.677  13.277  67.411  1.00  0.00    -0.373 C  
HETATM    7  N   UNL     1     -11.293  12.887  66.158  1.00  0.00    -0.303 N  
HETATM    8  O   UNL     1     -12.087  14.405  67.663  1.00  0.00    -0.363 OA 
HETATM    9  C   UNL     1     -10.849  11.638  65.837  1.00  0.00    -0.287 C  
HETATM   10  H   UNL     1     -11.341  13.579  65.411  1.00  0.00     0.000 HD 
HETATM   11  S   UNL     1     -10.401  11.233  64.290  1.00  0.00    -0.366 S  
HETATM   12  N   UNL     1     -10.790  10.731  66.858  1.00  0.00    -0.254 NA 
ENDBRANCH   3   4
ENDBRANCH   2   3
TORSDOF 2
ENDMDL
MODEL      133
REMARK 921   NORMALIZED FREE ENERGY PREDICTED BY IDOCK:   -2.76 KCAL/MOL
REMARK 922        TOTAL FREE ENERGY PREDICTED BY IDOCK:   -3.21 KCAL/MOL
REMARK 923 INTER-LIGAND FREE ENERGY PREDICTED BY IDOCK:   -3.10 KCAL/MOL
REMARK 924 INTRA-LIGAND FREE ENERGY PREDICTED BY IDOCK:   -0.11 KCAL/MOL
REMARK 927      BINDING AFFINITY PREDICTED BY RF-SCORE:    0.00 PKD
ROOT
HETATM    1  C   UNL     1     -12.387  13.779  66.058  1.00  0.00    -0.499 C  
HETATM    2  C   UNL     1     -11.408  13.683  67.217  1.00  0.00    -0.346 C  
ENDROOT
BRANCH   2   3
HETATM    3  C   UNL     1      -9.974  13.451  66.726  1.00  0.00    -0.264 C  
BRANCH   3   4
HETATM    4  C   UNL     1      -9.081  14.643  66.967  1.00  0.00    -0.238 C  
HETATM    5  C   UNL     1      -9.060  15.713  66.160  1.00  0.00    -0.378 C  
HETATM    6  C   UNL     1      -8.152  16.838  66.462  1.00  0.00    -0.294 C  
HETATM    7  N   UNL     1      -7.385  16.701  67.586  1.00  0.00    -0.138 N  
HETATM    8  O   UNL     1      -8.105  17.826  65.738  1.00  0.00    -0.541 OA 
HETATM    9  C   UNL     1      -7.397  15.611  68.405  1.00  0.00    -0.116 C  
HETATM   10  H   UNL     1      -6.759  17.469  67.829  1.00  0.00     0.000 HD 
HETATM   11  S   UNL     1      -6.434  15.513  69.755  1.00  0.00    -0.149 S  
HETATM   12  N   UNL     1      -8.248  14.599  68.061  1.00  0.00    -0.137 NA 
ENDBRANCH   3   4
ENDBRANCH   2   3
TORSDOF 2
ENDMDL
MODEL      134
REMARK 921   NORMALIZED FREE ENERGY PREDICTED BY IDOCK:   -2.73 KCAL/MOL
REMARK 922        TOTAL FREE ENERGY PREDICTED BY IDOCK:   -3.18 KCAL/MOL
REMARK 923 INTER-LIGAND FREE ENERGY PREDICTED BY IDOCK:   -3.09 KCAL/MOL
REMARK 924 INTRA-LIGAND FREE ENERGY PREDICTED BY IDOCK:   -0.09 KCAL/MOL
REMARK 927      BINDING AFFINITY PREDICTED BY RF-SCORE:    0.00 PKD
ROOT
HETATM    1  C   UNL     1      -6.601   8.699  72.115  1.00  0.00    -0.075 C  
HETATM    2  C   UNL     1      -7.746   7.739  71.830  1.00  0.00    -0.095 C  
ENDROOT
BRANCH   2   3
HETATM    3  C   UNL     1      -9.058   8.226  72.456  1.00  0.00    -0.323 C  
BRANCH   3   4
HETATM    4  C   UNL     1     -10.273   7.738  71.706  1.00  0.00    -0.191 C  
HETATM    5  C   UNL     1     -11.520   7.865  72.177  1.00  0.00    -0.377 C  
HETATM    6  C   UNL     1     -12.657   7.356  71.383  1.00  0.00    -0.370 C  
HETATM    7  N   UNL     1     -12.338   6.784  70.183  1.00  0.00    -0.546 N  
HETATM    8  O   UNL     1     -13.808   7.451  71.792  1.00  0.00    -0.363 OA 
HETATM    9  C   UNL     1     -11.069   6.644  69.703  1.00  0.00    -0.334 C  
HETATM   10  H   UNL     1     -13.103   6.436  69.605  1.00  0.00     0.000 HD 
HETATM   11  S   UNL     1     -10.755   5.935  68.234  1.00  0.00    -0.215 S  
HETATM   12  N   UNL     1     -10.062   7.123  70.494  1.00  0.00    -0.194 NA 
ENDBRANCH   3   4
ENDBRANCH   2   3
TORSDOF 2
ENDMDL
MODEL      135
REMARK 921   NORMALIZED FREE ENERGY PREDICTED BY IDOCK:   -2.73 KCAL/MOL
REMARK 922        TOTAL FREE ENERGY PREDICTED BY IDOCK:   -3.17 KCAL/MOL
REMARK 923 INTER-LIGAND FREE ENERGY PREDICTED BY IDOCK:   -3.06 KCAL/MOL
REMARK 924 INTRA-LIGAND FREE ENERGY PREDICTED BY IDOCK:   -0.11 KCAL/MOL
REMARK 927      BINDING AFFINITY PREDICTED BY RF-SCORE:    0.00 PKD
ROOT
HETATM    1  C   UNL     1      -9.463  10.060  64.197  1.00  0.00    -0.314 C  
HETATM    2  C   UNL     1      -8.873   9.734  65.560  1.00  0.00    -0.192 C  
ENDROOT
BRANCH   2   3
HETATM    3  C   UNL     1      -9.658   8.620  66.262  1.00  0.00    -0.322 C  
BRANCH   3   4
HETATM    4  C   UNL     1     -10.367   9.105  67.502  1.00  0.00    -0.261 C  
HETATM    5  C   UNL     1     -10.932  10.317  67.591  1.00  0.00    -0.356 C  
HETATM    6  C   UNL     1     -11.604  10.719  68.843  1.00  0.00    -0.291 C  
HETATM    7  N   UNL     1     -11.607   9.789  69.845  1.00  0.00    -0.424 N  
HETATM    8  O   UNL     1     -12.122  11.824  68.956  1.00  0.00    -0.305 OA 
HETATM    9  C   UNL     1     -11.026   8.557  69.762  1.00  0.00    -0.127 C  
HETATM   10  H   UNL     1     -12.077  10.032  70.717  1.00  0.00     0.000 HD 
HETATM   11  S   UNL     1     -11.067   7.477  71.023  1.00  0.00    -0.262 S  
HETATM   12  N   UNL     1     -10.408   8.254  68.581  1.00  0.00    -0.208 NA 
ENDBRANCH   3   4
ENDBRANCH   2   3
TORSDOF 2
ENDMDL
MODEL      136
REMARK 921   NORMALIZED FREE ENERGY PREDICTED BY IDOCK:   -2.73 KCAL/MOL
REMARK 922        TOTAL FREE ENERGY PREDICTED BY IDOCK:   -3.17 KCAL/MOL
REMARK 923 INTER-LIGAND FREE ENERGY PREDICTED BY IDOCK:   -3.10 KCAL/MOL
REMARK 924 INTRA-LIGAND FREE ENERGY PREDICTED BY IDOCK:   -0.07 KCAL/MOL
REMARK 927      BINDING AFFINITY PREDICTED BY RF-SCORE:    0.00 PKD
ROOT
HETATM    1  C   UNL     1      -9.501   7.231  66.403  1.00  0.00    -0.185 C  
HETATM    2  C   UNL     1     -10.317   8.379  66.978  1.00  0.00    -0.385 C  
ENDROOT
BRANCH   2   3
HETATM    3  C   UNL     1      -9.500   9.206  67.977  1.00  0.00    -0.157 C  
BRANCH   3   4
HETATM    4  C   UNL     1     -10.356  10.160  68.773  1.00  0.00    -0.194 C  
HETATM    5  C   UNL     1     -10.459  11.464  68.480  1.00  0.00    -0.223 C  
HETATM    6  C   UNL     1     -11.314  12.334  69.313  1.00  0.00    -0.256 C  
HETATM    7  N   UNL     1     -11.965  11.719  70.346  1.00  0.00    -0.440 N  
HETATM    8  O   UNL     1     -11.421  13.532  69.074  1.00  0.00    -0.264 OA 
HETATM    9  C   UNL     1     -11.857  10.394  70.652  1.00  0.00    -0.350 C  
HETATM   10  H   UNL     1     -12.575  12.291  70.930  1.00  0.00     0.000 HD 
HETATM   11  S   UNL     1     -12.677   9.715  71.927  1.00  0.00    -0.410 S  
HETATM   12  N   UNL     1     -11.038   9.649  69.852  1.00  0.00    -0.241 NA 
ENDBRANCH   3   4
ENDBRANCH   2   3
TORSDOF 2
ENDMDL
MODEL      137
REMARK 921   NORMALIZED FREE ENERGY PREDICTED BY IDOCK:   -2.71 KCAL/MOL
REMARK 922        TOTAL FREE ENERGY PREDICTED BY IDOCK:   -3.16 KCAL/MOL
REMARK 923 INTER-LIGAND FREE ENERGY PREDICTED BY IDOCK:   -3.08 KCAL/MOL
REMARK 924 INTRA-LIGAND FREE ENERGY PREDICTED BY IDOCK:   -0.07 KCAL/MOL
REMARK 927      BINDING AFFINITY PREDICTED BY RF-SCORE:    0.00 PKD
ROOT
HETATM    1  C   UNL     1      -5.383  19.270  62.850  1.00  0.00    -0.351 C  
HETATM    2  C   UNL     1      -6.154  19.588  64.121  1.00  0.00    -0.165 C  
ENDROOT
BRANCH   2   3
HETATM    3  C   UNL     1      -5.955  18.505  65.187  1.00  0.00    -0.270 C  
BRANCH   3   4
HETATM    4  C   UNL     1      -6.756  18.771  66.438  1.00  0.00    -0.207 C  
HETATM    5  C   UNL     1      -8.084  18.605  66.502  1.00  0.00    -0.301 C  
HETATM    6  C   UNL     1      -8.796  18.892  67.764  1.00  0.00    -0.292 C  
HETATM    7  N   UNL     1      -8.017  19.310  68.808  1.00  0.00    -0.360 N  
HETATM    8  O   UNL     1     -10.011  18.757  67.850  1.00  0.00    -0.322 OA 
HETATM    9  C   UNL     1      -6.667  19.489  68.745  1.00  0.00    -0.307 C  
HETATM   10  H   UNL     1      -8.479  19.502  69.696  1.00  0.00     0.000 HD 
HETATM   11  S   UNL     1      -5.784  20.002  70.055  1.00  0.00    -0.313 S  
HETATM   12  N   UNL     1      -6.072  19.220  67.544  1.00  0.00    -0.194 NA 
ENDBRANCH   3   4
ENDBRANCH   2   3
TORSDOF 2
ENDMDL
MODEL      138
REMARK 921   NORMALIZED FREE ENERGY PREDICTED BY IDOCK:   -2.71 KCAL/MOL
REMARK 922        TOTAL FREE ENERGY PREDICTED BY IDOCK:   -3.16 KCAL/MOL
REMARK 923 INTER-LIGAND FREE ENERGY PREDICTED BY IDOCK:   -3.06 KCAL/MOL
REMARK 924 INTRA-LIGAND FREE ENERGY PREDICTED BY IDOCK:   -0.09 KCAL/MOL
REMARK 927      BINDING AFFINITY PREDICTED BY RF-SCORE:    0.00 PKD
ROOT
HETATM    1  C   UNL     1      -6.003  11.634  66.774  1.00  0.00    -0.137 C  
HETATM    2  C   UNL     1      -7.296  12.242  67.294  1.00  0.00    -0.140 C  
ENDROOT
BRANCH   2   3
HETATM    3  C   UNL     1      -7.169  13.757  67.485  1.00  0.00    -0.173 C  
BRANCH   3   4
HETATM    4  C   UNL     1      -8.380  14.506  66.986  1.00  0.00    -0.167 C  
HETATM    5  C   UNL     1      -8.341  15.795  66.623  1.00  0.00    -0.319 C  
HETATM    6  C   UNL     1      -9.574  16.458  66.149  1.00  0.00    -0.325 C  
HETATM    7  N   UNL     1     -10.694  15.675  66.107  1.00  0.00    -0.314 N  
HETATM    8  O   UNL     1      -9.570  17.638  65.818  1.00  0.00    -0.524 OA 
HETATM    9  C   UNL     1     -10.740  14.365  66.484  1.00  0.00    -0.306 C  
HETATM   10  H   UNL     1     -11.557  16.102  65.770  1.00  0.00     0.000 HD 
HETATM   11  S   UNL     1     -12.141  13.476  66.408  1.00  0.00    -0.403 S  
HETATM   12  N   UNL     1      -9.570  13.817  66.927  1.00  0.00    -0.253 NA 
ENDBRANCH   3   4
ENDBRANCH   2   3
TORSDOF 2
ENDMDL
MODEL      139
REMARK 921   NORMALIZED FREE ENERGY PREDICTED BY IDOCK:   -2.71 KCAL/MOL
REMARK 922        TOTAL FREE ENERGY PREDICTED BY IDOCK:   -3.15 KCAL/MOL
REMARK 923 INTER-LIGAND FREE ENERGY PREDICTED BY IDOCK:   -3.07 KCAL/MOL
REMARK 924 INTRA-LIGAND FREE ENERGY PREDICTED BY IDOCK:   -0.09 KCAL/MOL
REMARK 927      BINDING AFFINITY PREDICTED BY RF-SCORE:    0.00 PKD
ROOT
HETATM    1  C   UNL     1     -10.731   7.266  67.073  1.00  0.00    -0.406 C  
HETATM    2  C   UNL     1     -10.008   8.540  67.483  1.00  0.00    -0.258 C  
ENDROOT
BRANCH   2   3
HETATM    3  C   UNL     1     -10.527   9.756  66.707  1.00  0.00    -0.259 C  
BRANCH   3   4
HETATM    4  C   UNL     1     -10.453  11.030  67.513  1.00  0.00    -0.209 C  
HETATM    5  C   UNL     1     -11.439  11.436  68.326  1.00  0.00    -0.369 C  
HETATM    6  C   UNL     1     -11.291  12.699  69.077  1.00  0.00    -0.292 C  
HETATM    7  N   UNL     1     -10.117  13.374  68.886  1.00  0.00    -0.431 N  
HETATM    8  O   UNL     1     -12.179  13.100  69.821  1.00  0.00    -0.280 OA 
HETATM    9  C   UNL     1      -9.116  12.969  68.054  1.00  0.00    -0.210 C  
HETATM   10  H   UNL     1      -9.981  14.243  69.403  1.00  0.00     0.000 HD 
HETATM   11  S   UNL     1      -7.716  13.843  67.870  1.00  0.00    -0.180 S  
HETATM   12  N   UNL     1      -9.322  11.800  67.377  1.00  0.00    -0.171 NA 
ENDBRANCH   3   4
ENDBRANCH   2   3
TORSDOF 2
ENDMDL
MODEL      140
REMARK 921   NORMALIZED FREE ENERGY PREDICTED BY IDOCK:   -2.71 KCAL/MOL
REMARK 922        TOTAL FREE ENERGY PREDICTED BY IDOCK:   -3.15 KCAL/MOL
REMARK 923 INTER-LIGAND FREE ENERGY PREDICTED BY IDOCK:   -3.03 KCAL/MOL
REMARK 924 INTRA-LIGAND FREE ENERGY PREDICTED BY IDOCK:   -0.12 KCAL/MOL
REMARK 927      BINDING AFFINITY PREDICTED BY RF-SCORE:    0.00 PKD
ROOT
HETATM    1  C   UNL     1      -6.719  13.759  67.591  1.00  0.00    -0.189 C  
HETATM    2  C   UNL     1      -6.723  15.274  67.720  1.00  0.00    -0.188 C  
ENDROOT
BRANCH   2   3
HETATM    3  C   UNL     1      -7.268  15.723  69.080  1.00  0.00    -0.192 C  
BRANCH   3   4
HETATM    4  C   UNL     1      -8.689  16.223  68.997  1.00  0.00    -0.246 C  
HETATM    5  C   UNL     1      -9.732  15.541  69.490  1.00  0.00    -0.282 C  
HETATM    6  C   UNL     1     -11.095  16.098  69.363  1.00  0.00    -0.335 C  
HETATM    7  N   UNL     1     -11.188  17.313  68.741  1.00  0.00    -0.131 N  
HETATM    8  O   UNL     1     -12.068  15.493  69.797  1.00  0.00    -0.351 OA 
HETATM    9  C   UNL     1     -10.130  18.006  68.231  1.00  0.00    -0.385 C  
HETATM   10  H   UNL     1     -12.114  17.730  68.652  1.00  0.00     0.000 HD 
HETATM   11  S   UNL     1     -10.319  19.478  67.484  1.00  0.00    -0.468 S  
HETATM   12  N   UNL     1      -8.899  17.428  68.367  1.00  0.00    -0.264 NA 
ENDBRANCH   3   4
ENDBRANCH   2   3
TORSDOF 2
ENDMDL
MODEL      141
REMARK 921   NORMALIZED FREE ENERGY PREDICTED BY IDOCK:   -2.70 KCAL/MOL
REMARK 922        TOTAL FREE ENERGY PREDICTED BY IDOCK:   -3.15 KCAL/MOL
REMARK 923 INTER-LIGAND FREE ENERGY PREDICTED BY IDOCK:   -3.03 KCAL/MOL
REMARK 924 INTRA-LIGAND FREE ENERGY PREDICTED BY IDOCK:   -0.11 KCAL/MOL
REMARK 927      BINDING AFFINITY PREDICTED BY RF-SCORE:    0.00 PKD
ROOT
HETATM    1  C   UNL     1      -8.015  10.261  67.780  1.00  0.00    -0.102 C  
HETATM    2  C   UNL     1      -9.222  10.586  68.645  1.00  0.00    -0.172 C  
ENDROOT
BRANCH   2   3
HETATM    3  C   UNL     1      -9.098   9.964  70.041  1.00  0.00    -0.217 C  
BRANCH   3   4
HETATM    4  C   UNL     1     -10.173   8.941  70.314  1.00  0.00    -0.201 C  
HETATM    5  C   UNL     1     -10.122   7.687  69.845  1.00  0.00    -0.198 C  
HETATM    6  C   UNL     1     -11.219   6.747  70.154  1.00  0.00    -0.335 C  
HETATM    7  N   UNL     1     -12.229   7.242  70.930  1.00  0.00    -0.487 N  
HETATM    8  O   UNL     1     -11.204   5.596  69.731  1.00  0.00    -0.274 OA 
HETATM    9  C   UNL     1     -12.289   8.519  71.404  1.00  0.00    -0.297 C  
HETATM   10  H   UNL     1     -12.993   6.611  71.173  1.00  0.00     0.000 HD 
HETATM   11  S   UNL     1     -13.552   9.053  72.341  1.00  0.00    -0.439 S  
HETATM   12  N   UNL     1     -11.251   9.343  71.069  1.00  0.00    -0.311 NA 
ENDBRANCH   3   4
ENDBRANCH   2   3
TORSDOF 2
ENDMDL
MODEL      142
REMARK 921   NORMALIZED FREE ENERGY PREDICTED BY IDOCK:   -2.70 KCAL/MOL
REMARK 922        TOTAL FREE ENERGY PREDICTED BY IDOCK:   -3.14 KCAL/MOL
REMARK 923 INTER-LIGAND FREE ENERGY PREDICTED BY IDOCK:   -3.03 KCAL/MOL
REMARK 924 INTRA-LIGAND FREE ENERGY PREDICTED BY IDOCK:   -0.11 KCAL/MOL
REMARK 927      BINDING AFFINITY PREDICTED BY RF-SCORE:    0.00 PKD
ROOT
HETATM    1  C   UNL     1     -12.720  15.421  71.108  1.00  0.00    -0.503 C  
HETATM    2  C   UNL     1     -12.215  15.690  69.699  1.00  0.00    -0.264 C  
ENDROOT
BRANCH   2   3
HETATM    3  C   UNL     1     -10.971  14.854  69.377  1.00  0.00    -0.284 C  
BRANCH   3   4
HETATM    4  C   UNL     1      -9.744  15.703  69.160  1.00  0.00    -0.249 C  
HETATM    5  C   UNL     1      -8.501  15.264  69.402  1.00  0.00    -0.231 C  
HETATM    6  C   UNL     1      -7.351  16.161  69.167  1.00  0.00    -0.215 C  
HETATM    7  N   UNL     1      -7.653  17.409  68.696  1.00  0.00    -0.257 N  
HETATM    8  O   UNL     1      -6.204  15.790  69.388  1.00  0.00    -0.127 OA 
HETATM    9  C   UNL     1      -8.916  17.863  68.456  1.00  0.00    -0.286 C  
HETATM   10  H   UNL     1      -6.878  18.045  68.510  1.00  0.00     0.000 HD 
HETATM   11  S   UNL     1      -9.208  19.395  67.885  1.00  0.00    -0.330 S  
HETATM   12  N   UNL     1      -9.936  16.988  68.708  1.00  0.00    -0.278 NA 
ENDBRANCH   3   4
ENDBRANCH   2   3
TORSDOF 2
ENDMDL
MODEL      143
REMARK 921   NORMALIZED FREE ENERGY PREDICTED BY IDOCK:   -2.69 KCAL/MOL
REMARK 922        TOTAL FREE ENERGY PREDICTED BY IDOCK:   -3.14 KCAL/MOL
REMARK 923 INTER-LIGAND FREE ENERGY PREDICTED BY IDOCK:   -3.00 KCAL/MOL
REMARK 924 INTRA-LIGAND FREE ENERGY PREDICTED BY IDOCK:   -0.14 KCAL/MOL
REMARK 927      BINDING AFFINITY PREDICTED BY RF-SCORE:    0.00 PKD
ROOT
HETATM    1  C   UNL     1      -7.304   5.627  72.284  1.00  0.00    -0.095 C  
HETATM    2  C   UNL     1      -7.827   4.416  71.527  1.00  0.00    -0.082 C  
ENDROOT
BRANCH   2   3
HETATM    3  C   UNL     1      -9.338   4.244  71.716  1.00  0.00    -0.195 C  
BRANCH   3   4
HETATM    4  C   UNL     1     -10.140   5.148  70.812  1.00  0.00    -0.233 C  
HETATM    5  C   UNL     1     -10.045   5.114  69.476  1.00  0.00    -0.316 C  
HETATM    6  C   UNL     1     -10.861   6.037  68.662  1.00  0.00    -0.307 C  
HETATM    7  N   UNL     1     -11.687   6.876  69.358  1.00  0.00    -0.567 N  
HETATM    8  O   UNL     1     -10.789   6.034  67.438  1.00  0.00    -0.280 OA 
HETATM    9  C   UNL     1     -11.782   6.919  70.717  1.00  0.00    -0.369 C  
HETATM   10  H   UNL     1     -12.275   7.514  68.822  1.00  0.00     0.000 HD 
HETATM   11  S   UNL     1     -12.808   7.969  71.496  1.00  0.00    -0.282 S  
HETATM   12  N   UNL     1     -10.988   6.050  71.412  1.00  0.00    -0.270 NA 
ENDBRANCH   3   4
ENDBRANCH   2   3
TORSDOF 2
ENDMDL
MODEL      144
REMARK 921   NORMALIZED FREE ENERGY PREDICTED BY IDOCK:   -2.69 KCAL/MOL
REMARK 922        TOTAL FREE ENERGY PREDICTED BY IDOCK:   -3.14 KCAL/MOL
REMARK 923 INTER-LIGAND FREE ENERGY PREDICTED BY IDOCK:   -3.19 KCAL/MOL
REMARK 924 INTRA-LIGAND FREE ENERGY PREDICTED BY IDOCK:    0.05 KCAL/MOL
REMARK 927      BINDING AFFINITY PREDICTED BY RF-SCORE:    0.00 PKD
ROOT
HETATM    1  C   UNL     1     -13.011  13.917  65.638  1.00  0.00    -0.361 C  
HETATM    2  C   UNL     1     -12.272  14.428  64.411  1.00  0.00    -0.481 C  
ENDROOT
BRANCH   2   3
HETATM    3  C   UNL     1     -10.844  14.867  64.755  1.00  0.00    -0.382 C  
BRANCH   3   4
HETATM    4  C   UNL     1     -10.109  13.843  65.584  1.00  0.00    -0.313 C  
HETATM    5  C   UNL     1      -9.423  14.158  66.692  1.00  0.00    -0.303 C  
HETATM    6  C   UNL     1      -8.725  13.096  67.445  1.00  0.00    -0.206 C  
HETATM    7  N   UNL     1      -8.846  11.830  66.944  1.00  0.00    -0.185 N  
HETATM    8  O   UNL     1      -8.083  13.356  68.457  1.00  0.00    -0.150 OA 
HETATM    9  C   UNL     1      -9.536  11.506  65.813  1.00  0.00    -0.235 C  
HETATM   10  H   UNL     1      -8.387  11.074  67.451  1.00  0.00     0.000 HD 
HETATM   11  S   UNL     1      -9.637   9.943  65.260  1.00  0.00    -0.302 S  
HETATM   12  N   UNL     1     -10.145  12.537  65.154  1.00  0.00    -0.271 NA 
ENDBRANCH   3   4
ENDBRANCH   2   3
TORSDOF 2
ENDMDL
MODEL      145
REMARK 921   NORMALIZED FREE ENERGY PREDICTED BY IDOCK:   -2.69 KCAL/MOL
REMARK 922        TOTAL FREE ENERGY PREDICTED BY IDOCK:   -3.13 KCAL/MOL
REMARK 923 INTER-LIGAND FREE ENERGY PREDICTED BY IDOCK:   -3.00 KCAL/MOL
REMARK 924 INTRA-LIGAND FREE ENERGY PREDICTED BY IDOCK:   -0.14 KCAL/MOL
REMARK 927      BINDING AFFINITY PREDICTED BY RF-SCORE:    0.00 PKD
ROOT
HETATM    1  C   UNL     1     -11.471  15.540  71.042  1.00  0.00    -0.426 C  
HETATM    2  C   UNL     1     -11.866  15.990  69.645  1.00  0.00    -0.234 C  
ENDROOT
BRANCH   2   3
HETATM    3  C   UNL     1     -10.733  16.764  68.961  1.00  0.00    -0.331 C  
BRANCH   3   4
HETATM    4  C   UNL     1      -9.870  15.879  68.096  1.00  0.00    -0.214 C  
HETATM    5  C   UNL     1      -8.536  15.998  68.034  1.00  0.00    -0.165 C  
HETATM    6  C   UNL     1      -7.762  15.096  67.157  1.00  0.00    -0.188 C  
HETATM    7  N   UNL     1      -8.490  14.171  66.461  1.00  0.00    -0.384 N  
HETATM    8  O   UNL     1      -6.543  15.186  67.074  1.00  0.00    -0.233 OA 
HETATM    9  C   UNL     1      -9.848  14.052  66.514  1.00  0.00    -0.290 C  
HETATM   10  H   UNL     1      -7.982  13.524  65.858  1.00  0.00     0.000 HD 
HETATM   11  S   UNL     1     -10.666  12.904  65.636  1.00  0.00    -0.279 S  
HETATM   12  N   UNL     1     -10.505  14.927  67.332  1.00  0.00    -0.252 NA 
ENDBRANCH   3   4
ENDBRANCH   2   3
TORSDOF 2
ENDMDL
MODEL      146
REMARK 921   NORMALIZED FREE ENERGY PREDICTED BY IDOCK:   -2.68 KCAL/MOL
REMARK 922        TOTAL FREE ENERGY PREDICTED BY IDOCK:   -3.12 KCAL/MOL
REMARK 923 INTER-LIGAND FREE ENERGY PREDICTED BY IDOCK:   -2.99 KCAL/MOL
REMARK 924 INTRA-LIGAND FREE ENERGY PREDICTED BY IDOCK:   -0.13 KCAL/MOL
REMARK 927      BINDING AFFINITY PREDICTED BY RF-SCORE:    0.00 PKD
ROOT
HETATM    1  C   UNL     1      -8.690  10.099  69.178  1.00  0.00    -0.173 C  
HETATM    2  C   UNL     1      -9.884   9.256  68.759  1.00  0.00    -0.174 C  
ENDROOT
BRANCH   2   3
HETATM    3  C   UNL     1      -9.790   7.830  69.313  1.00  0.00    -0.173 C  
BRANCH   3   4
HETATM    4  C   UNL     1     -10.565   7.657  70.596  1.00  0.00    -0.221 C  
HETATM    5  C   UNL     1      -9.983   7.343  71.762  1.00  0.00    -0.192 C  
HETATM    6  C   UNL     1     -10.814   7.186  72.973  1.00  0.00    -0.328 C  
HETATM    7  N   UNL     1     -12.156   7.389  72.808  1.00  0.00    -0.541 N  
HETATM    8  O   UNL     1     -10.311   6.891  74.052  1.00  0.00    -0.363 OA 
HETATM    9  C   UNL     1     -12.753   7.700  71.622  1.00  0.00    -0.343 C  
HETATM   10  H   UNL     1     -12.753   7.302  73.630  1.00  0.00     0.000 HD 
HETATM   11  S   UNL     1     -14.393   7.930  71.495  1.00  0.00    -0.416 S  
HETATM   12  N   UNL     1     -11.930   7.816  70.537  1.00  0.00    -0.068 NA 
ENDBRANCH   3   4
ENDBRANCH   2   3
TORSDOF 2
ENDMDL
MODEL      147
REMARK 921   NORMALIZED FREE ENERGY PREDICTED BY IDOCK:   -2.68 KCAL/MOL
REMARK 922        TOTAL FREE ENERGY PREDICTED BY IDOCK:   -3.12 KCAL/MOL
REMARK 923 INTER-LIGAND FREE ENERGY PREDICTED BY IDOCK:   -2.98 KCAL/MOL
REMARK 924 INTRA-LIGAND FREE ENERGY PREDICTED BY IDOCK:   -0.13 KCAL/MOL
REMARK 927      BINDING AFFINITY PREDICTED BY RF-SCORE:    0.00 PKD
ROOT
HETATM    1  C   UNL     1     -10.385   6.759  73.124  1.00  0.00    -0.270 C  
HETATM    2  C   UNL     1     -11.705   7.189  72.504  1.00  0.00    -0.220 C  
ENDROOT
BRANCH   2   3
HETATM    3  C   UNL     1     -11.594   7.322  70.981  1.00  0.00    -0.329 C  
BRANCH   3   4
HETATM    4  C   UNL     1     -11.312   8.738  70.543  1.00  0.00    -0.227 C  
HETATM    5  C   UNL     1     -10.367   9.049  69.645  1.00  0.00    -0.217 C  
HETATM    6  C   UNL     1     -10.148  10.462  69.274  1.00  0.00    -0.230 C  
HETATM    7  N   UNL     1     -10.962  11.373  69.888  1.00  0.00    -0.471 N  
HETATM    8  O   UNL     1      -9.286  10.777  68.462  1.00  0.00    -0.159 OA 
HETATM    9  C   UNL     1     -11.920  11.063  70.808  1.00  0.00    -0.333 C  
HETATM   10  H   UNL     1     -10.845  12.356  69.640  1.00  0.00     0.000 HD 
HETATM   11  S   UNL     1     -12.871  12.225  71.517  1.00  0.00    -0.186 S  
HETATM   12  N   UNL     1     -12.060   9.739  71.119  1.00  0.00    -0.343 NA 
ENDBRANCH   3   4
ENDBRANCH   2   3
TORSDOF 2
ENDMDL
MODEL      148
REMARK 921   NORMALIZED FREE ENERGY PREDICTED BY IDOCK:   -2.67 KCAL/MOL
REMARK 922        TOTAL FREE ENERGY PREDICTED BY IDOCK:   -3.11 KCAL/MOL
REMARK 923 INTER-LIGAND FREE ENERGY PREDICTED BY IDOCK:   -3.01 KCAL/MOL
REMARK 924 INTRA-LIGAND FREE ENERGY PREDICTED BY IDOCK:   -0.10 KCAL/MOL
REMARK 927      BINDING AFFINITY PREDICTED BY RF-SCORE:    0.00 PKD
ROOT
HETATM    1  C   UNL     1     -10.516   5.276  66.330  1.00  0.00    -0.347 C  
HETATM    2  C   UNL     1     -10.889   6.443  67.232  1.00  0.00    -0.463 C  
ENDROOT
BRANCH   2   3
HETATM    3  C   UNL     1     -10.843   6.047  68.712  1.00  0.00    -0.391 C  
BRANCH   3   4
HETATM    4  C   UNL     1     -10.559   7.222  69.615  1.00  0.00    -0.235 C  
HETATM    5  C   UNL     1     -10.564   8.491  69.184  1.00  0.00    -0.188 C  
HETATM    6  C   UNL     1     -10.271   9.586  70.131  1.00  0.00    -0.246 C  
HETATM    7  N   UNL     1     -10.019   9.208  71.421  1.00  0.00    -0.314 N  
HETATM    8  O   UNL     1     -10.260  10.755  69.764  1.00  0.00    -0.144 OA 
HETATM    9  C   UNL     1     -10.005   7.917  71.863  1.00  0.00    -0.179 C  
HETATM   10  H   UNL     1      -9.828   9.943  72.102  1.00  0.00     0.000 HD 
HETATM   11  S   UNL     1      -9.687   7.532  73.447  1.00  0.00    -0.307 S  
HETATM   12  N   UNL     1     -10.269   6.952  70.932  1.00  0.00    -0.198 NA 
ENDBRANCH   3   4
ENDBRANCH   2   3
TORSDOF 2
ENDMDL
MODEL      149
REMARK 921   NORMALIZED FREE ENERGY PREDICTED BY IDOCK:   -2.66 KCAL/MOL
REMARK 922        TOTAL FREE ENERGY PREDICTED BY IDOCK:   -3.10 KCAL/MOL
REMARK 923 INTER-LIGAND FREE ENERGY PREDICTED BY IDOCK:   -3.02 KCAL/MOL
REMARK 924 INTRA-LIGAND FREE ENERGY PREDICTED BY IDOCK:   -0.09 KCAL/MOL
REMARK 927      BINDING AFFINITY PREDICTED BY RF-SCORE:    0.00 PKD
ROOT
HETATM    1  C   UNL     1      -6.958  13.421  68.143  1.00  0.00    -0.116 C  
HETATM    2  C   UNL     1      -7.357  14.868  67.896  1.00  0.00    -0.159 C  
ENDROOT
BRANCH   2   3
HETATM    3  C   UNL     1      -8.450  14.975  66.827  1.00  0.00    -0.239 C  
BRANCH   3   4
HETATM    4  C   UNL     1      -9.665  14.142  67.156  1.00  0.00    -0.248 C  
HETATM    5  C   UNL     1     -10.165  13.222  66.321  1.00  0.00    -0.296 C  
HETATM    6  C   UNL     1     -11.362  12.450  66.716  1.00  0.00    -0.335 C  
HETATM    7  N   UNL     1     -11.877  12.738  67.950  1.00  0.00    -0.356 N  
HETATM    8  O   UNL     1     -11.846  11.608  65.970  1.00  0.00    -0.374 OA 
HETATM    9  C   UNL     1     -11.376  13.680  68.799  1.00  0.00    -0.289 C  
HETATM   10  H   UNL     1     -12.695  12.211  68.256  1.00  0.00     0.000 HD 
HETATM   11  S   UNL     1     -12.058  13.979  70.284  1.00  0.00    -0.369 S  
HETATM   12  N   UNL     1     -10.278  14.369  68.367  1.00  0.00    -0.236 NA 
ENDBRANCH   3   4
ENDBRANCH   2   3
TORSDOF 2
ENDMDL
MODEL      150
REMARK 921   NORMALIZED FREE ENERGY PREDICTED BY IDOCK:   -2.66 KCAL/MOL
REMARK 922        TOTAL FREE ENERGY PREDICTED BY IDOCK:   -3.10 KCAL/MOL
REMARK 923 INTER-LIGAND FREE ENERGY PREDICTED BY IDOCK:   -2.98 KCAL/MOL
REMARK 924 INTRA-LIGAND FREE ENERGY PREDICTED BY IDOCK:   -0.11 KCAL/MOL
REMARK 927      BINDING AFFINITY PREDICTED BY RF-SCORE:    0.00 PKD
ROOT
HETATM    1  C   UNL     1      -8.367   7.771  67.425  1.00  0.00    -0.123 C  
HETATM    2  C   UNL     1      -9.786   8.309  67.524  1.00  0.00    -0.212 C  
ENDROOT
BRANCH   2   3
HETATM    3  C   UNL     1      -9.914   9.357  68.635  1.00  0.00    -0.187 C  
BRANCH   3   4
HETATM    4  C   UNL     1     -10.664  10.587  68.184  1.00  0.00    -0.233 C  
HETATM    5  C   UNL     1     -11.008  10.804  66.907  1.00  0.00    -0.255 C  
HETATM    6  C   UNL     1     -11.737  12.037  66.547  1.00  0.00    -0.256 C  
HETATM    7  N   UNL     1     -12.023  12.886  67.580  1.00  0.00    -0.332 N  
HETATM    8  O   UNL     1     -12.058  12.266  65.386  1.00  0.00    -0.479 OA 
HETATM    9  C   UNL     1     -11.667  12.673  68.880  1.00  0.00    -0.325 C  
HETATM   10  H   UNL     1     -12.538  13.739  67.365  1.00  0.00     0.000 HD 
HETATM   11  S   UNL     1     -12.046  13.752  70.085  1.00  0.00    -0.355 S  
HETATM   12  N   UNL     1     -10.981  11.521  69.143  1.00  0.00    -0.228 NA 
ENDBRANCH   3   4
ENDBRANCH   2   3
TORSDOF 2
ENDMDL
MODEL      151
REMARK 921   NORMALIZED FREE ENERGY PREDICTED BY IDOCK:   -2.65 KCAL/MOL
REMARK 922        TOTAL FREE ENERGY PREDICTED BY IDOCK:   -3.09 KCAL/MOL
REMARK 923 INTER-LIGAND FREE ENERGY PREDICTED BY IDOCK:   -3.00 KCAL/MOL
REMARK 924 INTRA-LIGAND FREE ENERGY PREDICTED BY IDOCK:   -0.09 KCAL/MOL
REMARK 927      BINDING AFFINITY PREDICTED BY RF-SCORE:    0.00 PKD
ROOT
HETATM    1  C   UNL     1     -10.399  16.033  67.019  1.00  0.00    -0.292 C  
HETATM    2  C   UNL     1      -9.210  15.117  66.776  1.00  0.00    -0.277 C  
ENDROOT
BRANCH   2   3
HETATM    3  C   UNL     1      -9.394  13.760  67.466  1.00  0.00    -0.222 C  
BRANCH   3   4
HETATM    4  C   UNL     1      -9.765  12.665  66.496  1.00  0.00    -0.256 C  
HETATM    5  C   UNL     1     -10.069  12.901  65.212  1.00  0.00    -0.254 C  
HETATM    6  C   UNL     1     -10.427  11.773  64.328  1.00  0.00    -0.325 C  
HETATM    7  N   UNL     1     -10.410  10.533  64.905  1.00  0.00    -0.302 N  
HETATM    8  O   UNL     1     -10.717  11.958  63.152  1.00  0.00    -0.354 OA 
HETATM    9  C   UNL     1     -10.110  10.290  66.213  1.00  0.00    -0.236 C  
HETATM   10  H   UNL     1     -10.639   9.733  64.315  1.00  0.00     0.000 HD 
HETATM   11  S   UNL     1     -10.113   8.754  66.847  1.00  0.00    -0.290 S  
HETATM   12  N   UNL     1      -9.803  11.378  66.980  1.00  0.00    -0.190 NA 
ENDBRANCH   3   4
ENDBRANCH   2   3
TORSDOF 2
ENDMDL
MODEL      152
REMARK 921   NORMALIZED FREE ENERGY PREDICTED BY IDOCK:   -2.65 KCAL/MOL
REMARK 922        TOTAL FREE ENERGY PREDICTED BY IDOCK:   -3.09 KCAL/MOL
REMARK 923 INTER-LIGAND FREE ENERGY PREDICTED BY IDOCK:   -3.00 KCAL/MOL
REMARK 924 INTRA-LIGAND FREE ENERGY PREDICTED BY IDOCK:   -0.09 KCAL/MOL
REMARK 927      BINDING AFFINITY PREDICTED BY RF-SCORE:    0.00 PKD
ROOT
HETATM    1  C   UNL     1     -10.159  12.374  68.190  1.00  0.00    -0.224 C  
HETATM    2  C   UNL     1     -10.104  10.866  68.382  1.00  0.00    -0.196 C  
ENDROOT
BRANCH   2   3
HETATM    3  C   UNL     1     -10.496  10.466  69.809  1.00  0.00    -0.284 C  
BRANCH   3   4
HETATM    4  C   UNL     1     -10.983   9.041  69.896  1.00  0.00    -0.193 C  
HETATM    5  C   UNL     1     -11.782   8.603  70.879  1.00  0.00    -0.287 C  
HETATM    6  C   UNL     1     -12.212   7.190  70.895  1.00  0.00    -0.312 C  
HETATM    7  N   UNL     1     -11.755   6.414  69.866  1.00  0.00    -0.556 N  
HETATM    8  O   UNL     1     -12.935   6.759  71.786  1.00  0.00    -0.349 OA 
HETATM    9  C   UNL     1     -10.935   6.854  68.868  1.00  0.00    -0.168 C  
HETATM   10  H   UNL     1     -12.047   5.437  69.842  1.00  0.00     0.000 HD 
HETATM   11  S   UNL     1     -10.416   5.852  67.649  1.00  0.00    -0.253 S  
HETATM   12  N   UNL     1     -10.562   8.167  68.920  1.00  0.00    -0.184 NA 
ENDBRANCH   3   4
ENDBRANCH   2   3
TORSDOF 2
ENDMDL
MODEL      153
REMARK 921   NORMALIZED FREE ENERGY PREDICTED BY IDOCK:   -2.65 KCAL/MOL
REMARK 922        TOTAL FREE ENERGY PREDICTED BY IDOCK:   -3.08 KCAL/MOL
REMARK 923 INTER-LIGAND FREE ENERGY PREDICTED BY IDOCK:   -2.98 KCAL/MOL
REMARK 924 INTRA-LIGAND FREE ENERGY PREDICTED BY IDOCK:   -0.11 KCAL/MOL
REMARK 927      BINDING AFFINITY PREDICTED BY RF-SCORE:    0.00 PKD
ROOT
HETATM    1  C   UNL     1      -7.028  17.250  66.650  1.00  0.00    -0.272 C  
HETATM    2  C   UNL     1      -8.363  16.788  66.087  1.00  0.00    -0.301 C  
ENDROOT
BRANCH   2   3
HETATM    3  C   UNL     1      -9.119  15.903  67.084  1.00  0.00    -0.226 C  
BRANCH   3   4
HETATM    4  C   UNL     1      -9.295  14.490  66.584  1.00  0.00    -0.281 C  
HETATM    5  C   UNL     1      -8.662  13.441  67.125  1.00  0.00    -0.220 C  
HETATM    6  C   UNL     1      -8.885  12.089  66.573  1.00  0.00    -0.172 C  
HETATM    7  N   UNL     1      -9.758  12.009  65.523  1.00  0.00    -0.308 N  
HETATM    8  O   UNL     1      -8.314  11.111  67.042  1.00  0.00    -0.134 OA 
HETATM    9  C   UNL     1     -10.398  13.075  64.964  1.00  0.00    -0.318 C  
HETATM   10  H   UNL     1      -9.944  11.086  65.130  1.00  0.00     0.000 HD 
HETATM   11  S   UNL     1     -11.445  12.903  63.685  1.00  0.00    -0.400 S  
HETATM   12  N   UNL     1     -10.136  14.300  65.511  1.00  0.00    -0.344 NA 
ENDBRANCH   3   4
ENDBRANCH   2   3
TORSDOF 2
ENDMDL
MODEL      154
REMARK 921   NORMALIZED FREE ENERGY PREDICTED BY IDOCK:   -2.64 KCAL/MOL
REMARK 922        TOTAL FREE ENERGY PREDICTED BY IDOCK:   -3.08 KCAL/MOL
REMARK 923 INTER-LIGAND FREE ENERGY PREDICTED BY IDOCK:   -2.98 KCAL/MOL
REMARK 924 INTRA-LIGAND FREE ENERGY PREDICTED BY IDOCK:   -0.10 KCAL/MOL
REMARK 927      BINDING AFFINITY PREDICTED BY RF-SCORE:    0.00 PKD
ROOT
HETATM    1  C   UNL     1      -9.606  12.573  68.195  1.00  0.00    -0.215 C  
HETATM    2  C   UNL     1      -9.400  11.080  67.990  1.00  0.00    -0.163 C  
ENDROOT
BRANCH   2   3
HETATM    3  C   UNL     1      -9.453  10.317  69.318  1.00  0.00    -0.230 C  
BRANCH   3   4
HETATM    4  C   UNL     1     -10.088   8.955  69.176  1.00  0.00    -0.197 C  
HETATM    5  C   UNL     1     -10.084   8.265  68.028  1.00  0.00    -0.243 C  
HETATM    6  C   UNL     1     -10.733   6.939  67.970  1.00  0.00    -0.218 C  
HETATM    7  N   UNL     1     -11.298   6.499  69.136  1.00  0.00    -0.582 N  
HETATM    8  O   UNL     1     -10.753   6.289  66.932  1.00  0.00    -0.286 OA 
HETATM    9  C   UNL     1     -11.311   7.202  70.304  1.00  0.00    -0.269 C  
HETATM   10  H   UNL     1     -11.740   5.581  69.131  1.00  0.00     0.000 HD 
HETATM   11  S   UNL     1     -12.020   6.605  71.683  1.00  0.00    -0.348 S  
HETATM   12  N   UNL     1     -10.708   8.428  70.286  1.00  0.00    -0.231 NA 
ENDBRANCH   3   4
ENDBRANCH   2   3
TORSDOF 2
ENDMDL
MODEL      155
REMARK 921   NORMALIZED FREE ENERGY PREDICTED BY IDOCK:   -2.64 KCAL/MOL
REMARK 922        TOTAL FREE ENERGY PREDICTED BY IDOCK:   -3.08 KCAL/MOL
REMARK 923 INTER-LIGAND FREE ENERGY PREDICTED BY IDOCK:   -2.96 KCAL/MOL
REMARK 924 INTRA-LIGAND FREE ENERGY PREDICTED BY IDOCK:   -0.11 KCAL/MOL
REMARK 927      BINDING AFFINITY PREDICTED BY RF-SCORE:    0.00 PKD
ROOT
HETATM    1  C   UNL     1      -6.564  14.381  67.507  1.00  0.00    -0.101 C  
HETATM    2  C   UNL     1      -7.878  15.090  67.796  1.00  0.00    -0.161 C  
ENDROOT
BRANCH   2   3
HETATM    3  C   UNL     1      -8.899  14.144  68.436  1.00  0.00    -0.187 C  
BRANCH   3   4
HETATM    4  C   UNL     1      -9.862  13.565  67.429  1.00  0.00    -0.227 C  
HETATM    5  C   UNL     1     -10.945  14.223  66.994  1.00  0.00    -0.305 C  
HETATM    6  C   UNL     1     -11.842  13.584  66.009  1.00  0.00    -0.379 C  
HETATM    7  N   UNL     1     -11.479  12.332  65.596  1.00  0.00    -0.355 N  
HETATM    8  O   UNL     1     -12.844  14.158  65.600  1.00  0.00    -0.529 OA 
HETATM    9  C   UNL     1     -10.382  11.655  66.042  1.00  0.00    -0.243 C  
HETATM   10  H   UNL     1     -12.070  11.871  64.905  1.00  0.00     0.000 HD 
HETATM   11  S   UNL     1     -10.004  10.133  65.496  1.00  0.00    -0.273 S  
HETATM   12  N   UNL     1      -9.603  12.297  66.963  1.00  0.00    -0.203 NA 
ENDBRANCH   3   4
ENDBRANCH   2   3
TORSDOF 2
ENDMDL
MODEL      156
REMARK 921   NORMALIZED FREE ENERGY PREDICTED BY IDOCK:   -2.64 KCAL/MOL
REMARK 922        TOTAL FREE ENERGY PREDICTED BY IDOCK:   -3.07 KCAL/MOL
REMARK 923 INTER-LIGAND FREE ENERGY PREDICTED BY IDOCK:   -2.94 KCAL/MOL
REMARK 924 INTRA-LIGAND FREE ENERGY PREDICTED BY IDOCK:   -0.13 KCAL/MOL
REMARK 927      BINDING AFFINITY PREDICTED BY RF-SCORE:    0.00 PKD
ROOT
HETATM    1  C   UNL     1      -7.656  14.113  67.661  1.00  0.00    -0.193 C  
HETATM    2  C   UNL     1      -9.122  14.277  68.033  1.00  0.00    -0.191 C  
ENDROOT
BRANCH   2   3
HETATM    3  C   UNL     1      -9.808  12.920  68.229  1.00  0.00    -0.228 C  
BRANCH   3   4
HETATM    4  C   UNL     1      -9.996  12.176  66.930  1.00  0.00    -0.204 C  
HETATM    5  C   UNL     1      -9.378  11.018  66.658  1.00  0.00    -0.196 C  
HETATM    6  C   UNL     1      -9.612  10.353  65.359  1.00  0.00    -0.246 C  
HETATM    7  N   UNL     1     -10.477  10.987  64.511  1.00  0.00    -0.346 N  
HETATM    8  O   UNL     1      -9.054   9.298  65.079  1.00  0.00    -0.217 OA 
HETATM    9  C   UNL     1     -11.101  12.169  64.780  1.00  0.00    -0.316 C  
HETATM   10  H   UNL     1     -10.670  10.544  63.612  1.00  0.00     0.000 HD 
HETATM   11  S   UNL     1     -12.140  12.884  63.699  1.00  0.00    -0.533 S  
HETATM   12  N   UNL     1     -10.830  12.739  65.993  1.00  0.00    -0.272 NA 
ENDBRANCH   3   4
ENDBRANCH   2   3
TORSDOF 2
ENDMDL
MODEL      157
REMARK 921   NORMALIZED FREE ENERGY PREDICTED BY IDOCK:   -2.63 KCAL/MOL
REMARK 922        TOTAL FREE ENERGY PREDICTED BY IDOCK:   -3.06 KCAL/MOL
REMARK 923 INTER-LIGAND FREE ENERGY PREDICTED BY IDOCK:   -3.19 KCAL/MOL
REMARK 924 INTRA-LIGAND FREE ENERGY PREDICTED BY IDOCK:    0.12 KCAL/MOL
REMARK 927      BINDING AFFINITY PREDICTED BY RF-SCORE:    0.00 PKD
ROOT
HETATM    1  C   UNL     1     -13.225  13.195  71.974  1.00  0.00    -0.543 C  
HETATM    2  C   UNL     1     -12.522  14.433  71.437  1.00  0.00    -0.433 C  
ENDROOT
BRANCH   2   3
HETATM    3  C   UNL     1     -12.523  14.461  69.905  1.00  0.00    -0.311 C  
BRANCH   3   4
HETATM    4  C   UNL     1     -11.494  13.531  69.310  1.00  0.00    -0.291 C  
HETATM    5  C   UNL     1     -11.660  12.203  69.250  1.00  0.00    -0.377 C  
HETATM    6  C   UNL     1     -10.601  11.361  68.656  1.00  0.00    -0.199 C  
HETATM    7  N   UNL     1      -9.502  12.026  68.187  1.00  0.00    -0.195 N  
HETATM    8  O   UNL     1     -10.721  10.143  68.595  1.00  0.00    -0.202 OA 
HETATM    9  C   UNL     1      -9.326  13.377  68.253  1.00  0.00    -0.205 C  
HETATM   10  H   UNL     1      -8.761  11.473  67.757  1.00  0.00     0.000 HD 
HETATM   11  S   UNL     1      -7.960  14.117  67.664  1.00  0.00    -0.192 S  
HETATM   12  N   UNL     1     -10.336  14.096  68.828  1.00  0.00    -0.238 NA 
ENDBRANCH   3   4
ENDBRANCH   2   3
TORSDOF 2
ENDMDL
MODEL      158
REMARK 921   NORMALIZED FREE ENERGY PREDICTED BY IDOCK:   -2.62 KCAL/MOL
REMARK 922        TOTAL FREE ENERGY PREDICTED BY IDOCK:   -3.06 KCAL/MOL
REMARK 923 INTER-LIGAND FREE ENERGY PREDICTED BY IDOCK:   -2.96 KCAL/MOL
REMARK 924 INTRA-LIGAND FREE ENERGY PREDICTED BY IDOCK:   -0.10 KCAL/MOL
REMARK 927      BINDING AFFINITY PREDICTED BY RF-SCORE:    0.00 PKD
ROOT
HETATM    1  C   UNL     1      -9.470  19.589  67.123  1.00  0.00    -0.422 C  
HETATM    2  C   UNL     1     -10.460  18.435  67.081  1.00  0.00    -0.434 C  
ENDROOT
BRANCH   2   3
HETATM    3  C   UNL     1     -10.146  17.465  65.936  1.00  0.00    -0.219 C  
BRANCH   3   4
HETATM    4  C   UNL     1      -9.804  16.081  66.429  1.00  0.00    -0.288 C  
HETATM    5  C   UNL     1     -10.704  15.090  66.501  1.00  0.00    -0.312 C  
HETATM    6  C   UNL     1     -10.290  13.763  67.001  1.00  0.00    -0.260 C  
HETATM    7  N   UNL     1      -8.974  13.641  67.354  1.00  0.00    -0.207 N  
HETATM    8  O   UNL     1     -11.092  12.841  67.086  1.00  0.00    -0.259 OA 
HETATM    9  C   UNL     1      -8.057  14.649  67.290  1.00  0.00    -0.206 C  
HETATM   10  H   UNL     1      -8.656  12.732  67.688  1.00  0.00     0.000 HD 
HETATM   11  S   UNL     1      -6.473  14.428  67.738  1.00  0.00    -0.138 S  
HETATM   12  N   UNL     1      -8.509  15.855  66.833  1.00  0.00    -0.216 NA 
ENDBRANCH   3   4
ENDBRANCH   2   3
TORSDOF 2
ENDMDL
MODEL      159
REMARK 921   NORMALIZED FREE ENERGY PREDICTED BY IDOCK:   -2.62 KCAL/MOL
REMARK 922        TOTAL FREE ENERGY PREDICTED BY IDOCK:   -3.06 KCAL/MOL
REMARK 923 INTER-LIGAND FREE ENERGY PREDICTED BY IDOCK:   -2.96 KCAL/MOL
REMARK 924 INTRA-LIGAND FREE ENERGY PREDICTED BY IDOCK:   -0.10 KCAL/MOL
REMARK 927      BINDING AFFINITY PREDICTED BY RF-SCORE:    0.00 PKD
ROOT
HETATM    1  C   UNL     1      -5.875  14.192  68.052  1.00  0.00    -0.138 C  
HETATM    2  C   UNL     1      -6.212  15.668  67.918  1.00  0.00    -0.163 C  
ENDROOT
BRANCH   2   3
HETATM    3  C   UNL     1      -7.075  16.158  69.087  1.00  0.00    -0.209 C  
BRANCH   3   4
HETATM    4  C   UNL     1      -8.463  16.559  68.652  1.00  0.00    -0.243 C  
HETATM    5  C   UNL     1      -8.853  17.836  68.547  1.00  0.00    -0.284 C  
HETATM    6  C   UNL     1     -10.232  18.146  68.119  1.00  0.00    -0.388 C  
HETATM    7  N   UNL     1     -11.028  17.068  67.844  1.00  0.00    -0.298 N  
HETATM    8  O   UNL     1     -10.620  19.305  68.022  1.00  0.00    -0.396 OA 
HETATM    9  C   UNL     1     -10.638  15.767  67.957  1.00  0.00    -0.279 C  
HETATM   10  H   UNL     1     -11.982  17.251  67.532  1.00  0.00     0.000 HD 
HETATM   11  S   UNL     1     -11.662  14.506  67.608  1.00  0.00    -0.370 S  
HETATM   12  N   UNL     1      -9.354  15.549  68.373  1.00  0.00    -0.188 NA 
ENDBRANCH   3   4
ENDBRANCH   2   3
TORSDOF 2
ENDMDL
MODEL      160
REMARK 921   NORMALIZED FREE ENERGY PREDICTED BY IDOCK:   -2.60 KCAL/MOL
REMARK 922        TOTAL FREE ENERGY PREDICTED BY IDOCK:   -3.03 KCAL/MOL
REMARK 923 INTER-LIGAND FREE ENERGY PREDICTED BY IDOCK:   -2.91 KCAL/MOL
REMARK 924 INTRA-LIGAND FREE ENERGY PREDICTED BY IDOCK:   -0.11 KCAL/MOL
REMARK 927      BINDING AFFINITY PREDICTED BY RF-SCORE:    0.00 PKD
ROOT
HETATM    1  C   UNL     1     -12.234  13.850  68.333  1.00  0.00    -0.194 C  
HETATM    2  C   UNL     1     -11.542  12.586  68.819  1.00  0.00    -0.366 C  
ENDROOT
BRANCH   2   3
HETATM    3  C   UNL     1     -10.120  12.472  68.259  1.00  0.00    -0.228 C  
BRANCH   3   4
HETATM    4  C   UNL     1     -10.001  11.404  67.199  1.00  0.00    -0.192 C  
HETATM    5  C   UNL     1      -9.875  11.684  65.894  1.00  0.00    -0.262 C  
HETATM    6  C   UNL     1      -9.769  10.580  64.918  1.00  0.00    -0.300 C  
HETATM    7  N   UNL     1      -9.799   9.316  65.440  1.00  0.00    -0.444 N  
HETATM    8  O   UNL     1      -9.662  10.805  63.718  1.00  0.00    -0.264 OA 
HETATM    9  C   UNL     1      -9.935   9.027  66.766  1.00  0.00    -0.263 C  
HETATM   10  H   UNL     1      -9.713   8.534  64.792  1.00  0.00     0.000 HD 
HETATM   11  S   UNL     1      -9.965   7.465  67.329  1.00  0.00    -0.222 S  
HETATM   12  N   UNL     1     -10.043  10.094  67.614  1.00  0.00    -0.180 NA 
ENDBRANCH   3   4
ENDBRANCH   2   3
TORSDOF 2
ENDMDL
MODEL      161
REMARK 921   NORMALIZED FREE ENERGY PREDICTED BY IDOCK:   -2.59 KCAL/MOL
REMARK 922        TOTAL FREE ENERGY PREDICTED BY IDOCK:   -3.02 KCAL/MOL
REMARK 923 INTER-LIGAND FREE ENERGY PREDICTED BY IDOCK:   -2.95 KCAL/MOL
REMARK 924 INTRA-LIGAND FREE ENERGY PREDICTED BY IDOCK:   -0.07 KCAL/MOL
REMARK 927      BINDING AFFINITY PREDICTED BY RF-SCORE:    0.00 PKD
ROOT
HETATM    1  C   UNL     1      -9.374   2.719  69.451  1.00  0.00    -0.189 C  
HETATM    2  C   UNL     1      -9.449   4.136  68.903  1.00  0.00    -0.238 C  
ENDROOT
BRANCH   2   3
HETATM    3  C   UNL     1      -8.978   5.165  69.936  1.00  0.00    -0.139 C  
BRANCH   3   4
HETATM    4  C   UNL     1      -9.994   5.393  71.029  1.00  0.00    -0.199 C  
HETATM    5  C   UNL     1      -9.887   4.847  72.248  1.00  0.00    -0.219 C  
HETATM    6  C   UNL     1     -10.928   5.116  73.262  1.00  0.00    -0.314 C  
HETATM    7  N   UNL     1     -11.948   5.937  72.867  1.00  0.00    -0.515 N  
HETATM    8  O   UNL     1     -10.861   4.624  74.382  1.00  0.00    -0.328 OA 
HETATM    9  C   UNL     1     -12.064   6.488  71.625  1.00  0.00    -0.328 C  
HETATM   10  H   UNL     1     -12.674   6.152  73.551  1.00  0.00     0.000 HD 
HETATM   11  S   UNL     1     -13.335   7.475  71.215  1.00  0.00    -0.175 S  
HETATM   12  N   UNL     1     -11.077   6.187  70.730  1.00  0.00    -0.303 NA 
ENDBRANCH   3   4
ENDBRANCH   2   3
TORSDOF 2
ENDMDL
MODEL      162
REMARK 921   NORMALIZED FREE ENERGY PREDICTED BY IDOCK:   -2.58 KCAL/MOL
REMARK 922        TOTAL FREE ENERGY PREDICTED BY IDOCK:   -3.01 KCAL/MOL
REMARK 923 INTER-LIGAND FREE ENERGY PREDICTED BY IDOCK:   -2.88 KCAL/MOL
REMARK 924 INTRA-LIGAND FREE ENERGY PREDICTED BY IDOCK:   -0.13 KCAL/MOL
REMARK 927      BINDING AFFINITY PREDICTED BY RF-SCORE:    0.00 PKD
ROOT
HETATM    1  C   UNL     1      -5.907  19.498  64.238  1.00  0.00    -0.318 C  
HETATM    2  C   UNL     1      -6.659  20.559  65.026  1.00  0.00    -0.307 C  
ENDROOT
BRANCH   2   3
HETATM    3  C   UNL     1      -6.622  20.273  66.532  1.00  0.00    -0.261 C  
BRANCH   3   4
HETATM    4  C   UNL     1      -7.584  19.184  66.937  1.00  0.00    -0.235 C  
HETATM    5  C   UNL     1      -8.852  19.134  66.507  1.00  0.00    -0.348 C  
HETATM    6  C   UNL     1      -9.732  18.036  66.955  1.00  0.00    -0.303 C  
HETATM    7  N   UNL     1      -9.163  17.119  67.795  1.00  0.00    -0.238 N  
HETATM    8  O   UNL     1     -10.899  17.969  66.585  1.00  0.00    -0.211 OA 
HETATM    9  C   UNL     1      -7.876  17.171  68.243  1.00  0.00    -0.227 C  
HETATM   10  H   UNL     1      -9.743  16.341  68.110  1.00  0.00     0.000 HD 
HETATM   11  S   UNL     1      -7.252  16.021  69.266  1.00  0.00    -0.221 S  
HETATM   12  N   UNL     1      -7.120  18.220  67.802  1.00  0.00    -0.211 NA 
ENDBRANCH   3   4
ENDBRANCH   2   3
TORSDOF 2
ENDMDL
MODEL      163
REMARK 921   NORMALIZED FREE ENERGY PREDICTED BY IDOCK:   -2.58 KCAL/MOL
REMARK 922        TOTAL FREE ENERGY PREDICTED BY IDOCK:   -3.01 KCAL/MOL
REMARK 923 INTER-LIGAND FREE ENERGY PREDICTED BY IDOCK:   -2.90 KCAL/MOL
REMARK 924 INTRA-LIGAND FREE ENERGY PREDICTED BY IDOCK:   -0.11 KCAL/MOL
REMARK 927      BINDING AFFINITY PREDICTED BY RF-SCORE:    0.00 PKD
ROOT
HETATM    1  C   UNL     1     -11.450  10.859  70.020  1.00  0.00    -0.411 C  
HETATM    2  C   UNL     1     -12.159  11.908  69.177  1.00  0.00    -0.261 C  
ENDROOT
BRANCH   2   3
HETATM    3  C   UNL     1     -11.384  12.213  67.890  1.00  0.00    -0.361 C  
BRANCH   3   4
HETATM    4  C   UNL     1     -10.616  13.509  67.972  1.00  0.00    -0.239 C  
HETATM    5  C   UNL     1     -11.207  14.696  68.166  1.00  0.00    -0.304 C  
HETATM    6  C   UNL     1     -10.384  15.921  68.229  1.00  0.00    -0.242 C  
HETATM    7  N   UNL     1      -9.035  15.741  68.091  1.00  0.00    -0.178 N  
HETATM    8  O   UNL     1     -10.897  17.021  68.397  1.00  0.00    -0.367 OA 
HETATM    9  C   UNL     1      -8.430  14.536  67.886  1.00  0.00    -0.161 C  
HETATM   10  H   UNL     1      -8.439  16.567  68.145  1.00  0.00     0.000 HD 
HETATM   11  S   UNL     1      -6.783  14.395  67.724  1.00  0.00    -0.171 S  
HETATM   12  N   UNL     1      -9.250  13.445  67.822  1.00  0.00    -0.202 NA 
ENDBRANCH   3   4
ENDBRANCH   2   3
TORSDOF 2
ENDMDL
MODEL      164
REMARK 921   NORMALIZED FREE ENERGY PREDICTED BY IDOCK:   -2.56 KCAL/MOL
REMARK 922        TOTAL FREE ENERGY PREDICTED BY IDOCK:   -2.99 KCAL/MOL
REMARK 923 INTER-LIGAND FREE ENERGY PREDICTED BY IDOCK:   -2.85 KCAL/MOL
REMARK 924 INTRA-LIGAND FREE ENERGY PREDICTED BY IDOCK:   -0.14 KCAL/MOL
REMARK 927      BINDING AFFINITY PREDICTED BY RF-SCORE:    0.00 PKD
ROOT
HETATM    1  C   UNL     1      -7.877  19.827  67.472  1.00  0.00    -0.317 C  
HETATM    2  C   UNL     1      -8.451  18.990  66.340  1.00  0.00    -0.312 C  
ENDROOT
BRANCH   2   3
HETATM    3  C   UNL     1      -7.798  17.604  66.278  1.00  0.00    -0.309 C  
BRANCH   3   4
HETATM    4  C   UNL     1      -8.095  16.771  67.500  1.00  0.00    -0.172 C  
HETATM    5  C   UNL     1      -7.136  16.271  68.292  1.00  0.00    -0.138 C  
HETATM    6  C   UNL     1      -7.510  15.459  69.468  1.00  0.00    -0.211 C  
HETATM    7  N   UNL     1      -8.851  15.283  69.671  1.00  0.00    -0.420 N  
HETATM    8  O   UNL     1      -6.655  14.982  70.205  1.00  0.00    -0.153 OA 
HETATM    9  C   UNL     1      -9.829  15.783  68.863  1.00  0.00    -0.224 C  
HETATM   10  H   UNL     1      -9.140  14.739  70.484  1.00  0.00     0.000 HD 
HETATM   11  S   UNL     1     -11.441  15.526  69.170  1.00  0.00    -0.371 S  
HETATM   12  N   UNL     1      -9.416  16.512  67.784  1.00  0.00    -0.221 NA 
ENDBRANCH   3   4
ENDBRANCH   2   3
TORSDOF 2
ENDMDL
MODEL      165
REMARK 921   NORMALIZED FREE ENERGY PREDICTED BY IDOCK:   -2.55 KCAL/MOL
REMARK 922        TOTAL FREE ENERGY PREDICTED BY IDOCK:   -2.97 KCAL/MOL
REMARK 923 INTER-LIGAND FREE ENERGY PREDICTED BY IDOCK:   -2.90 KCAL/MOL
REMARK 924 INTRA-LIGAND FREE ENERGY PREDICTED BY IDOCK:   -0.07 KCAL/MOL
REMARK 927      BINDING AFFINITY PREDICTED BY RF-SCORE:    0.00 PKD
ROOT
HETATM    1  C   UNL     1     -10.438   5.094  66.683  1.00  0.00    -0.328 C  
HETATM    2  C   UNL     1     -10.630   6.555  67.057  1.00  0.00    -0.402 C  
ENDROOT
BRANCH   2   3
HETATM    3  C   UNL     1      -9.872   6.912  68.340  1.00  0.00    -0.143 C  
BRANCH   3   4
HETATM    4  C   UNL     1     -10.162   8.316  68.811  1.00  0.00    -0.210 C  
HETATM    5  C   UNL     1      -9.607   9.401  68.252  1.00  0.00    -0.156 C  
HETATM    6  C   UNL     1      -9.939  10.742  68.776  1.00  0.00    -0.193 C  
HETATM    7  N   UNL     1     -10.825  10.774  69.817  1.00  0.00    -0.374 N  
HETATM    8  O   UNL     1      -9.441  11.751  68.291  1.00  0.00    -0.184 OA 
HETATM    9  C   UNL     1     -11.385   9.672  70.394  1.00  0.00    -0.277 C  
HETATM   10  H   UNL     1     -11.085  11.687  70.190  1.00  0.00     0.000 HD 
HETATM   11  S   UNL     1     -12.452   9.788  71.661  1.00  0.00    -0.422 S  
HETATM   12  N   UNL     1     -11.024   8.462  69.873  1.00  0.00    -0.212 NA 
ENDBRANCH   3   4
ENDBRANCH   2   3
TORSDOF 2
ENDMDL
MODEL      166
REMARK 921   NORMALIZED FREE ENERGY PREDICTED BY IDOCK:   -2.54 KCAL/MOL
REMARK 922        TOTAL FREE ENERGY PREDICTED BY IDOCK:   -2.97 KCAL/MOL
REMARK 923 INTER-LIGAND FREE ENERGY PREDICTED BY IDOCK:   -2.82 KCAL/MOL
REMARK 924 INTRA-LIGAND FREE ENERGY PREDICTED BY IDOCK:   -0.15 KCAL/MOL
REMARK 927      BINDING AFFINITY PREDICTED BY RF-SCORE:    0.00 PKD
ROOT
HETATM    1  C   UNL     1     -10.874  19.345  67.590  1.00  0.00    -0.470 C  
HETATM    2  C   UNL     1      -9.835  19.344  68.700  1.00  0.00    -0.522 C  
ENDROOT
BRANCH   2   3
HETATM    3  C   UNL     1      -8.622  20.206  68.336  1.00  0.00    -0.007 C  
BRANCH   3   4
HETATM    4  C   UNL     1      -7.689  19.514  67.372  1.00  0.00    -0.251 C  
HETATM    5  C   UNL     1      -7.359  20.031  66.181  1.00  0.00    -0.319 C  
HETATM    6  C   UNL     1      -6.442  19.287  65.292  1.00  0.00    -0.272 C  
HETATM    7  N   UNL     1      -5.979  18.095  65.775  1.00  0.00    -0.213 N  
HETATM    8  O   UNL     1      -6.129  19.730  64.193  1.00  0.00    -0.269 OA 
HETATM    9  C   UNL     1      -6.319  17.562  66.983  1.00  0.00    -0.161 C  
HETATM   10  H   UNL     1      -5.332  17.566  65.189  1.00  0.00     0.000 HD 
HETATM   11  S   UNL     1      -5.717  16.104  67.503  1.00  0.00    -0.123 S  
HETATM   12  N   UNL     1      -7.182  18.293  67.750  1.00  0.00    -0.212 NA 
ENDBRANCH   3   4
ENDBRANCH   2   3
TORSDOF 2
ENDMDL
MODEL      167
REMARK 921   NORMALIZED FREE ENERGY PREDICTED BY IDOCK:   -2.54 KCAL/MOL
REMARK 922        TOTAL FREE ENERGY PREDICTED BY IDOCK:   -2.96 KCAL/MOL
REMARK 923 INTER-LIGAND FREE ENERGY PREDICTED BY IDOCK:   -2.87 KCAL/MOL
REMARK 924 INTRA-LIGAND FREE ENERGY PREDICTED BY IDOCK:   -0.08 KCAL/MOL
REMARK 927      BINDING AFFINITY PREDICTED BY RF-SCORE:    0.00 PKD
ROOT
HETATM    1  C   UNL     1     -11.786  12.252  68.807  1.00  0.00    -0.390 C  
HETATM    2  C   UNL     1     -11.042  13.572  68.676  1.00  0.00    -0.299 C  
ENDROOT
BRANCH   2   3
HETATM    3  C   UNL     1      -9.709  13.397  67.939  1.00  0.00    -0.226 C  
BRANCH   3   4
HETATM    4  C   UNL     1      -8.969  14.700  67.765  1.00  0.00    -0.181 C  
HETATM    5  C   UNL     1      -7.690  14.765  67.373  1.00  0.00    -0.230 C  
HETATM    6  C   UNL     1      -7.035  16.082  67.232  1.00  0.00    -0.205 C  
HETATM    7  N   UNL     1      -7.816  17.170  67.510  1.00  0.00    -0.173 N  
HETATM    8  O   UNL     1      -5.864  16.172  66.883  1.00  0.00    -0.336 OA 
HETATM    9  C   UNL     1      -9.116  17.108  67.917  1.00  0.00    -0.230 C  
HETATM   10  H   UNL     1      -7.396  18.093  67.407  1.00  0.00     0.000 HD 
HETATM   11  S   UNL     1     -10.003  18.474  68.242  1.00  0.00    -0.393 S  
HETATM   12  N   UNL     1      -9.656  15.859  68.043  1.00  0.00    -0.210 NA 
ENDBRANCH   3   4
ENDBRANCH   2   3
TORSDOF 2
ENDMDL
MODEL      168
REMARK 921   NORMALIZED FREE ENERGY PREDICTED BY IDOCK:   -2.53 KCAL/MOL
REMARK 922        TOTAL FREE ENERGY PREDICTED BY IDOCK:   -2.95 KCAL/MOL
REMARK 923 INTER-LIGAND FREE ENERGY PREDICTED BY IDOCK:   -2.88 KCAL/MOL
REMARK 924 INTRA-LIGAND FREE ENERGY PREDICTED BY IDOCK:   -0.07 KCAL/MOL
REMARK 927      BINDING AFFINITY PREDICTED BY RF-SCORE:    0.00 PKD
ROOT
HETATM    1  C   UNL     1      -5.163  19.582  62.853  1.00  0.00    -0.334 C  
HETATM    2  C   UNL     1      -5.847  19.658  64.209  1.00  0.00    -0.318 C  
ENDROOT
BRANCH   2   3
HETATM    3  C   UNL     1      -5.332  18.573  65.161  1.00  0.00    -0.218 C  
BRANCH   3   4
HETATM    4  C   UNL     1      -6.317  18.252  66.258  1.00  0.00    -0.204 C  
HETATM    5  C   UNL     1      -6.059  18.468  67.555  1.00  0.00    -0.175 C  
HETATM    6  C   UNL     1      -7.076  18.120  68.569  1.00  0.00    -0.257 C  
HETATM    7  N   UNL     1      -8.245  17.598  68.089  1.00  0.00    -0.249 N  
HETATM    8  O   UNL     1      -6.865  18.299  69.763  1.00  0.00    -0.036 OA 
HETATM    9  C   UNL     1      -8.508  17.368  66.770  1.00  0.00    -0.254 C  
HETATM   10  H   UNL     1      -8.971  17.362  68.764  1.00  0.00     0.000 HD 
HETATM   11  S   UNL     1      -9.952  16.727  66.259  1.00  0.00    -0.327 S  
HETATM   12  N   UNL     1      -7.520  17.697  65.885  1.00  0.00    -0.506 NA 
ENDBRANCH   3   4
ENDBRANCH   2   3
TORSDOF 2
ENDMDL
MODEL      169
REMARK 921   NORMALIZED FREE ENERGY PREDICTED BY IDOCK:   -2.51 KCAL/MOL
REMARK 922        TOTAL FREE ENERGY PREDICTED BY IDOCK:   -2.93 KCAL/MOL
REMARK 923 INTER-LIGAND FREE ENERGY PREDICTED BY IDOCK:   -2.85 KCAL/MOL
REMARK 924 INTRA-LIGAND FREE ENERGY PREDICTED BY IDOCK:   -0.08 KCAL/MOL
REMARK 927      BINDING AFFINITY PREDICTED BY RF-SCORE:    0.00 PKD
ROOT
HETATM    1  C   UNL     1      -8.414  11.407  67.292  1.00  0.00    -0.148 C  
HETATM    2  C   UNL     1      -9.104  10.264  68.018  1.00  0.00    -0.132 C  
ENDROOT
BRANCH   2   3
HETATM    3  C   UNL     1      -9.296  10.576  69.507  1.00  0.00    -0.089 C  
BRANCH   3   4
HETATM    4  C   UNL     1     -10.351   9.709  70.148  1.00  0.00    -0.266 C  
HETATM    5  C   UNL     1     -11.408  10.210  70.801  1.00  0.00    -0.436 C  
HETATM    6  C   UNL     1     -12.395   9.292  71.406  1.00  0.00    -0.343 C  
HETATM    7  N   UNL     1     -12.151   7.958  71.238  1.00  0.00    -0.299 N  
HETATM    8  O   UNL     1     -13.367   9.722  72.017  1.00  0.00    -0.419 OA 
HETATM    9  C   UNL     1     -11.073   7.443  70.581  1.00  0.00    -0.266 C  
HETATM   10  H   UNL     1     -12.823   7.300  71.632  1.00  0.00     0.000 HD 
HETATM   11  S   UNL     1     -10.839   5.806  70.417  1.00  0.00    -0.258 S  
HETATM   12  N   UNL     1     -10.190   8.346  70.058  1.00  0.00    -0.197 NA 
ENDBRANCH   3   4
ENDBRANCH   2   3
TORSDOF 2
ENDMDL
MODEL      170
REMARK 921   NORMALIZED FREE ENERGY PREDICTED BY IDOCK:   -2.49 KCAL/MOL
REMARK 922        TOTAL FREE ENERGY PREDICTED BY IDOCK:   -2.91 KCAL/MOL
REMARK 923 INTER-LIGAND FREE ENERGY PREDICTED BY IDOCK:   -2.81 KCAL/MOL
REMARK 924 INTRA-LIGAND FREE ENERGY PREDICTED BY IDOCK:   -0.10 KCAL/MOL
REMARK 927      BINDING AFFINITY PREDICTED BY RF-SCORE:    0.00 PKD
ROOT
HETATM    1  C   UNL     1      -9.369  19.065  67.592  1.00  0.00    -0.342 C  
HETATM    2  C   UNL     1     -10.041  18.253  68.688  1.00  0.00    -0.407 C  
ENDROOT
BRANCH   2   3
HETATM    3  C   UNL     1     -10.891  17.118  68.108  1.00  0.00    -0.316 C  
BRANCH   3   4
HETATM    4  C   UNL     1     -10.251  15.764  68.291  1.00  0.00    -0.225 C  
HETATM    5  C   UNL     1      -8.990  15.606  68.718  1.00  0.00    -0.205 C  
HETATM    6  C   UNL     1      -8.435  14.245  68.868  1.00  0.00    -0.031 C  
HETATM    7  N   UNL     1      -9.282  13.217  68.558  1.00  0.00    -0.355 N  
HETATM    8  O   UNL     1      -7.283  14.070  69.248  1.00  0.00    -0.098 OA 
HETATM    9  C   UNL     1     -10.562  13.373  68.115  1.00  0.00    -0.245 C  
HETATM   10  H   UNL     1      -8.931  12.266  68.665  1.00  0.00     0.000 HD 
HETATM   11  S   UNL     1     -11.534  12.076  67.754  1.00  0.00    -0.329 S  
HETATM   12  N   UNL     1     -11.009  14.658  67.984  1.00  0.00    -0.260 NA 
ENDBRANCH   3   4
ENDBRANCH   2   3
TORSDOF 2
ENDMDL
MODEL      171
REMARK 921   NORMALIZED FREE ENERGY PREDICTED BY IDOCK:   -2.48 KCAL/MOL
REMARK 922        TOTAL FREE ENERGY PREDICTED BY IDOCK:   -2.89 KCAL/MOL
REMARK 923 INTER-LIGAND FREE ENERGY PREDICTED BY IDOCK:   -2.81 KCAL/MOL
REMARK 924 INTRA-LIGAND FREE ENERGY PREDICTED BY IDOCK:   -0.08 KCAL/MOL
REMARK 927      BINDING AFFINITY PREDICTED BY RF-SCORE:    0.00 PKD
ROOT
HETATM    1  C   UNL     1     -12.286  13.348  65.654  1.00  0.00    -0.510 C  
HETATM    2  C   UNL     1     -11.496  13.688  66.908  1.00  0.00    -0.369 C  
ENDROOT
BRANCH   2   3
HETATM    3  C   UNL     1     -11.890  12.786  68.083  1.00  0.00    -0.372 C  
BRANCH   3   4
HETATM    4  C   UNL     1     -11.028  11.552  68.178  1.00  0.00    -0.228 C  
HETATM    5  C   UNL     1     -11.307  10.529  68.997  1.00  0.00    -0.319 C  
HETATM    6  C   UNL     1     -10.409   9.357  69.036  1.00  0.00    -0.210 C  
HETATM    7  N   UNL     1      -9.330   9.404  68.197  1.00  0.00    -0.134 N  
HETATM    8  O   UNL     1     -10.635   8.411  69.781  1.00  0.00    -0.220 OA 
HETATM    9  C   UNL     1      -9.037  10.447  67.368  1.00  0.00    -0.135 C  
HETATM   10  H   UNL     1      -8.699   8.603  68.190  1.00  0.00     0.000 HD 
HETATM   11  S   UNL     1      -7.704  10.436  66.376  1.00  0.00    -0.131 S  
HETATM   12  N   UNL     1      -9.900  11.506  67.392  1.00  0.00    -0.185 NA 
ENDBRANCH   3   4
ENDBRANCH   2   3
TORSDOF 2
ENDMDL
MODEL      172
REMARK 921   NORMALIZED FREE ENERGY PREDICTED BY IDOCK:   -2.47 KCAL/MOL
REMARK 922        TOTAL FREE ENERGY PREDICTED BY IDOCK:   -2.89 KCAL/MOL
REMARK 923 INTER-LIGAND FREE ENERGY PREDICTED BY IDOCK:   -2.98 KCAL/MOL
REMARK 924 INTRA-LIGAND FREE ENERGY PREDICTED BY IDOCK:    0.09 KCAL/MOL
REMARK 927      BINDING AFFINITY PREDICTED BY RF-SCORE:    0.00 PKD
ROOT
HETATM    1  C   UNL     1     -12.980   8.855  71.570  1.00  0.00    -0.379 C  
HETATM    2  C   UNL     1     -12.609  10.328  71.631  1.00  0.00    -0.534 C  
ENDROOT
BRANCH   2   3
HETATM    3  C   UNL     1     -12.550  10.953  70.233  1.00  0.00    -0.342 C  
BRANCH   3   4
HETATM    4  C   UNL     1     -11.367  10.467  69.433  1.00  0.00    -0.269 C  
HETATM    5  C   UNL     1     -11.301  10.562  68.098  1.00  0.00    -0.324 C  
HETATM    6  C   UNL     1     -10.109  10.058  67.387  1.00  0.00    -0.208 C  
HETATM    7  N   UNL     1      -9.126   9.524  68.174  1.00  0.00    -0.127 N  
HETATM    8  O   UNL     1     -10.025  10.124  66.166  1.00  0.00    -0.220 OA 
HETATM    9  C   UNL     1      -9.192   9.418  69.532  1.00  0.00    -0.176 C  
HETATM   10  H   UNL     1      -8.284   9.181  67.713  1.00  0.00     0.000 HD 
HETATM   11  S   UNL     1      -7.958   8.754  70.424  1.00  0.00    -0.127 S  
HETATM   12  N   UNL     1     -10.328   9.890  70.126  1.00  0.00    -0.270 NA 
ENDBRANCH   3   4
ENDBRANCH   2   3
TORSDOF 2
ENDMDL
MODEL      173
REMARK 921   NORMALIZED FREE ENERGY PREDICTED BY IDOCK:   -2.45 KCAL/MOL
REMARK 922        TOTAL FREE ENERGY PREDICTED BY IDOCK:   -2.87 KCAL/MOL
REMARK 923 INTER-LIGAND FREE ENERGY PREDICTED BY IDOCK:   -2.76 KCAL/MOL
REMARK 924 INTRA-LIGAND FREE ENERGY PREDICTED BY IDOCK:   -0.11 KCAL/MOL
REMARK 927      BINDING AFFINITY PREDICTED BY RF-SCORE:    0.00 PKD
ROOT
HETATM    1  C   UNL     1      -7.729   9.447  67.524  1.00  0.00    -0.091 C  
HETATM    2  C   UNL     1      -8.020   9.154  68.988  1.00  0.00    -0.101 C  
ENDROOT
BRANCH   2   3
HETATM    3  C   UNL     1      -8.909   7.916  69.149  1.00  0.00    -0.142 C  
BRANCH   3   4
HETATM    4  C   UNL     1     -10.197   8.220  69.874  1.00  0.00    -0.201 C  
HETATM    5  C   UNL     1     -10.945   7.274  70.458  1.00  0.00    -0.282 C  
HETATM    6  C   UNL     1     -12.197   7.653  71.144  1.00  0.00    -0.285 C  
HETATM    7  N   UNL     1     -12.501   8.987  71.138  1.00  0.00    -0.429 N  
HETATM    8  O   UNL     1     -12.905   6.809  71.680  1.00  0.00    -0.358 OA 
HETATM    9  C   UNL     1     -11.747   9.952  70.538  1.00  0.00    -0.295 C  
HETATM   10  H   UNL     1     -13.352   9.281  71.617  1.00  0.00     0.000 HD 
HETATM   11  S   UNL     1     -12.181  11.555  70.569  1.00  0.00    -0.347 S  
HETATM   12  N   UNL     1     -10.609   9.532  69.907  1.00  0.00    -0.225 NA 
ENDBRANCH   3   4
ENDBRANCH   2   3
TORSDOF 2
ENDMDL
MODEL      174
REMARK 921   NORMALIZED FREE ENERGY PREDICTED BY IDOCK:   -2.45 KCAL/MOL
REMARK 922        TOTAL FREE ENERGY PREDICTED BY IDOCK:   -2.87 KCAL/MOL
REMARK 923 INTER-LIGAND FREE ENERGY PREDICTED BY IDOCK:   -2.77 KCAL/MOL
REMARK 924 INTRA-LIGAND FREE ENERGY PREDICTED BY IDOCK:   -0.09 KCAL/MOL
REMARK 927      BINDING AFFINITY PREDICTED BY RF-SCORE:    0.00 PKD
ROOT
HETATM    1  C   UNL     1      -6.025   9.756  70.743  1.00  0.00    -0.086 C  
HETATM    2  C   UNL     1      -7.037   8.639  70.540  1.00  0.00    -0.044 C  
ENDROOT
BRANCH   2   3
HETATM    3  C   UNL     1      -8.124   8.661  71.621  1.00  0.00    -0.183 C  
BRANCH   3   4
HETATM    4  C   UNL     1      -9.461   9.113  71.087  1.00  0.00    -0.261 C  
HETATM    5  C   UNL     1     -10.615   8.895  71.732  1.00  0.00    -0.432 C  
HETATM    6  C   UNL     1     -11.883   9.365  71.139  1.00  0.00    -0.338 C  
HETATM    7  N   UNL     1     -11.778  10.017  69.942  1.00  0.00    -0.422 N  
HETATM    8  O   UNL     1     -12.955   9.172  71.702  1.00  0.00    -0.328 OA 
HETATM    9  C   UNL     1     -10.606  10.234  69.278  1.00  0.00    -0.230 C  
HETATM   10  H   UNL     1     -12.635  10.366  69.515  1.00  0.00     0.000 HD 
HETATM   11  S   UNL     1     -10.554  11.034  67.823  1.00  0.00    -0.228 S  
HETATM   12  N   UNL     1      -9.471   9.760  69.873  1.00  0.00    -0.222 NA 
ENDBRANCH   3   4
ENDBRANCH   2   3
TORSDOF 2
ENDMDL
MODEL      175
REMARK 921   NORMALIZED FREE ENERGY PREDICTED BY IDOCK:   -2.43 KCAL/MOL
REMARK 922        TOTAL FREE ENERGY PREDICTED BY IDOCK:   -2.84 KCAL/MOL
REMARK 923 INTER-LIGAND FREE ENERGY PREDICTED BY IDOCK:   -2.73 KCAL/MOL
REMARK 924 INTRA-LIGAND FREE ENERGY PREDICTED BY IDOCK:   -0.11 KCAL/MOL
REMARK 927      BINDING AFFINITY PREDICTED BY RF-SCORE:    0.00 PKD
ROOT
HETATM    1  C   UNL     1      -6.338  19.798  68.549  1.00  0.00    -0.304 C  
HETATM    2  C   UNL     1      -7.692  19.167  68.266  1.00  0.00    -0.350 C  
ENDROOT
BRANCH   2   3
HETATM    3  C   UNL     1      -7.548  17.831  67.527  1.00  0.00    -0.214 C  
BRANCH   3   4
HETATM    4  C   UNL     1      -8.543  16.800  67.999  1.00  0.00    -0.210 C  
HETATM    5  C   UNL     1      -9.329  16.981  69.069  1.00  0.00    -0.167 C  
HETATM    6  C   UNL     1     -10.275  15.919  69.469  1.00  0.00    -0.279 C  
HETATM    7  N   UNL     1     -10.283  14.800  68.683  1.00  0.00    -0.230 N  
HETATM    8  O   UNL     1     -10.999  16.053  70.448  1.00  0.00    -0.335 OA 
HETATM    9  C   UNL     1      -9.480  14.608  67.598  1.00  0.00    -0.205 C  
HETATM   10  H   UNL     1     -10.937  14.055  68.926  1.00  0.00     0.000 HD 
HETATM   11  S   UNL     1      -9.544  13.219  66.689  1.00  0.00    -0.260 S  
HETATM   12  N   UNL     1      -8.617  15.622  67.291  1.00  0.00    -0.180 NA 
ENDBRANCH   3   4
ENDBRANCH   2   3
TORSDOF 2
ENDMDL
MODEL      176
REMARK 921   NORMALIZED FREE ENERGY PREDICTED BY IDOCK:   -2.43 KCAL/MOL
REMARK 922        TOTAL FREE ENERGY PREDICTED BY IDOCK:   -2.84 KCAL/MOL
REMARK 923 INTER-LIGAND FREE ENERGY PREDICTED BY IDOCK:   -2.75 KCAL/MOL
REMARK 924 INTRA-LIGAND FREE ENERGY PREDICTED BY IDOCK:   -0.09 KCAL/MOL
REMARK 927      BINDING AFFINITY PREDICTED BY RF-SCORE:    0.00 PKD
ROOT
HETATM    1  C   UNL     1     -12.233  12.652  63.380  1.00  0.00    -0.610 C  
HETATM    2  C   UNL     1     -11.207  11.801  64.112  1.00  0.00    -0.437 C  
ENDROOT
BRANCH   2   3
HETATM    3  C   UNL     1     -10.550  12.574  65.261  1.00  0.00    -0.319 C  
BRANCH   3   4
HETATM    4  C   UNL     1      -9.809  11.671  66.216  1.00  0.00    -0.219 C  
HETATM    5  C   UNL     1      -8.948  12.131  67.134  1.00  0.00    -0.189 C  
HETATM    6  C   UNL     1      -8.258  11.180  68.030  1.00  0.00    -0.125 C  
HETATM    7  N   UNL     1      -8.570   9.861  67.854  1.00  0.00    -0.125 N  
HETATM    8  O   UNL     1      -7.459  11.571  68.873  1.00  0.00    -0.115 OA 
HETATM    9  C   UNL     1      -9.440   9.387  66.916  1.00  0.00    -0.156 C  
HETATM   10  H   UNL     1      -8.121   9.182  68.468  1.00  0.00     0.000 HD 
HETATM   11  S   UNL     1      -9.769   7.767  66.758  1.00  0.00    -0.233 S  
HETATM   12  N   UNL     1     -10.032  10.318  66.109  1.00  0.00    -0.226 NA 
ENDBRANCH   3   4
ENDBRANCH   2   3
TORSDOF 2
ENDMDL
MODEL      177
REMARK 921   NORMALIZED FREE ENERGY PREDICTED BY IDOCK:   -2.42 KCAL/MOL
REMARK 922        TOTAL FREE ENERGY PREDICTED BY IDOCK:   -2.83 KCAL/MOL
REMARK 923 INTER-LIGAND FREE ENERGY PREDICTED BY IDOCK:   -2.74 KCAL/MOL
REMARK 924 INTRA-LIGAND FREE ENERGY PREDICTED BY IDOCK:   -0.10 KCAL/MOL
REMARK 927      BINDING AFFINITY PREDICTED BY RF-SCORE:    0.00 PKD
ROOT
HETATM    1  C   UNL     1      -6.398  19.765  69.563  1.00  0.00    -0.372 C  
HETATM    2  C   UNL     1      -7.292  18.762  68.849  1.00  0.00    -0.325 C  
ENDROOT
BRANCH   2   3
HETATM    3  C   UNL     1      -6.906  17.319  69.194  1.00  0.00    -0.234 C  
BRANCH   3   4
HETATM    4  C   UNL     1      -7.505  16.318  68.237  1.00  0.00    -0.157 C  
HETATM    5  C   UNL     1      -8.495  16.623  67.388  1.00  0.00    -0.204 C  
HETATM    6  C   UNL     1      -9.031  15.582  66.486  1.00  0.00    -0.312 C  
HETATM    7  N   UNL     1      -8.447  14.349  66.584  1.00  0.00    -0.421 N  
HETATM    8  O   UNL     1      -9.942  15.830  65.705  1.00  0.00    -0.325 OA 
HETATM    9  C   UNL     1      -7.445  14.032  67.452  1.00  0.00    -0.127 C  
HETATM   10  H   UNL     1      -8.786  13.614  65.963  1.00  0.00     0.000 HD 
HETATM   11  S   UNL     1      -6.785  12.509  67.518  1.00  0.00    -0.151 S  
HETATM   12  N   UNL     1      -7.006  15.036  68.269  1.00  0.00    -0.108 NA 
ENDBRANCH   3   4
ENDBRANCH   2   3
TORSDOF 2
ENDMDL
MODEL      178
REMARK 921   NORMALIZED FREE ENERGY PREDICTED BY IDOCK:   -2.40 KCAL/MOL
REMARK 922        TOTAL FREE ENERGY PREDICTED BY IDOCK:   -2.81 KCAL/MOL
REMARK 923 INTER-LIGAND FREE ENERGY PREDICTED BY IDOCK:   -3.22 KCAL/MOL
REMARK 924 INTRA-LIGAND FREE ENERGY PREDICTED BY IDOCK:    0.41 KCAL/MOL
REMARK 927      BINDING AFFINITY PREDICTED BY RF-SCORE:    0.00 PKD
ROOT
HETATM    1  C   UNL     1     -10.763   9.923  70.900  1.00  0.00    -0.305 C  
HETATM    2  C   UNL     1     -12.046  10.453  70.280  1.00  0.00    -0.370 C  
ENDROOT
BRANCH   2   3
HETATM    3  C   UNL     1     -11.764  11.276  69.018  1.00  0.00    -0.410 C  
BRANCH   3   4
HETATM    4  C   UNL     1     -11.143  10.452  67.917  1.00  0.00    -0.299 C  
HETATM    5  C   UNL     1     -10.743  10.977  66.751  1.00  0.00    -0.319 C  
HETATM    6  C   UNL     1     -10.149  10.101  65.721  1.00  0.00    -0.254 C  
HETATM    7  N   UNL     1     -10.040   8.779  66.052  1.00  0.00    -0.422 N  
HETATM    8  O   UNL     1      -9.782  10.551  64.642  1.00  0.00    -0.255 OA 
HETATM    9  C   UNL     1     -10.453   8.239  67.235  1.00  0.00    -0.303 C  
HETATM   10  H   UNL     1      -9.620   8.151  65.367  1.00  0.00     0.000 HD 
HETATM   11  S   UNL     1     -10.291   6.620  67.568  1.00  0.00    -0.244 S  
HETATM   12  N   UNL     1     -11.008   9.101  68.138  1.00  0.00    -0.044 NA 
ENDBRANCH   3   4
ENDBRANCH   2   3
TORSDOF 2
ENDMDL
MODEL      179
REMARK 921   NORMALIZED FREE ENERGY PREDICTED BY IDOCK:   -2.40 KCAL/MOL
REMARK 922        TOTAL FREE ENERGY PREDICTED BY IDOCK:   -2.81 KCAL/MOL
REMARK 923 INTER-LIGAND FREE ENERGY PREDICTED BY IDOCK:   -3.28 KCAL/MOL
REMARK 924 INTRA-LIGAND FREE ENERGY PREDICTED BY IDOCK:    0.47 KCAL/MOL
REMARK 927      BINDING AFFINITY PREDICTED BY RF-SCORE:    0.00 PKD
ROOT
HETATM    1  C   UNL     1     -11.397  11.066  70.113  1.00  0.00    -0.335 C  
HETATM    2  C   UNL     1     -12.115  12.338  69.690  1.00  0.00    -0.277 C  
ENDROOT
BRANCH   2   3
HETATM    3  C   UNL     1     -11.279  13.153  68.697  1.00  0.00    -0.314 C  
BRANCH   3   4
HETATM    4  C   UNL     1     -11.088  12.440  67.381  1.00  0.00    -0.272 C  
HETATM    5  C   UNL     1     -10.488  11.245  67.280  1.00  0.00    -0.249 C  
HETATM    6  C   UNL     1     -10.335  10.615  65.953  1.00  0.00    -0.224 C  
HETATM    7  N   UNL     1     -10.843  11.318  64.896  1.00  0.00    -0.267 N  
HETATM    8  O   UNL     1      -9.783   9.528  65.829  1.00  0.00    -0.256 OA 
HETATM    9  C   UNL     1     -11.446  12.537  64.993  1.00  0.00    -0.326 C  
HETATM   10  H   UNL     1     -10.765  10.901  63.968  1.00  0.00     0.000 HD 
HETATM   11  S   UNL     1     -12.039  13.335  63.662  1.00  0.00    -0.420 S  
HETATM   12  N   UNL     1     -11.542  13.072  66.247  1.00  0.00    -0.342 NA 
ENDBRANCH   3   4
ENDBRANCH   2   3
TORSDOF 2
ENDMDL
MODEL      180
REMARK 921   NORMALIZED FREE ENERGY PREDICTED BY IDOCK:   -2.39 KCAL/MOL
REMARK 922        TOTAL FREE ENERGY PREDICTED BY IDOCK:   -2.80 KCAL/MOL
REMARK 923 INTER-LIGAND FREE ENERGY PREDICTED BY IDOCK:   -2.70 KCAL/MOL
REMARK 924 INTRA-LIGAND FREE ENERGY PREDICTED BY IDOCK:   -0.10 KCAL/MOL
REMARK 927      BINDING AFFINITY PREDICTED BY RF-SCORE:    0.00 PKD
ROOT
HETATM    1  C   UNL     1     -12.232  12.650  63.373  1.00  0.00    -0.610 C  
HETATM    2  C   UNL     1     -11.186  11.780  64.053  1.00  0.00    -0.461 C  
ENDROOT
BRANCH   2   3
HETATM    3  C   UNL     1     -10.474  12.533  65.182  1.00  0.00    -0.320 C  
BRANCH   3   4
HETATM    4  C   UNL     1      -9.694  11.613  66.088  1.00  0.00    -0.229 C  
HETATM    5  C   UNL     1      -9.890  10.288  66.125  1.00  0.00    -0.284 C  
HETATM    6  C   UNL     1      -9.087   9.457  67.045  1.00  0.00    -0.134 C  
HETATM    7  N   UNL     1      -8.168  10.124  67.806  1.00  0.00    -0.110 N  
HETATM    8  O   UNL     1      -9.250   8.243  67.107  1.00  0.00    -0.137 OA 
HETATM    9  C   UNL     1      -7.970  11.474  67.777  1.00  0.00    -0.128 C  
HETATM   10  H   UNL     1      -7.588   9.575  68.440  1.00  0.00     0.000 HD 
HETATM   11  S   UNL     1      -6.835  12.218  68.734  1.00  0.00    -0.095 S  
HETATM   12  N   UNL     1      -8.756  12.186  66.916  1.00  0.00    -0.192 NA 
ENDBRANCH   3   4
ENDBRANCH   2   3
TORSDOF 2
ENDMDL
MODEL      181
REMARK 921   NORMALIZED FREE ENERGY PREDICTED BY IDOCK:   -2.38 KCAL/MOL
REMARK 922        TOTAL FREE ENERGY PREDICTED BY IDOCK:   -2.79 KCAL/MOL
REMARK 923 INTER-LIGAND FREE ENERGY PREDICTED BY IDOCK:   -2.71 KCAL/MOL
REMARK 924 INTRA-LIGAND FREE ENERGY PREDICTED BY IDOCK:   -0.08 KCAL/MOL
REMARK 927      BINDING AFFINITY PREDICTED BY RF-SCORE:    0.00 PKD
ROOT
HETATM    1  C   UNL     1     -10.777   5.802  70.611  1.00  0.00    -0.351 C  
HETATM    2  C   UNL     1     -10.850   6.955  69.622  1.00  0.00    -0.294 C  
ENDROOT
BRANCH   2   3
HETATM    3  C   UNL     1     -11.143   6.460  68.202  1.00  0.00    -0.358 C  
BRANCH   3   4
HETATM    4  C   UNL     1     -10.425   7.268  67.149  1.00  0.00    -0.324 C  
HETATM    5  C   UNL     1     -10.636   8.578  66.966  1.00  0.00    -0.305 C  
HETATM    6  C   UNL     1      -9.895   9.296  65.908  1.00  0.00    -0.265 C  
HETATM    7  N   UNL     1      -9.013   8.545  65.181  1.00  0.00    -0.411 N  
HETATM    8  O   UNL     1     -10.073  10.493  65.712  1.00  0.00    -0.247 OA 
HETATM    9  C   UNL     1      -8.801   7.210  65.359  1.00  0.00     0.110 C  
HETATM   10  H   UNL     1      -8.476   9.017  64.454  1.00  0.00     0.000 HD 
HETATM   11  S   UNL     1      -7.715   6.359  64.434  1.00  0.00    -0.112 S  
HETATM   12  N   UNL     1      -9.530   6.603  66.343  1.00  0.00    -0.154 NA 
ENDBRANCH   3   4
ENDBRANCH   2   3
TORSDOF 2
ENDMDL
MODEL      182
REMARK 921   NORMALIZED FREE ENERGY PREDICTED BY IDOCK:   -2.37 KCAL/MOL
REMARK 922        TOTAL FREE ENERGY PREDICTED BY IDOCK:   -2.77 KCAL/MOL
REMARK 923 INTER-LIGAND FREE ENERGY PREDICTED BY IDOCK:   -2.68 KCAL/MOL
REMARK 924 INTRA-LIGAND FREE ENERGY PREDICTED BY IDOCK:   -0.09 KCAL/MOL
REMARK 927      BINDING AFFINITY PREDICTED BY RF-SCORE:    0.00 PKD
ROOT
HETATM    1  C   UNL     1     -11.825  11.316  68.775  1.00  0.00    -0.396 C  
HETATM    2  C   UNL     1     -11.091  10.278  69.610  1.00  0.00    -0.323 C  
ENDROOT
BRANCH   2   3
HETATM    3  C   UNL     1     -10.306   9.300  68.730  1.00  0.00    -0.231 C  
BRANCH   3   4
HETATM    4  C   UNL     1     -10.341   7.888  69.261  1.00  0.00    -0.220 C  
HETATM    5  C   UNL     1     -10.075   6.817  68.501  1.00  0.00    -0.166 C  
HETATM    6  C   UNL     1     -10.136   5.466  69.096  1.00  0.00    -0.223 C  
HETATM    7  N   UNL     1     -10.462   5.413  70.423  1.00  0.00    -0.280 N  
HETATM    8  O   UNL     1      -9.906   4.468  68.423  1.00  0.00    -0.145 OA 
HETATM    9  C   UNL     1     -10.742   6.499  71.198  1.00  0.00    -0.240 C  
HETATM   10  H   UNL     1     -10.497   4.494  70.865  1.00  0.00     0.000 HD 
HETATM   11  S   UNL     1     -11.132   6.358  72.806  1.00  0.00    -0.226 S  
HETATM   12  N   UNL     1     -10.682   7.718  70.582  1.00  0.00    -0.227 NA 
ENDBRANCH   3   4
ENDBRANCH   2   3
TORSDOF 2
ENDMDL
MODEL      183
REMARK 921   NORMALIZED FREE ENERGY PREDICTED BY IDOCK:   -2.36 KCAL/MOL
REMARK 922        TOTAL FREE ENERGY PREDICTED BY IDOCK:   -2.76 KCAL/MOL
REMARK 923 INTER-LIGAND FREE ENERGY PREDICTED BY IDOCK:   -2.62 KCAL/MOL
REMARK 924 INTRA-LIGAND FREE ENERGY PREDICTED BY IDOCK:   -0.14 KCAL/MOL
REMARK 927      BINDING AFFINITY PREDICTED BY RF-SCORE:    0.00 PKD
ROOT
HETATM    1  C   UNL     1      -9.194  10.754  69.055  1.00  0.00    -0.157 C  
HETATM    2  C   UNL     1      -9.684   9.320  68.925  1.00  0.00    -0.164 C  
ENDROOT
BRANCH   2   3
HETATM    3  C   UNL     1     -10.652   9.161  67.746  1.00  0.00    -0.289 C  
BRANCH   3   4
HETATM    4  C   UNL     1      -9.968   9.324  66.411  1.00  0.00    -0.286 C  
HETATM    5  C   UNL     1      -9.000   8.501  65.983  1.00  0.00    -0.228 C  
HETATM    6  C   UNL     1      -8.377   8.732  64.664  1.00  0.00    -0.166 C  
HETATM    7  N   UNL     1      -8.859   9.797  63.953  1.00  0.00    -0.218 N  
HETATM    8  O   UNL     1      -7.484   8.002  64.249  1.00  0.00    -0.092 OA 
HETATM    9  C   UNL     1      -9.837  10.641  64.389  1.00  0.00    -0.334 C  
HETATM   10  H   UNL     1      -8.458   9.973  63.032  1.00  0.00     0.000 HD 
HETATM   11  S   UNL     1     -10.372  11.919  63.471  1.00  0.00    -0.460 S  
HETATM   12  N   UNL     1     -10.361  10.381  65.624  1.00  0.00    -0.230 NA 
ENDBRANCH   3   4
ENDBRANCH   2   3
TORSDOF 2
ENDMDL
MODEL      184
REMARK 921   NORMALIZED FREE ENERGY PREDICTED BY IDOCK:   -2.36 KCAL/MOL
REMARK 922        TOTAL FREE ENERGY PREDICTED BY IDOCK:   -2.76 KCAL/MOL
REMARK 923 INTER-LIGAND FREE ENERGY PREDICTED BY IDOCK:   -2.97 KCAL/MOL
REMARK 924 INTRA-LIGAND FREE ENERGY PREDICTED BY IDOCK:    0.20 KCAL/MOL
REMARK 927      BINDING AFFINITY PREDICTED BY RF-SCORE:    0.00 PKD
ROOT
HETATM    1  C   UNL     1      -9.878  11.055  69.438  1.00  0.00     0.021 C  
HETATM    2  C   UNL     1     -11.321  10.794  69.034  1.00  0.00    -0.349 C  
ENDROOT
BRANCH   2   3
HETATM    3  C   UNL     1     -11.768  11.730  67.906  1.00  0.00    -0.347 C  
BRANCH   3   4
HETATM    4  C   UNL     1     -11.158  11.364  66.576  1.00  0.00    -0.251 C  
HETATM    5  C   UNL     1     -11.341  12.091  65.465  1.00  0.00    -0.381 C  
HETATM    6  C   UNL     1     -10.712  11.662  64.199  1.00  0.00    -0.362 C  
HETATM    7  N   UNL     1      -9.959  10.522  64.263  1.00  0.00    -0.337 N  
HETATM    8  O   UNL     1     -10.868  12.303  63.166  1.00  0.00    -0.377 OA 
HETATM    9  C   UNL     1      -9.777   9.774  65.388  1.00  0.00    -0.313 C  
HETATM   10  H   UNL     1      -9.500  10.209  63.407  1.00  0.00     0.000 HD 
HETATM   11  S   UNL     1      -8.849   8.397  65.390  1.00  0.00    -0.043 S  
HETATM   12  N   UNL     1     -10.399  10.218  66.522  1.00  0.00    -0.228 NA 
ENDBRANCH   3   4
ENDBRANCH   2   3
TORSDOF 2
ENDMDL
MODEL      185
REMARK 921   NORMALIZED FREE ENERGY PREDICTED BY IDOCK:   -2.35 KCAL/MOL
REMARK 922        TOTAL FREE ENERGY PREDICTED BY IDOCK:   -2.75 KCAL/MOL
REMARK 923 INTER-LIGAND FREE ENERGY PREDICTED BY IDOCK:   -2.65 KCAL/MOL
REMARK 924 INTRA-LIGAND FREE ENERGY PREDICTED BY IDOCK:   -0.11 KCAL/MOL
REMARK 927      BINDING AFFINITY PREDICTED BY RF-SCORE:    0.00 PKD
ROOT
HETATM    1  C   UNL     1     -11.772  12.422  65.481  1.00  0.00    -0.459 C  
HETATM    2  C   UNL     1     -10.748  12.012  66.529  1.00  0.00    -0.293 C  
ENDROOT
BRANCH   2   3
HETATM    3  C   UNL     1     -11.365  11.095  67.590  1.00  0.00    -0.356 C  
BRANCH   3   4
HETATM    4  C   UNL     1     -10.504   9.891  67.885  1.00  0.00    -0.236 C  
HETATM    5  C   UNL     1     -10.254   8.935  66.980  1.00  0.00    -0.345 C  
HETATM    6  C   UNL     1      -9.404   7.785  67.348  1.00  0.00    -0.141 C  
HETATM    7  N   UNL     1      -8.912   7.790  68.625  1.00  0.00    -0.134 N  
HETATM    8  O   UNL     1      -9.165   6.891  66.544  1.00  0.00    -0.156 OA 
HETATM    9  C   UNL     1      -9.171   8.756  69.551  1.00  0.00    -0.149 C  
HETATM   10  H   UNL     1      -8.310   7.016  68.904  1.00  0.00     0.000 HD 
HETATM   11  S   UNL     1      -8.541   8.695  71.087  1.00  0.00    -0.196 S  
HETATM   12  N   UNL     1      -9.977   9.785  69.151  1.00  0.00    -0.179 NA 
ENDBRANCH   3   4
ENDBRANCH   2   3
TORSDOF 2
ENDMDL
MODEL      186
REMARK 921   NORMALIZED FREE ENERGY PREDICTED BY IDOCK:   -2.35 KCAL/MOL
REMARK 922        TOTAL FREE ENERGY PREDICTED BY IDOCK:   -2.75 KCAL/MOL
REMARK 923 INTER-LIGAND FREE ENERGY PREDICTED BY IDOCK:   -2.67 KCAL/MOL
REMARK 924 INTRA-LIGAND FREE ENERGY PREDICTED BY IDOCK:   -0.08 KCAL/MOL
REMARK 927      BINDING AFFINITY PREDICTED BY RF-SCORE:    0.00 PKD
ROOT
HETATM    1  C   UNL     1      -9.737   5.929  66.449  1.00  0.00    -0.168 C  
HETATM    2  C   UNL     1     -10.447   6.663  67.576  1.00  0.00    -0.299 C  
ENDROOT
BRANCH   2   3
HETATM    3  C   UNL     1      -9.675   6.549  68.895  1.00  0.00    -0.134 C  
BRANCH   3   4
HETATM    4  C   UNL     1     -10.207   7.479  69.958  1.00  0.00    -0.215 C  
HETATM    5  C   UNL     1     -10.445   7.088  71.217  1.00  0.00    -0.224 C  
HETATM    6  C   UNL     1     -10.970   8.060  72.197  1.00  0.00    -0.295 C  
HETATM    7  N   UNL     1     -11.170   9.330  71.731  1.00  0.00    -0.374 N  
HETATM    8  O   UNL     1     -11.206   7.728  73.353  1.00  0.00    -0.315 OA 
HETATM    9  C   UNL     1     -10.937   9.731  70.448  1.00  0.00    -0.312 C  
HETATM   10  H   UNL     1     -11.518  10.027  72.388  1.00  0.00     0.000 HD 
HETATM   11  S   UNL     1     -11.206  11.293  69.951  1.00  0.00    -0.119 S  
HETATM   12  N   UNL     1     -10.466   8.779  69.588  1.00  0.00    -0.217 NA 
ENDBRANCH   3   4
ENDBRANCH   2   3
TORSDOF 2
ENDMDL
MODEL      187
REMARK 921   NORMALIZED FREE ENERGY PREDICTED BY IDOCK:   -2.35 KCAL/MOL
REMARK 922        TOTAL FREE ENERGY PREDICTED BY IDOCK:   -2.75 KCAL/MOL
REMARK 923 INTER-LIGAND FREE ENERGY PREDICTED BY IDOCK:   -2.65 KCAL/MOL
REMARK 924 INTRA-LIGAND FREE ENERGY PREDICTED BY IDOCK:   -0.10 KCAL/MOL
REMARK 927      BINDING AFFINITY PREDICTED BY RF-SCORE:    0.00 PKD
ROOT
HETATM    1  C   UNL     1      -9.198   8.556  71.348  1.00  0.00    -0.272 C  
HETATM    2  C   UNL     1      -8.688   8.942  69.969  1.00  0.00    -0.151 C  
ENDROOT
BRANCH   2   3
HETATM    3  C   UNL     1      -9.575   8.367  68.859  1.00  0.00    -0.153 C  
BRANCH   3   4
HETATM    4  C   UNL     1      -9.824   9.358  67.748  1.00  0.00    -0.170 C  
HETATM    5  C   UNL     1     -10.755  10.319  67.824  1.00  0.00    -0.324 C  
HETATM    6  C   UNL     1     -10.941  11.247  66.689  1.00  0.00    -0.268 C  
HETATM    7  N   UNL     1     -10.114  11.053  65.618  1.00  0.00    -0.245 N  
HETATM    8  O   UNL     1     -11.790  12.130  66.727  1.00  0.00    -0.561 OA 
HETATM    9  C   UNL     1      -9.171  10.071  65.533  1.00  0.00    -0.198 C  
HETATM   10  H   UNL     1     -10.208  11.688  64.825  1.00  0.00     0.000 HD 
HETATM   11  S   UNL     1      -8.201   9.894  64.196  1.00  0.00    -0.170 S  
HETATM   12  N   UNL     1      -9.061   9.237  66.610  1.00  0.00    -0.138 NA 
ENDBRANCH   3   4
ENDBRANCH   2   3
TORSDOF 2
ENDMDL
MODEL      188
REMARK 921   NORMALIZED FREE ENERGY PREDICTED BY IDOCK:   -2.32 KCAL/MOL
REMARK 922        TOTAL FREE ENERGY PREDICTED BY IDOCK:   -2.72 KCAL/MOL
REMARK 923 INTER-LIGAND FREE ENERGY PREDICTED BY IDOCK:   -2.63 KCAL/MOL
REMARK 924 INTRA-LIGAND FREE ENERGY PREDICTED BY IDOCK:   -0.09 KCAL/MOL
REMARK 927      BINDING AFFINITY PREDICTED BY RF-SCORE:    0.00 PKD
ROOT
HETATM    1  C   UNL     1      -6.751   9.816  68.523  1.00  0.00    -0.052 C  
HETATM    2  C   UNL     1      -7.993  10.116  69.348  1.00  0.00    -0.155 C  
ENDROOT
BRANCH   2   3
HETATM    3  C   UNL     1      -7.926   9.453  70.728  1.00  0.00    -0.154 C  
BRANCH   3   4
HETATM    4  C   UNL     1      -9.249   8.865  71.152  1.00  0.00    -0.256 C  
HETATM    5  C   UNL     1      -9.394   7.584  71.518  1.00  0.00    -0.154 C  
HETATM    6  C   UNL     1     -10.726   7.084  71.915  1.00  0.00    -0.217 C  
HETATM    7  N   UNL     1     -11.741   8.000  71.887  1.00  0.00    -0.285 N  
HETATM    8  O   UNL     1     -10.890   5.915  72.246  1.00  0.00    -0.222 OA 
HETATM    9  C   UNL     1     -11.600   9.302  71.508  1.00  0.00    -0.382 C  
HETATM   10  H   UNL     1     -12.669   7.687  72.170  1.00  0.00     0.000 HD 
HETATM   11  S   UNL     1     -12.880  10.360  71.496  1.00  0.00    -0.496 S  
HETATM   12  N   UNL     1     -10.345   9.697  71.137  1.00  0.00    -0.257 NA 
ENDBRANCH   3   4
ENDBRANCH   2   3
TORSDOF 2
ENDMDL
MODEL      189
REMARK 921   NORMALIZED FREE ENERGY PREDICTED BY IDOCK:   -2.31 KCAL/MOL
REMARK 922        TOTAL FREE ENERGY PREDICTED BY IDOCK:   -2.71 KCAL/MOL
REMARK 923 INTER-LIGAND FREE ENERGY PREDICTED BY IDOCK:   -2.61 KCAL/MOL
REMARK 924 INTRA-LIGAND FREE ENERGY PREDICTED BY IDOCK:   -0.11 KCAL/MOL
REMARK 927      BINDING AFFINITY PREDICTED BY RF-SCORE:    0.00 PKD
ROOT
HETATM    1  C   UNL     1      -8.682   2.753  69.798  1.00  0.00    -0.130 C  
HETATM    2  C   UNL     1      -8.601   4.204  69.350  1.00  0.00    -0.109 C  
ENDROOT
BRANCH   2   3
HETATM    3  C   UNL     1      -8.541   5.160  70.547  1.00  0.00    -0.126 C  
BRANCH   3   4
HETATM    4  C   UNL     1      -9.697   6.128  70.571  1.00  0.00    -0.173 C  
HETATM    5  C   UNL     1     -10.809   5.918  71.289  1.00  0.00    -0.333 C  
HETATM    6  C   UNL     1     -11.900   6.913  71.255  1.00  0.00    -0.341 C  
HETATM    7  N   UNL     1     -11.678   8.016  70.476  1.00  0.00    -0.459 N  
HETATM    8  O   UNL     1     -12.932   6.744  71.894  1.00  0.00    -0.325 OA 
HETATM    9  C   UNL     1     -10.552   8.230  69.738  1.00  0.00    -0.228 C  
HETATM   10  H   UNL     1     -12.408   8.728  70.445  1.00  0.00     0.000 HD 
HETATM   11  S   UNL     1     -10.353   9.594  68.811  1.00  0.00    -0.220 S  
HETATM   12  N   UNL     1      -9.588   7.263  69.801  1.00  0.00    -0.163 NA 
ENDBRANCH   3   4
ENDBRANCH   2   3
TORSDOF 2
ENDMDL
MODEL      190
REMARK 921   NORMALIZED FREE ENERGY PREDICTED BY IDOCK:   -2.30 KCAL/MOL
REMARK 922        TOTAL FREE ENERGY PREDICTED BY IDOCK:   -2.70 KCAL/MOL
REMARK 923 INTER-LIGAND FREE ENERGY PREDICTED BY IDOCK:   -2.60 KCAL/MOL
REMARK 924 INTRA-LIGAND FREE ENERGY PREDICTED BY IDOCK:   -0.10 KCAL/MOL
REMARK 927      BINDING AFFINITY PREDICTED BY RF-SCORE:    0.00 PKD
ROOT
HETATM    1  C   UNL     1      -8.784   9.122  64.411  1.00  0.00    -0.184 C  
HETATM    2  C   UNL     1      -8.577   8.863  65.895  1.00  0.00    -0.177 C  
ENDROOT
BRANCH   2   3
HETATM    3  C   UNL     1      -9.574   7.830  66.431  1.00  0.00    -0.235 C  
BRANCH   3   4
HETATM    4  C   UNL     1     -10.199   8.254  67.738  1.00  0.00    -0.223 C  
HETATM    5  C   UNL     1     -10.496   7.389  68.717  1.00  0.00    -0.215 C  
HETATM    6  C   UNL     1     -11.112   7.884  69.966  1.00  0.00    -0.162 C  
HETATM    7  N   UNL     1     -11.329   9.232  70.031  1.00  0.00    -0.407 N  
HETATM    8  O   UNL     1     -11.402   7.116  70.876  1.00  0.00    -0.265 OA 
HETATM    9  C   UNL     1     -11.036  10.115  69.033  1.00  0.00    -0.205 C  
HETATM   10  H   UNL     1     -11.740   9.605  70.887  1.00  0.00     0.000 HD 
HETATM   11  S   UNL     1     -11.331  11.742  69.182  1.00  0.00    -0.297 S  
HETATM   12  N   UNL     1     -10.483   9.590  67.899  1.00  0.00    -0.228 NA 
ENDBRANCH   3   4
ENDBRANCH   2   3
TORSDOF 2
ENDMDL
MODEL      191
REMARK 921   NORMALIZED FREE ENERGY PREDICTED BY IDOCK:   -2.29 KCAL/MOL
REMARK 922        TOTAL FREE ENERGY PREDICTED BY IDOCK:   -2.68 KCAL/MOL
REMARK 923 INTER-LIGAND FREE ENERGY PREDICTED BY IDOCK:   -2.60 KCAL/MOL
REMARK 924 INTRA-LIGAND FREE ENERGY PREDICTED BY IDOCK:   -0.09 KCAL/MOL
REMARK 927      BINDING AFFINITY PREDICTED BY RF-SCORE:    0.00 PKD
ROOT
HETATM    1  C   UNL     1     -11.310  10.546  69.001  1.00  0.00    -0.319 C  
HETATM    2  C   UNL     1     -10.619   9.554  69.924  1.00  0.00    -0.269 C  
ENDROOT
BRANCH   2   3
HETATM    3  C   UNL     1     -11.632   8.760  70.756  1.00  0.00    -0.288 C  
BRANCH   3   4
HETATM    4  C   UNL     1     -11.069   7.454  71.260  1.00  0.00    -0.246 C  
HETATM    5  C   UNL     1     -11.720   6.666  72.126  1.00  0.00    -0.342 C  
HETATM    6  C   UNL     1     -11.097   5.404  72.575  1.00  0.00    -0.253 C  
HETATM    7  N   UNL     1      -9.867   5.123  72.046  1.00  0.00    -0.165 N  
HETATM    8  O   UNL     1     -11.664   4.667  73.372  1.00  0.00    -0.283 OA 
HETATM    9  C   UNL     1      -9.198   5.927  71.170  1.00  0.00    -0.150 C  
HETATM   10  H   UNL     1      -9.418   4.251  72.326  1.00  0.00     0.000 HD 
HETATM   11  S   UNL     1      -7.702   5.523  70.570  1.00  0.00    -0.095 S  
HETATM   12  N   UNL     1      -9.822   7.087  70.808  1.00  0.00    -0.186 NA 
ENDBRANCH   3   4
ENDBRANCH   2   3
TORSDOF 2
ENDMDL
MODEL      192
REMARK 921   NORMALIZED FREE ENERGY PREDICTED BY IDOCK:   -2.26 KCAL/MOL
REMARK 922        TOTAL FREE ENERGY PREDICTED BY IDOCK:   -2.65 KCAL/MOL
REMARK 923 INTER-LIGAND FREE ENERGY PREDICTED BY IDOCK:   -2.57 KCAL/MOL
REMARK 924 INTRA-LIGAND FREE ENERGY PREDICTED BY IDOCK:   -0.09 KCAL/MOL
REMARK 927      BINDING AFFINITY PREDICTED BY RF-SCORE:    0.00 PKD
ROOT
HETATM    1  C   UNL     1      -8.927  12.626  65.880  1.00  0.00     0.296 C  
HETATM    2  C   UNL     1      -9.467  13.865  66.577  1.00  0.00    -0.288 C  
ENDROOT
BRANCH   2   3
HETATM    3  C   UNL     1     -10.991  13.809  66.726  1.00  0.00    -0.307 C  
BRANCH   3   4
HETATM    4  C   UNL     1     -11.440  13.997  68.154  1.00  0.00    -0.309 C  
HETATM    5  C   UNL     1     -11.476  15.194  68.755  1.00  0.00    -0.335 C  
HETATM    6  C   UNL     1     -11.924  15.293  70.159  1.00  0.00    -0.338 C  
HETATM    7  N   UNL     1     -12.289  14.117  70.754  1.00  0.00    -0.346 N  
HETATM    8  O   UNL     1     -11.958  16.373  70.737  1.00  0.00    -0.144 OA 
HETATM    9  C   UNL     1     -12.247  12.896  70.149  1.00  0.00    -0.266 C  
HETATM   10  H   UNL     1     -12.617  14.156  71.719  1.00  0.00     0.000 HD 
HETATM   11  S   UNL     1     -12.705  11.506  70.936  1.00  0.00    -0.218 S  
HETATM   12  N   UNL     1     -11.809  12.872  68.854  1.00  0.00    -0.314 NA 
ENDBRANCH   3   4
ENDBRANCH   2   3
TORSDOF 2
ENDMDL
MODEL      193
REMARK 921   NORMALIZED FREE ENERGY PREDICTED BY IDOCK:   -2.24 KCAL/MOL
REMARK 922        TOTAL FREE ENERGY PREDICTED BY IDOCK:   -2.63 KCAL/MOL
REMARK 923 INTER-LIGAND FREE ENERGY PREDICTED BY IDOCK:   -2.54 KCAL/MOL
REMARK 924 INTRA-LIGAND FREE ENERGY PREDICTED BY IDOCK:   -0.08 KCAL/MOL
REMARK 927      BINDING AFFINITY PREDICTED BY RF-SCORE:    0.00 PKD
ROOT
HETATM    1  C   UNL     1     -12.026  13.187  69.019  1.00  0.00    -0.329 C  
HETATM    2  C   UNL     1     -11.018  12.278  68.334  1.00  0.00    -0.270 C  
ENDROOT
BRANCH   2   3
HETATM    3  C   UNL     1     -11.344  10.799  68.566  1.00  0.00    -0.360 C  
BRANCH   3   4
HETATM    4  C   UNL     1     -10.532   9.883  67.684  1.00  0.00    -0.244 C  
HETATM    5  C   UNL     1     -10.322   8.591  67.972  1.00  0.00    -0.272 C  
HETATM    6  C   UNL     1      -9.511   7.762  67.057  1.00  0.00    -0.164 C  
HETATM    7  N   UNL     1      -9.030   8.395  65.945  1.00  0.00    -0.192 N  
HETATM    8  O   UNL     1      -9.295   6.580  67.299  1.00  0.00    -0.118 OA 
HETATM    9  C   UNL     1      -9.234   9.711  65.652  1.00  0.00    -0.215 C  
HETATM   10  H   UNL     1      -8.478   7.844  65.287  1.00  0.00     0.000 HD 
HETATM   11  S   UNL     1      -8.614  10.415  64.281  1.00  0.00    -0.169 S  
HETATM   12  N   UNL     1      -9.980  10.426  66.547  1.00  0.00    -0.209 NA 
ENDBRANCH   3   4
ENDBRANCH   2   3
TORSDOF 2
ENDMDL
MODEL      194
REMARK 921   NORMALIZED FREE ENERGY PREDICTED BY IDOCK:   -2.24 KCAL/MOL
REMARK 922        TOTAL FREE ENERGY PREDICTED BY IDOCK:   -2.62 KCAL/MOL
REMARK 923 INTER-LIGAND FREE ENERGY PREDICTED BY IDOCK:   -2.51 KCAL/MOL
REMARK 924 INTRA-LIGAND FREE ENERGY PREDICTED BY IDOCK:   -0.12 KCAL/MOL
REMARK 927      BINDING AFFINITY PREDICTED BY RF-SCORE:    0.00 PKD
ROOT
HETATM    1  C   UNL     1      -7.548   9.274  65.005  1.00  0.00    -0.107 C  
HETATM    2  C   UNL     1      -8.200   8.499  66.139  1.00  0.00    -0.115 C  
ENDROOT
BRANCH   2   3
HETATM    3  C   UNL     1      -9.538   9.123  66.551  1.00  0.00    -0.289 C  
BRANCH   3   4
HETATM    4  C   UNL     1      -9.617   9.392  68.034  1.00  0.00    -0.138 C  
HETATM    5  C   UNL     1      -8.599   9.157  68.873  1.00  0.00    -0.131 C  
HETATM    6  C   UNL     1      -8.759   9.442  70.313  1.00  0.00    -0.230 C  
HETATM    7  N   UNL     1      -9.971   9.951  70.691  1.00  0.00    -0.360 N  
HETATM    8  O   UNL     1      -7.848   9.230  71.105  1.00  0.00    -0.289 OA 
HETATM    9  C   UNL     1     -11.013  10.183  69.842  1.00  0.00    -0.293 C  
HETATM   10  H   UNL     1     -10.106  10.172  71.677  1.00  0.00     0.000 HD 
HETATM   11  S   UNL     1     -12.460  10.801  70.373  1.00  0.00    -0.326 S  
HETATM   12  N   UNL     1     -10.805   9.883  68.525  1.00  0.00    -0.231 NA 
ENDBRANCH   3   4
ENDBRANCH   2   3
TORSDOF 2
ENDMDL
MODEL      195
REMARK 921   NORMALIZED FREE ENERGY PREDICTED BY IDOCK:   -2.22 KCAL/MOL
REMARK 922        TOTAL FREE ENERGY PREDICTED BY IDOCK:   -2.61 KCAL/MOL
REMARK 923 INTER-LIGAND FREE ENERGY PREDICTED BY IDOCK:   -2.49 KCAL/MOL
REMARK 924 INTRA-LIGAND FREE ENERGY PREDICTED BY IDOCK:   -0.13 KCAL/MOL
REMARK 927      BINDING AFFINITY PREDICTED BY RF-SCORE:    0.00 PKD
ROOT
HETATM    1  C   UNL     1      -7.161   6.387  68.549  1.00  0.00    -0.083 C  
HETATM    2  C   UNL     1      -7.135   7.793  67.970  1.00  0.00    -0.085 C  
ENDROOT
BRANCH   2   3
HETATM    3  C   UNL     1      -7.422   8.849  69.042  1.00  0.00    -0.074 C  
BRANCH   3   4
HETATM    4  C   UNL     1      -8.895   9.143  69.185  1.00  0.00    -0.146 C  
HETATM    5  C   UNL     1      -9.583   9.867  68.292  1.00  0.00    -0.151 C  
HETATM    6  C   UNL     1     -11.024  10.114  68.507  1.00  0.00    -0.232 C  
HETATM    7  N   UNL     1     -11.564   9.557  69.633  1.00  0.00    -0.441 N  
HETATM    8  O   UNL     1     -11.677  10.780  67.713  1.00  0.00    -0.547 OA 
HETATM    9  C   UNL     1     -10.865   8.825  70.548  1.00  0.00    -0.233 C  
HETATM   10  H   UNL     1     -12.560   9.697  69.801  1.00  0.00     0.000 HD 
HETATM   11  S   UNL     1     -11.588   8.180  71.897  1.00  0.00    -0.331 S  
HETATM   12  N   UNL     1      -9.534   8.647  70.298  1.00  0.00    -0.162 NA 
ENDBRANCH   3   4
ENDBRANCH   2   3
TORSDOF 2
ENDMDL
MODEL      196
REMARK 921   NORMALIZED FREE ENERGY PREDICTED BY IDOCK:   -2.17 KCAL/MOL
REMARK 922        TOTAL FREE ENERGY PREDICTED BY IDOCK:   -2.55 KCAL/MOL
REMARK 923 INTER-LIGAND FREE ENERGY PREDICTED BY IDOCK:   -2.42 KCAL/MOL
REMARK 924 INTRA-LIGAND FREE ENERGY PREDICTED BY IDOCK:   -0.12 KCAL/MOL
REMARK 927      BINDING AFFINITY PREDICTED BY RF-SCORE:    0.00 PKD
ROOT
HETATM    1  C   UNL     1     -10.024   4.622  65.649  1.00  0.00    -0.228 C  
HETATM    2  C   UNL     1      -9.800   4.119  67.066  1.00  0.00    -0.190 C  
ENDROOT
BRANCH   2   3
HETATM    3  C   UNL     1      -8.824   5.017  67.835  1.00  0.00    -0.107 C  
BRANCH   3   4
HETATM    4  C   UNL     1      -9.531   6.005  68.730  1.00  0.00    -0.125 C  
HETATM    5  C   UNL     1     -10.561   5.668  69.517  1.00  0.00    -0.384 C  
HETATM    6  C   UNL     1     -11.203   6.696  70.361  1.00  0.00    -0.344 C  
HETATM    7  N   UNL     1     -10.671   7.953  70.279  1.00  0.00    -0.233 N  
HETATM    8  O   UNL     1     -12.153   6.419  71.085  1.00  0.00    -0.307 OA 
HETATM    9  C   UNL     1      -9.628   8.303  69.473  1.00  0.00    -0.171 C  
HETATM   10  H   UNL     1     -11.084   8.681  70.862  1.00  0.00     0.000 HD 
HETATM   11  S   UNL     1      -9.035   9.854  69.423  1.00  0.00    -0.206 S  
HETATM   12  N   UNL     1      -9.090   7.308  68.707  1.00  0.00    -0.129 NA 
ENDBRANCH   3   4
ENDBRANCH   2   3
TORSDOF 2
ENDMDL
MODEL      197
REMARK 921   NORMALIZED FREE ENERGY PREDICTED BY IDOCK:   -2.15 KCAL/MOL
REMARK 922        TOTAL FREE ENERGY PREDICTED BY IDOCK:   -2.53 KCAL/MOL
REMARK 923 INTER-LIGAND FREE ENERGY PREDICTED BY IDOCK:   -2.45 KCAL/MOL
REMARK 924 INTRA-LIGAND FREE ENERGY PREDICTED BY IDOCK:   -0.08 KCAL/MOL
REMARK 927      BINDING AFFINITY PREDICTED BY RF-SCORE:    0.00 PKD
ROOT
HETATM    1  C   UNL     1     -10.940   5.598  70.050  1.00  0.00    -0.311 C  
HETATM    2  C   UNL     1     -11.019   7.021  69.520  1.00  0.00    -0.251 C  
ENDROOT
BRANCH   2   3
HETATM    3  C   UNL     1     -10.879   7.062  67.994  1.00  0.00    -0.229 C  
BRANCH   3   4
HETATM    4  C   UNL     1     -10.324   8.375  67.500  1.00  0.00    -0.265 C  
HETATM    5  C   UNL     1      -9.354   8.456  66.579  1.00  0.00    -0.259 C  
HETATM    6  C   UNL     1      -8.862   9.782  66.152  1.00  0.00    -0.141 C  
HETATM    7  N   UNL     1      -9.462  10.860  66.741  1.00  0.00    -0.175 N  
HETATM    8  O   UNL     1      -7.970   9.887  65.318  1.00  0.00    -0.125 OA 
HETATM    9  C   UNL     1     -10.444  10.782  67.684  1.00  0.00    -0.214 C  
HETATM   10  H   UNL     1      -9.153  11.789  66.455  1.00  0.00     0.000 HD 
HETATM   11  S   UNL     1     -11.126  12.138  68.360  1.00  0.00    -0.267 S  
HETATM   12  N   UNL     1     -10.843   9.527  68.046  1.00  0.00    -0.209 NA 
ENDBRANCH   3   4
ENDBRANCH   2   3
TORSDOF 2
ENDMDL
MODEL      198
REMARK 921   NORMALIZED FREE ENERGY PREDICTED BY IDOCK:   -2.13 KCAL/MOL
REMARK 922        TOTAL FREE ENERGY PREDICTED BY IDOCK:   -2.51 KCAL/MOL
REMARK 923 INTER-LIGAND FREE ENERGY PREDICTED BY IDOCK:   -2.92 KCAL/MOL
REMARK 924 INTRA-LIGAND FREE ENERGY PREDICTED BY IDOCK:    0.41 KCAL/MOL
REMARK 927      BINDING AFFINITY PREDICTED BY RF-SCORE:    0.00 PKD
ROOT
HETATM    1  C   UNL     1      -9.433  12.865  66.063  1.00  0.00    -0.112 C  
HETATM    2  C   UNL     1     -10.914  12.577  66.254  1.00  0.00    -0.311 C  
ENDROOT
BRANCH   2   3
HETATM    3  C   UNL     1     -11.713  13.865  66.482  1.00  0.00    -0.414 C  
BRANCH   3   4
HETATM    4  C   UNL     1     -10.892  14.946  67.140  1.00  0.00    -0.311 C  
HETATM    5  C   UNL     1     -10.190  14.746  68.264  1.00  0.00    -0.227 C  
HETATM    6  C   UNL     1      -9.415  15.859  68.848  1.00  0.00    -0.234 C  
HETATM    7  N   UNL     1      -9.466  17.045  68.168  1.00  0.00    -0.254 N  
HETATM    8  O   UNL     1      -8.770  15.708  69.880  1.00  0.00    -0.102 OA 
HETATM    9  C   UNL     1     -10.185  17.255  67.029  1.00  0.00    -0.320 C  
HETATM   10  H   UNL     1      -8.928  17.828  68.540  1.00  0.00     0.000 HD 
HETATM   11  S   UNL     1     -10.203  18.725  66.257  1.00  0.00    -0.424 S  
HETATM   12  N   UNL     1     -10.893  16.188  66.549  1.00  0.00    -0.209 NA 
ENDBRANCH   3   4
ENDBRANCH   2   3
TORSDOF 2
ENDMDL
MODEL      199
REMARK 921   NORMALIZED FREE ENERGY PREDICTED BY IDOCK:   -2.13 KCAL/MOL
REMARK 922        TOTAL FREE ENERGY PREDICTED BY IDOCK:   -2.50 KCAL/MOL
REMARK 923 INTER-LIGAND FREE ENERGY PREDICTED BY IDOCK:   -2.38 KCAL/MOL
REMARK 924 INTRA-LIGAND FREE ENERGY PREDICTED BY IDOCK:   -0.12 KCAL/MOL
REMARK 927      BINDING AFFINITY PREDICTED BY RF-SCORE:    0.00 PKD
ROOT
HETATM    1  C   UNL     1     -13.005   7.494  71.094  1.00  0.00    -0.251 C  
HETATM    2  C   UNL     1     -12.384   8.390  72.154  1.00  0.00    -0.426 C  
ENDROOT
BRANCH   2   3
HETATM    3  C   UNL     1     -11.145   9.119  71.621  1.00  0.00    -0.445 C  
BRANCH   3   4
HETATM    4  C   UNL     1      -9.872   8.344  71.859  1.00  0.00    -0.258 C  
HETATM    5  C   UNL     1      -9.238   8.329  73.039  1.00  0.00    -0.316 C  
HETATM    6  C   UNL     1      -7.992   7.550  73.189  1.00  0.00    -0.111 C  
HETATM    7  N   UNL     1      -7.574   6.872  72.077  1.00  0.00    -0.092 N  
HETATM    8  O   UNL     1      -7.386   7.524  74.254  1.00  0.00    -0.109 OA 
HETATM    9  C   UNL     1      -8.212   6.891  70.871  1.00  0.00    -0.118 C  
HETATM   10  H   UNL     1      -6.725   6.312  72.154  1.00  0.00     0.000 HD 
HETATM   11  S   UNL     1      -7.644   6.044  69.561  1.00  0.00    -0.095 S  
HETATM   12  N   UNL     1      -9.350   7.644  70.796  1.00  0.00    -0.161 NA 
ENDBRANCH   3   4
ENDBRANCH   2   3
TORSDOF 2
ENDMDL
MODEL      200
REMARK 921   NORMALIZED FREE ENERGY PREDICTED BY IDOCK:   -2.12 KCAL/MOL
REMARK 922        TOTAL FREE ENERGY PREDICTED BY IDOCK:   -2.50 KCAL/MOL
REMARK 923 INTER-LIGAND FREE ENERGY PREDICTED BY IDOCK:   -2.41 KCAL/MOL
REMARK 924 INTRA-LIGAND FREE ENERGY PREDICTED BY IDOCK:   -0.09 KCAL/MOL
REMARK 927      BINDING AFFINITY PREDICTED BY RF-SCORE:    0.00 PKD
ROOT
HETATM    1  C   UNL     1      -9.507   7.163  72.367  1.00  0.00    -0.166 C  
HETATM    2  C   UNL     1     -10.403   8.261  71.816  1.00  0.00    -0.321 C  
ENDROOT
BRANCH   2   3
HETATM    3  C   UNL     1     -10.908   7.923  70.409  1.00  0.00    -0.244 C  
BRANCH   3   4
HETATM    4  C   UNL     1     -10.638   9.027  69.417  1.00  0.00    -0.221 C  
HETATM    5  C   UNL     1     -11.051  10.289  69.601  1.00  0.00    -0.323 C  
HETATM    6  C   UNL     1     -10.751  11.312  68.579  1.00  0.00    -0.201 C  
HETATM    7  N   UNL     1     -10.041  10.881  67.493  1.00  0.00    -0.180 N  
HETATM    8  O   UNL     1     -11.123  12.472  68.716  1.00  0.00    -0.245 OA 
HETATM    9  C   UNL     1      -9.626   9.596  67.297  1.00  0.00    -0.164 C  
HETATM   10  H   UNL     1      -9.806  11.568  66.777  1.00  0.00     0.000 HD 
HETATM   11  S   UNL     1      -8.769   9.143  65.949  1.00  0.00    -0.169 S  
HETATM   12  N   UNL     1      -9.950   8.696  68.273  1.00  0.00    -0.174 NA 
ENDBRANCH   3   4
ENDBRANCH   2   3
TORSDOF 2
ENDMDL
MODEL      201
REMARK 921   NORMALIZED FREE ENERGY PREDICTED BY IDOCK:   -2.11 KCAL/MOL
REMARK 922        TOTAL FREE ENERGY PREDICTED BY IDOCK:   -2.48 KCAL/MOL
REMARK 923 INTER-LIGAND FREE ENERGY PREDICTED BY IDOCK:   -2.34 KCAL/MOL
REMARK 924 INTRA-LIGAND FREE ENERGY PREDICTED BY IDOCK:   -0.15 KCAL/MOL
REMARK 927      BINDING AFFINITY PREDICTED BY RF-SCORE:    0.00 PKD
ROOT
HETATM    1  C   UNL     1      -8.196  10.012  66.408  1.00  0.00    -0.119 C  
HETATM    2  C   UNL     1      -9.153  10.239  67.568  1.00  0.00    -0.146 C  
ENDROOT
BRANCH   2   3
HETATM    3  C   UNL     1     -10.475   9.493  67.361  1.00  0.00    -0.336 C  
BRANCH   3   4
HETATM    4  C   UNL     1     -10.355   8.015  67.641  1.00  0.00    -0.246 C  
HETATM    5  C   UNL     1     -10.633   7.076  66.727  1.00  0.00    -0.297 C  
HETATM    6  C   UNL     1     -10.495   5.648  67.081  1.00  0.00    -0.270 C  
HETATM    7  N   UNL     1     -10.070   5.388  68.355  1.00  0.00    -0.172 N  
HETATM    8  O   UNL     1     -10.749   4.767  66.269  1.00  0.00    -0.283 OA 
HETATM    9  C   UNL     1      -9.795   6.340  69.291  1.00  0.00    -0.141 C  
HETATM   10  H   UNL     1      -9.951   4.411  68.624  1.00  0.00     0.000 HD 
HETATM   11  S   UNL     1      -9.285   5.949  70.823  1.00  0.00    -0.154 S  
HETATM   12  N   UNL     1      -9.957   7.641  68.903  1.00  0.00    -0.172 NA 
ENDBRANCH   3   4
ENDBRANCH   2   3
TORSDOF 2
ENDMDL
MODEL      202
REMARK 921   NORMALIZED FREE ENERGY PREDICTED BY IDOCK:   -2.09 KCAL/MOL
REMARK 922        TOTAL FREE ENERGY PREDICTED BY IDOCK:   -2.46 KCAL/MOL
REMARK 923 INTER-LIGAND FREE ENERGY PREDICTED BY IDOCK:   -2.37 KCAL/MOL
REMARK 924 INTRA-LIGAND FREE ENERGY PREDICTED BY IDOCK:   -0.09 KCAL/MOL
REMARK 927      BINDING AFFINITY PREDICTED BY RF-SCORE:    0.00 PKD
ROOT
HETATM    1  C   UNL     1      -9.605   4.037  65.323  1.00  0.00    -0.185 C  
HETATM    2  C   UNL     1     -10.107   4.830  66.519  1.00  0.00    -0.286 C  
ENDROOT
BRANCH   2   3
HETATM    3  C   UNL     1      -9.296   4.520  67.781  1.00  0.00    -0.180 C  
BRANCH   3   4
HETATM    4  C   UNL     1      -9.909   5.117  69.024  1.00  0.00    -0.176 C  
HETATM    5  C   UNL     1     -10.463   6.337  69.049  1.00  0.00    -0.287 C  
HETATM    6  C   UNL     1     -11.039   6.851  70.309  1.00  0.00    -0.297 C  
HETATM    7  N   UNL     1     -10.969   6.010  71.385  1.00  0.00    -0.270 N  
HETATM    8  O   UNL     1     -11.544   7.967  70.365  1.00  0.00    -0.211 OA 
HETATM    9  C   UNL     1     -10.400   4.771  71.365  1.00  0.00    -0.122 C  
HETATM   10  H   UNL     1     -11.372   6.332  72.265  1.00  0.00     0.000 HD 
HETATM   11  S   UNL     1     -10.349   3.804  72.714  1.00  0.00    -0.142 S  
HETATM   12  N   UNL     1      -9.872   4.362  70.173  1.00  0.00    -0.218 NA 
ENDBRANCH   3   4
ENDBRANCH   2   3
TORSDOF 2
ENDMDL
MODEL      203
REMARK 921   NORMALIZED FREE ENERGY PREDICTED BY IDOCK:   -2.08 KCAL/MOL
REMARK 922        TOTAL FREE ENERGY PREDICTED BY IDOCK:   -2.45 KCAL/MOL
REMARK 923 INTER-LIGAND FREE ENERGY PREDICTED BY IDOCK:   -2.33 KCAL/MOL
REMARK 924 INTRA-LIGAND FREE ENERGY PREDICTED BY IDOCK:   -0.11 KCAL/MOL
REMARK 927      BINDING AFFINITY PREDICTED BY RF-SCORE:    0.00 PKD
ROOT
HETATM    1  C   UNL     1     -10.233   5.773  68.755  1.00  0.00    -0.255 C  
HETATM    2  C   UNL     1     -10.492   7.186  69.254  1.00  0.00    -0.220 C  
ENDROOT
BRANCH   2   3
HETATM    3  C   UNL     1     -10.326   8.218  68.133  1.00  0.00    -0.253 C  
BRANCH   3   4
HETATM    4  C   UNL     1      -9.497   9.404  68.559  1.00  0.00    -0.145 C  
HETATM    5  C   UNL     1      -8.484   9.310  69.432  1.00  0.00    -0.137 C  
HETATM    6  C   UNL     1      -7.723  10.521  69.801  1.00  0.00    -0.067 C  
HETATM    7  N   UNL     1      -8.117  11.682  69.195  1.00  0.00    -0.360 N  
HETATM    8  O   UNL     1      -6.798  10.467  70.603  1.00  0.00    -0.330 OA 
HETATM    9  C   UNL     1      -9.152  11.784  68.312  1.00  0.00    -0.187 C  
HETATM   10  H   UNL     1      -7.601  12.532  69.419  1.00  0.00     0.000 HD 
HETATM   11  S   UNL     1      -9.577  13.231  67.616  1.00  0.00    -0.221 S  
HETATM   12  N   UNL     1      -9.824  10.629  68.026  1.00  0.00    -0.157 NA 
ENDBRANCH   3   4
ENDBRANCH   2   3
TORSDOF 2
ENDMDL
MODEL      204
REMARK 921   NORMALIZED FREE ENERGY PREDICTED BY IDOCK:   -2.06 KCAL/MOL
REMARK 922        TOTAL FREE ENERGY PREDICTED BY IDOCK:   -2.43 KCAL/MOL
REMARK 923 INTER-LIGAND FREE ENERGY PREDICTED BY IDOCK:   -2.30 KCAL/MOL
REMARK 924 INTRA-LIGAND FREE ENERGY PREDICTED BY IDOCK:   -0.13 KCAL/MOL
REMARK 927      BINDING AFFINITY PREDICTED BY RF-SCORE:    0.00 PKD
ROOT
HETATM    1  C   UNL     1     -10.426   5.186  66.768  1.00  0.00    -0.306 C  
HETATM    2  C   UNL     1     -10.566   6.498  67.523  1.00  0.00    -0.345 C  
ENDROOT
BRANCH   2   3
HETATM    3  C   UNL     1     -11.277   6.302  68.866  1.00  0.00    -0.387 C  
BRANCH   3   4
HETATM    4  C   UNL     1     -10.311   6.136  70.013  1.00  0.00    -0.209 C  
HETATM    5  C   UNL     1     -10.204   5.002  70.718  1.00  0.00    -0.299 C  
HETATM    6  C   UNL     1      -9.236   4.921  71.831  1.00  0.00    -0.140 C  
HETATM    7  N   UNL     1      -8.490   6.046  72.056  1.00  0.00    -0.121 N  
HETATM    8  O   UNL     1      -9.122   3.900  72.499  1.00  0.00    -0.106 OA 
HETATM    9  C   UNL     1      -8.601   7.205  71.346  1.00  0.00    -0.116 C  
HETATM   10  H   UNL     1      -7.802   6.015  72.808  1.00  0.00     0.000 HD 
HETATM   11  S   UNL     1      -7.662   8.534  71.679  1.00  0.00    -0.104 S  
HETATM   12  N   UNL     1      -9.526   7.218  70.341  1.00  0.00    -0.166 NA 
ENDBRANCH   3   4
ENDBRANCH   2   3
TORSDOF 2
ENDMDL
MODEL      205
REMARK 921   NORMALIZED FREE ENERGY PREDICTED BY IDOCK:   -2.06 KCAL/MOL
REMARK 922        TOTAL FREE ENERGY PREDICTED BY IDOCK:   -2.42 KCAL/MOL
REMARK 923 INTER-LIGAND FREE ENERGY PREDICTED BY IDOCK:   -2.33 KCAL/MOL
REMARK 924 INTRA-LIGAND FREE ENERGY PREDICTED BY IDOCK:   -0.09 KCAL/MOL
REMARK 927      BINDING AFFINITY PREDICTED BY RF-SCORE:    0.00 PKD
ROOT
HETATM    1  C   UNL     1     -10.913   5.791  70.302  1.00  0.00    -0.347 C  
HETATM    2  C   UNL     1     -11.010   6.763  69.136  1.00  0.00    -0.290 C  
ENDROOT
BRANCH   2   3
HETATM    3  C   UNL     1     -10.666   6.083  67.806  1.00  0.00    -0.369 C  
BRANCH   3   4
HETATM    4  C   UNL     1      -9.711   6.899  66.971  1.00  0.00    -0.163 C  
HETATM    5  C   UNL     1      -8.476   6.483  66.660  1.00  0.00    -0.116 C  
HETATM    6  C   UNL     1      -7.599   7.344  65.841  1.00  0.00    -0.089 C  
HETATM    7  N   UNL     1      -8.137   8.536  65.441  1.00  0.00    -0.119 N  
HETATM    8  O   UNL     1      -6.461   6.993  65.548  1.00  0.00    -0.045 OA 
HETATM    9  C   UNL     1      -9.390   8.968  65.762  1.00  0.00    -0.236 C  
HETATM   10  H   UNL     1      -7.560   9.146  64.861  1.00  0.00     0.000 HD 
HETATM   11  S   UNL     1      -9.978  10.432  65.241  1.00  0.00    -0.305 S  
HETATM   12  N   UNL     1     -10.144   8.130  66.535  1.00  0.00    -0.255 NA 
ENDBRANCH   3   4
ENDBRANCH   2   3
TORSDOF 2
ENDMDL
MODEL      206
REMARK 921   NORMALIZED FREE ENERGY PREDICTED BY IDOCK:   -2.05 KCAL/MOL
REMARK 922        TOTAL FREE ENERGY PREDICTED BY IDOCK:   -2.42 KCAL/MOL
REMARK 923 INTER-LIGAND FREE ENERGY PREDICTED BY IDOCK:   -2.34 KCAL/MOL
REMARK 924 INTRA-LIGAND FREE ENERGY PREDICTED BY IDOCK:   -0.08 KCAL/MOL
REMARK 927      BINDING AFFINITY PREDICTED BY RF-SCORE:    0.00 PKD
ROOT
HETATM    1  C   UNL     1      -8.768  10.062  64.303  1.00  0.00    -0.222 C  
HETATM    2  C   UNL     1      -7.830  10.122  65.498  1.00  0.00    -0.147 C  
ENDROOT
BRANCH   2   3
HETATM    3  C   UNL     1      -8.457   9.479  66.739  1.00  0.00    -0.129 C  
BRANCH   3   4
HETATM    4  C   UNL     1      -9.140  10.488  67.629  1.00  0.00    -0.142 C  
HETATM    5  C   UNL     1      -9.050  11.811  67.435  1.00  0.00    -0.175 C  
HETATM    6  C   UNL     1      -9.745  12.733  68.356  1.00  0.00    -0.186 C  
HETATM    7  N   UNL     1     -10.460  12.146  69.363  1.00  0.00    -0.409 N  
HETATM    8  O   UNL     1      -9.673  13.948  68.208  1.00  0.00    -0.213 OA 
HETATM    9  C   UNL     1     -10.549  10.801  69.569  1.00  0.00    -0.196 C  
HETATM   10  H   UNL     1     -10.963  12.757  70.005  1.00  0.00     0.000 HD 
HETATM   11  S   UNL     1     -11.435  10.158  70.818  1.00  0.00    -0.361 S  
HETATM   12  N   UNL     1      -9.869  10.004  68.691  1.00  0.00    -0.155 NA 
ENDBRANCH   3   4
ENDBRANCH   2   3
TORSDOF 2
ENDMDL
MODEL      207
REMARK 921   NORMALIZED FREE ENERGY PREDICTED BY IDOCK:   -2.05 KCAL/MOL
REMARK 922        TOTAL FREE ENERGY PREDICTED BY IDOCK:   -2.42 KCAL/MOL
REMARK 923 INTER-LIGAND FREE ENERGY PREDICTED BY IDOCK:   -2.40 KCAL/MOL
REMARK 924 INTRA-LIGAND FREE ENERGY PREDICTED BY IDOCK:   -0.01 KCAL/MOL
REMARK 927      BINDING AFFINITY PREDICTED BY RF-SCORE:    0.00 PKD
ROOT
HETATM    1  C   UNL     1      -9.560  15.263  69.034  1.00  0.00    -0.237 C  
HETATM    2  C   UNL     1     -11.005  14.887  69.320  1.00  0.00    -0.279 C  
ENDROOT
BRANCH   2   3
HETATM    3  C   UNL     1     -11.188  13.368  69.397  1.00  0.00    -0.235 C  
BRANCH   3   4
HETATM    4  C   UNL     1     -10.526  12.648  68.248  1.00  0.00    -0.239 C  
HETATM    5  C   UNL     1     -11.006  12.675  66.997  1.00  0.00    -0.300 C  
HETATM    6  C   UNL     1     -10.301  11.939  65.928  1.00  0.00    -0.242 C  
HETATM    7  N   UNL     1      -9.169  11.272  66.309  1.00  0.00    -0.194 N  
HETATM    8  O   UNL     1     -10.720  11.939  64.777  1.00  0.00    -0.283 OA 
HETATM    9  C   UNL     1      -8.682  11.234  67.582  1.00  0.00    -0.131 C  
HETATM   10  H   UNL     1      -8.652  10.766  65.589  1.00  0.00     0.000 HD 
HETATM   11  S   UNL     1      -7.300  10.399  67.972  1.00  0.00    -0.086 S  
HETATM   12  N   UNL     1      -9.390  11.923  68.526  1.00  0.00    -0.177 NA 
ENDBRANCH   3   4
ENDBRANCH   2   3
TORSDOF 2
ENDMDL
MODEL      208
REMARK 921   NORMALIZED FREE ENERGY PREDICTED BY IDOCK:   -2.04 KCAL/MOL
REMARK 922        TOTAL FREE ENERGY PREDICTED BY IDOCK:   -2.40 KCAL/MOL
REMARK 923 INTER-LIGAND FREE ENERGY PREDICTED BY IDOCK:   -2.32 KCAL/MOL
REMARK 924 INTRA-LIGAND FREE ENERGY PREDICTED BY IDOCK:   -0.09 KCAL/MOL
REMARK 927      BINDING AFFINITY PREDICTED BY RF-SCORE:    0.00 PKD
ROOT
HETATM    1  C   UNL     1      -8.497  15.895  68.008  1.00  0.00    -0.162 C  
HETATM    2  C   UNL     1      -8.653  14.501  67.421  1.00  0.00    -0.213 C  
ENDROOT
BRANCH   2   3
HETATM    3  C   UNL     1      -9.067  13.483  68.490  1.00  0.00    -0.092 C  
BRANCH   3   4
HETATM    4  C   UNL     1      -9.506  12.168  67.896  1.00  0.00    -0.195 C  
HETATM    5  C   UNL     1      -9.779  11.087  68.640  1.00  0.00    -0.198 C  
HETATM    6  C   UNL     1     -10.199   9.834  67.980  1.00  0.00    -0.190 C  
HETATM    7  N   UNL     1     -10.289   9.877  66.616  1.00  0.00    -0.224 N  
HETATM    8  O   UNL     1     -10.447   8.827  68.634  1.00  0.00    -0.211 OA 
HETATM    9  C   UNL     1     -10.004  10.972  65.855  1.00  0.00    -0.240 C  
HETATM   10  H   UNL     1     -10.591   9.031  66.134  1.00  0.00     0.000 HD 
HETATM   11  S   UNL     1     -10.134  10.952  64.199  1.00  0.00    -0.371 S  
HETATM   12  N   UNL     1      -9.607  12.095  66.526  1.00  0.00    -0.222 NA 
ENDBRANCH   3   4
ENDBRANCH   2   3
TORSDOF 2
ENDMDL
MODEL      209
REMARK 921   NORMALIZED FREE ENERGY PREDICTED BY IDOCK:   -2.01 KCAL/MOL
REMARK 922        TOTAL FREE ENERGY PREDICTED BY IDOCK:   -2.37 KCAL/MOL
REMARK 923 INTER-LIGAND FREE ENERGY PREDICTED BY IDOCK:   -2.25 KCAL/MOL
REMARK 924 INTRA-LIGAND FREE ENERGY PREDICTED BY IDOCK:   -0.12 KCAL/MOL
REMARK 927      BINDING AFFINITY PREDICTED BY RF-SCORE:    0.00 PKD
ROOT
HETATM    1  C   UNL     1      -7.653   4.216  69.842  1.00  0.00    -0.052 C  
HETATM    2  C   UNL     1      -7.565   5.010  71.136  1.00  0.00    -0.086 C  
ENDROOT
BRANCH   2   3
HETATM    3  C   UNL     1      -7.550   6.519  70.871  1.00  0.00    -0.089 C  
BRANCH   3   4
HETATM    4  C   UNL     1      -8.840   7.012  70.262  1.00  0.00    -0.148 C  
HETATM    5  C   UNL     1      -8.910   7.538  69.032  1.00  0.00    -0.132 C  
HETATM    6  C   UNL     1     -10.212   8.003  68.510  1.00  0.00    -0.207 C  
HETATM    7  N   UNL     1     -11.282   7.844  69.347  1.00  0.00    -0.435 N  
HETATM    8  O   UNL     1     -10.306   8.496  67.392  1.00  0.00    -0.243 OA 
HETATM    9  C   UNL     1     -11.213   7.316  70.602  1.00  0.00    -0.274 C  
HETATM   10  H   UNL     1     -12.197   8.142  69.008  1.00  0.00     0.000 HD 
HETATM   11  S   UNL     1     -12.557   7.156  71.566  1.00  0.00    -0.395 S  
HETATM   12  N   UNL     1      -9.977   6.921  71.031  1.00  0.00    -0.189 NA 
ENDBRANCH   3   4
ENDBRANCH   2   3
TORSDOF 2
ENDMDL
MODEL      210
REMARK 921   NORMALIZED FREE ENERGY PREDICTED BY IDOCK:   -2.01 KCAL/MOL
REMARK 922        TOTAL FREE ENERGY PREDICTED BY IDOCK:   -2.37 KCAL/MOL
REMARK 923 INTER-LIGAND FREE ENERGY PREDICTED BY IDOCK:   -2.30 KCAL/MOL
REMARK 924 INTRA-LIGAND FREE ENERGY PREDICTED BY IDOCK:   -0.07 KCAL/MOL
REMARK 927      BINDING AFFINITY PREDICTED BY RF-SCORE:    0.00 PKD
ROOT
HETATM    1  C   UNL     1     -11.627   7.970  71.439  1.00  0.00    -0.301 C  
HETATM    2  C   UNL     1     -12.000   6.848  70.482  1.00  0.00    -0.358 C  
ENDROOT
BRANCH   2   3
HETATM    3  C   UNL     1     -10.759   6.116  69.961  1.00  0.00    -0.370 C  
BRANCH   3   4
HETATM    4  C   UNL     1      -9.961   6.950  68.989  1.00  0.00    -0.158 C  
HETATM    5  C   UNL     1     -10.530   7.750  68.077  1.00  0.00    -0.244 C  
HETATM    6  C   UNL     1      -9.678   8.531  67.157  1.00  0.00    -0.192 C  
HETATM    7  N   UNL     1      -8.329   8.380  67.320  1.00  0.00    -0.122 N  
HETATM    8  O   UNL     1     -10.170   9.264  66.308  1.00  0.00    -0.273 OA 
HETATM    9  C   UNL     1      -7.745   7.561  68.241  1.00  0.00    -0.120 C  
HETATM   10  H   UNL     1      -7.715   8.918  66.709  1.00  0.00     0.000 HD 
HETATM   11  S   UNL     1      -6.096   7.425  68.380  1.00  0.00    -0.032 S  
HETATM   12  N   UNL     1      -8.590   6.855  69.051  1.00  0.00    -0.128 NA 
ENDBRANCH   3   4
ENDBRANCH   2   3
TORSDOF 2
ENDMDL
MODEL      211
REMARK 921   NORMALIZED FREE ENERGY PREDICTED BY IDOCK:   -1.97 KCAL/MOL
REMARK 922        TOTAL FREE ENERGY PREDICTED BY IDOCK:   -2.33 KCAL/MOL
REMARK 923 INTER-LIGAND FREE ENERGY PREDICTED BY IDOCK:   -2.25 KCAL/MOL
REMARK 924 INTRA-LIGAND FREE ENERGY PREDICTED BY IDOCK:   -0.08 KCAL/MOL
REMARK 927      BINDING AFFINITY PREDICTED BY RF-SCORE:    0.00 PKD
ROOT
HETATM    1  C   UNL     1     -10.015   7.995  66.664  1.00  0.00    -0.326 C  
HETATM    2  C   UNL     1     -10.049   9.466  67.047  1.00  0.00    -0.304 C  
ENDROOT
BRANCH   2   3
HETATM    3  C   UNL     1      -8.776  10.194  66.602  1.00  0.00    -0.134 C  
BRANCH   3   4
HETATM    4  C   UNL     1      -8.682  11.591  67.165  1.00  0.00    -0.160 C  
HETATM    5  C   UNL     1      -7.514  12.215  67.375  1.00  0.00    -0.156 C  
HETATM    6  C   UNL     1      -7.508  13.582  67.936  1.00  0.00    -0.153 C  
HETATM    7  N   UNL     1      -8.734  14.127  68.195  1.00  0.00    -0.173 N  
HETATM    8  O   UNL     1      -6.455  14.174  68.146  1.00  0.00    -0.098 OA 
HETATM    9  C   UNL     1      -9.924  13.492  67.991  1.00  0.00    -0.248 C  
HETATM   10  H   UNL     1      -8.762  15.076  68.569  1.00  0.00     0.000 HD 
HETATM   11  S   UNL     1     -11.379  14.217  68.333  1.00  0.00    -0.301 S  
HETATM   12  N   UNL     1      -9.860  12.224  67.485  1.00  0.00    -0.190 NA 
ENDBRANCH   3   4
ENDBRANCH   2   3
TORSDOF 2
ENDMDL
MODEL      212
REMARK 921   NORMALIZED FREE ENERGY PREDICTED BY IDOCK:   -1.97 KCAL/MOL
REMARK 922        TOTAL FREE ENERGY PREDICTED BY IDOCK:   -2.33 KCAL/MOL
REMARK 923 INTER-LIGAND FREE ENERGY PREDICTED BY IDOCK:   -2.21 KCAL/MOL
REMARK 924 INTRA-LIGAND FREE ENERGY PREDICTED BY IDOCK:   -0.12 KCAL/MOL
REMARK 927      BINDING AFFINITY PREDICTED BY RF-SCORE:    0.00 PKD
ROOT
HETATM    1  C   UNL     1      -5.850  11.721  68.757  1.00  0.00    -0.047 C  
HETATM    2  C   UNL     1      -6.627  10.899  69.773  1.00  0.00    -0.140 C  
ENDROOT
BRANCH   2   3
HETATM    3  C   UNL     1      -7.002   9.521  69.215  1.00  0.00    -0.050 C  
BRANCH   3   4
HETATM    4  C   UNL     1      -8.491   9.278  69.228  1.00  0.00    -0.137 C  
HETATM    5  C   UNL     1      -9.371  10.174  69.696  1.00  0.00    -0.215 C  
HETATM    6  C   UNL     1     -10.814   9.857  69.678  1.00  0.00    -0.253 C  
HETATM    7  N   UNL     1     -11.152   8.638  69.159  1.00  0.00    -0.426 N  
HETATM    8  O   UNL     1     -11.642  10.653  70.108  1.00  0.00    -0.276 OA 
HETATM    9  C   UNL     1     -10.259   7.721  68.689  1.00  0.00    -0.201 C  
HETATM   10  H   UNL     1     -12.142   8.397  69.120  1.00  0.00     0.000 HD 
HETATM   11  S   UNL     1     -10.742   6.256  68.074  1.00  0.00    -0.319 S  
HETATM   12  N   UNL     1      -8.939   8.069  68.748  1.00  0.00    -0.141 NA 
ENDBRANCH   3   4
ENDBRANCH   2   3
TORSDOF 2
ENDMDL
MODEL      213
REMARK 921   NORMALIZED FREE ENERGY PREDICTED BY IDOCK:   -1.93 KCAL/MOL
REMARK 922        TOTAL FREE ENERGY PREDICTED BY IDOCK:   -2.29 KCAL/MOL
REMARK 923 INTER-LIGAND FREE ENERGY PREDICTED BY IDOCK:   -2.19 KCAL/MOL
REMARK 924 INTRA-LIGAND FREE ENERGY PREDICTED BY IDOCK:   -0.10 KCAL/MOL
REMARK 927      BINDING AFFINITY PREDICTED BY RF-SCORE:    0.00 PKD
ROOT
HETATM    1  C   UNL     1     -11.837  14.325  67.549  1.00  0.00    -0.429 C  
HETATM    2  C   UNL     1     -11.272  12.936  67.802  1.00  0.00    -0.319 C  
ENDROOT
BRANCH   2   3
HETATM    3  C   UNL     1      -9.949  12.723  67.059  1.00  0.00    -0.231 C  
BRANCH   3   4
HETATM    4  C   UNL     1      -8.818  12.353  67.986  1.00  0.00    -0.187 C  
HETATM    5  C   UNL     1      -7.801  13.180  68.262  1.00  0.00    -0.143 C  
HETATM    6  C   UNL     1      -6.728  12.740  69.177  1.00  0.00    -0.080 C  
HETATM    7  N   UNL     1      -6.866  11.483  69.698  1.00  0.00    -0.298 N  
HETATM    8  O   UNL     1      -5.781  13.472  69.442  1.00  0.00    -0.081 OA 
HETATM    9  C   UNL     1      -7.895  10.634  69.414  1.00  0.00    -0.121 C  
HETATM   10  H   UNL     1      -6.149  11.157  70.345  1.00  0.00     0.000 HD 
HETATM   11  S   UNL     1      -7.996   9.117  70.083  1.00  0.00    -0.140 S  
HETATM   12  N   UNL     1      -8.846  11.097  68.548  1.00  0.00    -0.157 NA 
ENDBRANCH   3   4
ENDBRANCH   2   3
TORSDOF 2
ENDMDL
MODEL      214
REMARK 921   NORMALIZED FREE ENERGY PREDICTED BY IDOCK:   -1.93 KCAL/MOL
REMARK 922        TOTAL FREE ENERGY PREDICTED BY IDOCK:   -2.28 KCAL/MOL
REMARK 923 INTER-LIGAND FREE ENERGY PREDICTED BY IDOCK:   -2.20 KCAL/MOL
REMARK 924 INTRA-LIGAND FREE ENERGY PREDICTED BY IDOCK:   -0.08 KCAL/MOL
REMARK 927      BINDING AFFINITY PREDICTED BY RF-SCORE:    0.00 PKD
ROOT
HETATM    1  C   UNL     1      -9.596   7.419  71.317  1.00  0.00    -0.166 C  
HETATM    2  C   UNL     1     -10.900   7.446  72.100  1.00  0.00    -0.273 C  
ENDROOT
BRANCH   2   3
HETATM    3  C   UNL     1     -10.693   7.010  73.554  1.00  0.00    -0.368 C  
BRANCH   3   4
HETATM    4  C   UNL     1     -10.296   5.560  73.672  1.00  0.00    -0.237 C  
HETATM    5  C   UNL     1     -11.167   4.552  73.527  1.00  0.00    -0.388 C  
HETATM    6  C   UNL     1     -10.699   3.157  73.663  1.00  0.00    -0.207 C  
HETATM    7  N   UNL     1      -9.366   2.997  73.923  1.00  0.00    -0.084 N  
HETATM    8  O   UNL     1     -11.474   2.215  73.544  1.00  0.00    -0.212 OA 
HETATM    9  C   UNL     1      -8.477   4.020  74.079  1.00  0.00    -0.091 C  
HETATM   10  H   UNL     1      -9.010   2.045  74.007  1.00  0.00     0.000 HD 
HETATM   11  S   UNL     1      -6.870   3.750  74.397  1.00  0.00    -0.051 S  
HETATM   12  N   UNL     1      -8.978   5.286  73.957  1.00  0.00    -0.119 NA 
ENDBRANCH   3   4
ENDBRANCH   2   3
TORSDOF 2
ENDMDL
MODEL      215
REMARK 921   NORMALIZED FREE ENERGY PREDICTED BY IDOCK:   -1.91 KCAL/MOL
REMARK 922        TOTAL FREE ENERGY PREDICTED BY IDOCK:   -2.26 KCAL/MOL
REMARK 923 INTER-LIGAND FREE ENERGY PREDICTED BY IDOCK:   -2.38 KCAL/MOL
REMARK 924 INTRA-LIGAND FREE ENERGY PREDICTED BY IDOCK:    0.12 KCAL/MOL
REMARK 927      BINDING AFFINITY PREDICTED BY RF-SCORE:    0.00 PKD
ROOT
HETATM    1  C   UNL     1     -12.193  13.177  66.071  1.00  0.00    -0.478 C  
HETATM    2  C   UNL     1     -11.101  13.937  66.807  1.00  0.00    -0.310 C  
ENDROOT
BRANCH   2   3
HETATM    3  C   UNL     1      -9.705  13.473  66.378  1.00  0.00    -0.296 C  
BRANCH   3   4
HETATM    4  C   UNL     1      -9.292  12.186  67.049  1.00  0.00    -0.201 C  
HETATM    5  C   UNL     1      -8.138  11.561  66.778  1.00  0.00    -0.158 C  
HETATM    6  C   UNL     1      -7.809  10.300  67.475  1.00  0.00    -0.102 C  
HETATM    7  N   UNL     1      -8.734   9.860  68.381  1.00  0.00    -0.118 N  
HETATM    8  O   UNL     1      -6.765   9.702  67.241  1.00  0.00    -0.070 OA 
HETATM    9  C   UNL     1      -9.913  10.489  68.654  1.00  0.00    -0.181 C  
HETATM   10  H   UNL     1      -8.527   9.001  68.889  1.00  0.00     0.000 HD 
HETATM   11  S   UNL     1     -10.991   9.894  69.768  1.00  0.00    -0.277 S  
HETATM   12  N   UNL     1     -10.163  11.642  67.964  1.00  0.00    -0.185 NA 
ENDBRANCH   3   4
ENDBRANCH   2   3
TORSDOF 2
ENDMDL
MODEL      216
REMARK 921   NORMALIZED FREE ENERGY PREDICTED BY IDOCK:   -1.91 KCAL/MOL
REMARK 922        TOTAL FREE ENERGY PREDICTED BY IDOCK:   -2.26 KCAL/MOL
REMARK 923 INTER-LIGAND FREE ENERGY PREDICTED BY IDOCK:   -2.18 KCAL/MOL
REMARK 924 INTRA-LIGAND FREE ENERGY PREDICTED BY IDOCK:   -0.08 KCAL/MOL
REMARK 927      BINDING AFFINITY PREDICTED BY RF-SCORE:    0.00 PKD
ROOT
HETATM    1  C   UNL     1     -10.878   7.304  67.416  1.00  0.00    -0.317 C  
HETATM    2  C   UNL     1     -10.056   7.829  68.583  1.00  0.00    -0.211 C  
ENDROOT
BRANCH   2   3
HETATM    3  C   UNL     1     -10.649   9.123  69.151  1.00  0.00    -0.224 C  
BRANCH   3   4
HETATM    4  C   UNL     1     -10.113  10.355  68.464  1.00  0.00    -0.171 C  
HETATM    5  C   UNL     1      -9.000  10.347  67.718  1.00  0.00    -0.131 C  
HETATM    6  C   UNL     1      -8.539  11.598  67.081  1.00  0.00    -0.164 C  
HETATM    7  N   UNL     1      -9.315  12.702  67.302  1.00  0.00    -0.189 N  
HETATM    8  O   UNL     1      -7.520  11.623  66.400  1.00  0.00    -0.036 OA 
HETATM    9  C   UNL     1     -10.444  12.716  68.067  1.00  0.00    -0.224 C  
HETATM   10  H   UNL     1      -9.030  13.577  66.863  1.00  0.00     0.000 HD 
HETATM   11  S   UNL     1     -11.337  14.098  68.293  1.00  0.00    -0.310 S  
HETATM   12  N   UNL     1     -10.807  11.529  68.640  1.00  0.00    -0.200 NA 
ENDBRANCH   3   4
ENDBRANCH   2   3
TORSDOF 2
ENDMDL
MODEL      217
REMARK 921   NORMALIZED FREE ENERGY PREDICTED BY IDOCK:   -1.90 KCAL/MOL
REMARK 922        TOTAL FREE ENERGY PREDICTED BY IDOCK:   -2.25 KCAL/MOL
REMARK 923 INTER-LIGAND FREE ENERGY PREDICTED BY IDOCK:   -2.14 KCAL/MOL
REMARK 924 INTRA-LIGAND FREE ENERGY PREDICTED BY IDOCK:   -0.11 KCAL/MOL
REMARK 927      BINDING AFFINITY PREDICTED BY RF-SCORE:    0.00 PKD
ROOT
HETATM    1  C   UNL     1      -6.829  11.905  67.846  1.00  0.00    -0.083 C  
HETATM    2  C   UNL     1      -8.097  11.525  68.595  1.00  0.00    -0.132 C  
ENDROOT
BRANCH   2   3
HETATM    3  C   UNL     1      -8.664  10.190  68.101  1.00  0.00    -0.122 C  
BRANCH   3   4
HETATM    4  C   UNL     1      -9.014   9.256  69.233  1.00  0.00    -0.147 C  
HETATM    5  C   UNL     1      -8.742   9.533  70.516  1.00  0.00    -0.247 C  
HETATM    6  C   UNL     1      -9.113   8.563  71.567  1.00  0.00    -0.216 C  
HETATM    7  N   UNL     1      -9.736   7.424  71.135  1.00  0.00    -0.164 N  
HETATM    8  O   UNL     1      -8.870   8.785  72.747  1.00  0.00    -0.382 OA 
HETATM    9  C   UNL     1     -10.007   7.135  69.831  1.00  0.00    -0.182 C  
HETATM   10  H   UNL     1     -10.018   6.742  71.840  1.00  0.00     0.000 HD 
HETATM   11  S   UNL     1     -10.766   5.728  69.379  1.00  0.00    -0.311 S  
HETATM   12  N   UNL     1      -9.624   8.067  68.907  1.00  0.00    -0.151 NA 
ENDBRANCH   3   4
ENDBRANCH   2   3
TORSDOF 2
ENDMDL
MODEL      218
REMARK 921   NORMALIZED FREE ENERGY PREDICTED BY IDOCK:   -1.89 KCAL/MOL
REMARK 922        TOTAL FREE ENERGY PREDICTED BY IDOCK:   -2.23 KCAL/MOL
REMARK 923 INTER-LIGAND FREE ENERGY PREDICTED BY IDOCK:   -2.12 KCAL/MOL
REMARK 924 INTRA-LIGAND FREE ENERGY PREDICTED BY IDOCK:   -0.12 KCAL/MOL
REMARK 927      BINDING AFFINITY PREDICTED BY RF-SCORE:    0.00 PKD
ROOT
HETATM    1  C   UNL     1     -10.682   7.571  70.037  1.00  0.00    -0.248 C  
HETATM    2  C   UNL     1     -11.079   6.159  69.637  1.00  0.00    -0.489 C  
ENDROOT
BRANCH   2   3
HETATM    3  C   UNL     1      -9.909   5.180  69.791  1.00  0.00    -0.283 C  
BRANCH   3   4
HETATM    4  C   UNL     1      -9.562   4.486  68.498  1.00  0.00    -0.149 C  
HETATM    5  C   UNL     1     -10.088   4.839  67.317  1.00  0.00    -0.192 C  
HETATM    6  C   UNL     1      -9.700   4.105  66.095  1.00  0.00    -0.205 C  
HETATM    7  N   UNL     1      -8.795   3.094  66.268  1.00  0.00    -0.135 N  
HETATM    8  O   UNL     1     -10.171   4.400  65.003  1.00  0.00    -0.197 OA 
HETATM    9  C   UNL     1      -8.264   2.726  67.469  1.00  0.00    -0.081 C  
HETATM   10  H   UNL     1      -8.497   2.579  65.440  1.00  0.00     0.000 HD 
HETATM   11  S   UNL     1      -7.169   1.484  67.603  1.00  0.00    -0.043 S  
HETATM   12  N   UNL     1      -8.676   3.436  68.561  1.00  0.00    -0.093 NA 
ENDBRANCH   3   4
ENDBRANCH   2   3
TORSDOF 2
ENDMDL
MODEL      219
REMARK 921   NORMALIZED FREE ENERGY PREDICTED BY IDOCK:   -1.86 KCAL/MOL
REMARK 922        TOTAL FREE ENERGY PREDICTED BY IDOCK:   -2.20 KCAL/MOL
REMARK 923 INTER-LIGAND FREE ENERGY PREDICTED BY IDOCK:   -2.10 KCAL/MOL
REMARK 924 INTRA-LIGAND FREE ENERGY PREDICTED BY IDOCK:   -0.10 KCAL/MOL
REMARK 927      BINDING AFFINITY PREDICTED BY RF-SCORE:    0.00 PKD
ROOT
HETATM    1  C   UNL     1      -9.643   8.067  67.276  1.00  0.00    -0.210 C  
HETATM    2  C   UNL     1     -10.413   8.043  68.587  1.00  0.00    -0.196 C  
ENDROOT
BRANCH   2   3
HETATM    3  C   UNL     1      -9.478   8.198  69.792  1.00  0.00    -0.159 C  
BRANCH   3   4
HETATM    4  C   UNL     1      -9.988   7.477  71.015  1.00  0.00    -0.186 C  
HETATM    5  C   UNL     1     -11.206   6.922  71.079  1.00  0.00    -0.323 C  
HETATM    6  C   UNL     1     -11.633   6.238  72.317  1.00  0.00    -0.309 C  
HETATM    7  N   UNL     1     -10.717   6.214  73.333  1.00  0.00    -0.302 N  
HETATM    8  O   UNL     1     -12.744   5.728  72.407  1.00  0.00     0.041 OA 
HETATM    9  C   UNL     1      -9.480   6.785  73.275  1.00  0.00    -0.150 C  
HETATM   10  H   UNL     1     -10.978   5.736  74.195  1.00  0.00     0.000 HD 
HETATM   11  S   UNL     1      -8.419   6.719  74.552  1.00  0.00    -0.172 S  
HETATM   12  N   UNL     1      -9.153   7.415  72.107  1.00  0.00    -0.131 NA 
ENDBRANCH   3   4
ENDBRANCH   2   3
TORSDOF 2
ENDMDL
MODEL      220
REMARK 921   NORMALIZED FREE ENERGY PREDICTED BY IDOCK:   -1.85 KCAL/MOL
REMARK 922        TOTAL FREE ENERGY PREDICTED BY IDOCK:   -2.19 KCAL/MOL
REMARK 923 INTER-LIGAND FREE ENERGY PREDICTED BY IDOCK:   -2.08 KCAL/MOL
REMARK 924 INTRA-LIGAND FREE ENERGY PREDICTED BY IDOCK:   -0.11 KCAL/MOL
REMARK 927      BINDING AFFINITY PREDICTED BY RF-SCORE:    0.00 PKD
ROOT
HETATM    1  C   UNL     1     -10.131   5.380  67.221  1.00  0.00    -0.229 C  
HETATM    2  C   UNL     1      -9.813   6.710  67.887  1.00  0.00    -0.138 C  
ENDROOT
BRANCH   2   3
HETATM    3  C   UNL     1      -8.617   7.400  67.223  1.00  0.00    -0.118 C  
BRANCH   3   4
HETATM    4  C   UNL     1      -8.935   8.806  66.776  1.00  0.00    -0.135 C  
HETATM    5  C   UNL     1      -9.727   9.075  65.729  1.00  0.00    -0.254 C  
HETATM    6  C   UNL     1      -9.986  10.480  65.352  1.00  0.00    -0.289 C  
HETATM    7  N   UNL     1      -9.386  11.428  66.134  1.00  0.00    -0.210 N  
HETATM    8  O   UNL     1     -10.699  10.757  64.395  1.00  0.00    -0.301 OA 
HETATM    9  C   UNL     1      -8.573  11.158  67.195  1.00  0.00    -0.139 C  
HETATM   10  H   UNL     1      -9.558  12.408  65.907  1.00  0.00     0.000 HD 
HETATM   11  S   UNL     1      -7.874  12.364  68.099  1.00  0.00    -0.155 S  
HETATM   12  N   UNL     1      -8.362   9.839  67.480  1.00  0.00    -0.114 NA 
ENDBRANCH   3   4
ENDBRANCH   2   3
TORSDOF 2
ENDMDL
MODEL      221
REMARK 921   NORMALIZED FREE ENERGY PREDICTED BY IDOCK:   -1.84 KCAL/MOL
REMARK 922        TOTAL FREE ENERGY PREDICTED BY IDOCK:   -2.18 KCAL/MOL
REMARK 923 INTER-LIGAND FREE ENERGY PREDICTED BY IDOCK:   -2.07 KCAL/MOL
REMARK 924 INTRA-LIGAND FREE ENERGY PREDICTED BY IDOCK:   -0.12 KCAL/MOL
REMARK 927      BINDING AFFINITY PREDICTED BY RF-SCORE:    0.00 PKD
ROOT
HETATM    1  C   UNL     1     -10.752   7.745  69.695  1.00  0.00    -0.223 C  
HETATM    2  C   UNL     1     -11.318   6.334  69.664  1.00  0.00    -0.492 C  
ENDROOT
BRANCH   2   3
HETATM    3  C   UNL     1     -10.208   5.286  69.527  1.00  0.00    -0.338 C  
BRANCH   3   4
HETATM    4  C   UNL     1      -9.564   4.950  70.850  1.00  0.00    -0.176 C  
HETATM    5  C   UNL     1      -8.345   5.385  71.198  1.00  0.00    -0.124 C  
HETATM    6  C   UNL     1      -7.783   5.007  72.511  1.00  0.00    -0.097 C  
HETATM    7  N   UNL     1      -8.581   4.224  73.300  1.00  0.00    -0.093 N  
HETATM    8  O   UNL     1      -6.668   5.382  72.854  1.00  0.00    -0.067 OA 
HETATM    9  C   UNL     1      -9.818   3.773  72.946  1.00  0.00    -0.140 C  
HETATM   10  H   UNL     1      -8.225   3.960  74.218  1.00  0.00     0.000 HD 
HETATM   11  S   UNL     1     -10.731   2.822  73.956  1.00  0.00    -0.183 S  
HETATM   12  N   UNL     1     -10.273   4.146  71.712  1.00  0.00    -0.134 NA 
ENDBRANCH   3   4
ENDBRANCH   2   3
TORSDOF 2
ENDMDL
MODEL      222
REMARK 921   NORMALIZED FREE ENERGY PREDICTED BY IDOCK:   -1.83 KCAL/MOL
REMARK 922        TOTAL FREE ENERGY PREDICTED BY IDOCK:   -2.17 KCAL/MOL
REMARK 923 INTER-LIGAND FREE ENERGY PREDICTED BY IDOCK:   -2.06 KCAL/MOL
REMARK 924 INTRA-LIGAND FREE ENERGY PREDICTED BY IDOCK:   -0.11 KCAL/MOL
REMARK 927      BINDING AFFINITY PREDICTED BY RF-SCORE:    0.00 PKD
ROOT
HETATM    1  C   UNL     1     -10.991   7.564  70.046  1.00  0.00    -0.252 C  
HETATM    2  C   UNL     1     -11.239   6.177  69.473  1.00  0.00    -0.482 C  
ENDROOT
BRANCH   2   3
HETATM    3  C   UNL     1      -9.926   5.473  69.113  1.00  0.00    -0.256 C  
BRANCH   3   4
HETATM    4  C   UNL     1      -9.603   5.570  67.642  1.00  0.00    -0.123 C  
HETATM    5  C   UNL     1      -8.943   6.607  67.108  1.00  0.00    -0.118 C  
HETATM    6  C   UNL     1      -8.671   6.628  65.656  1.00  0.00    -0.082 C  
HETATM    7  N   UNL     1      -9.119   5.548  64.948  1.00  0.00    -0.361 N  
HETATM    8  O   UNL     1      -8.077   7.567  65.138  1.00  0.00    -0.122 OA 
HETATM    9  C   UNL     1      -9.798   4.495  65.486  1.00  0.00    -0.208 C  
HETATM   10  H   UNL     1      -8.932   5.528  63.945  1.00  0.00     0.000 HD 
HETATM   11  S   UNL     1     -10.315   3.215  64.562  1.00  0.00     0.154 S  
HETATM   12  N   UNL     1     -10.031   4.544  66.832  1.00  0.00    -0.212 NA 
ENDBRANCH   3   4
ENDBRANCH   2   3
TORSDOF 2
ENDMDL
MODEL      223
REMARK 921   NORMALIZED FREE ENERGY PREDICTED BY IDOCK:   -1.82 KCAL/MOL
REMARK 922        TOTAL FREE ENERGY PREDICTED BY IDOCK:   -2.16 KCAL/MOL
REMARK 923 INTER-LIGAND FREE ENERGY PREDICTED BY IDOCK:   -2.11 KCAL/MOL
REMARK 924 INTRA-LIGAND FREE ENERGY PREDICTED BY IDOCK:   -0.05 KCAL/MOL
REMARK 927      BINDING AFFINITY PREDICTED BY RF-SCORE:    0.00 PKD
ROOT
HETATM    1  C   UNL     1      -8.896  10.017  69.159  1.00  0.00    -0.171 C  
HETATM    2  C   UNL     1     -10.265   9.514  68.728  1.00  0.00    -0.215 C  
ENDROOT
BRANCH   2   3
HETATM    3  C   UNL     1     -10.550   8.114  69.282  1.00  0.00    -0.191 C  
BRANCH   3   4
HETATM    4  C   UNL     1     -10.070   7.019  68.361  1.00  0.00    -0.164 C  
HETATM    5  C   UNL     1     -10.871   6.405  67.480  1.00  0.00    -0.438 C  
HETATM    6  C   UNL     1     -10.324   5.338  66.616  1.00  0.00    -0.283 C  
HETATM    7  N   UNL     1      -8.996   5.058  66.781  1.00  0.00    -0.113 N  
HETATM    8  O   UNL     1     -11.035   4.753  65.807  1.00  0.00    -0.255 OA 
HETATM    9  C   UNL     1      -8.179   5.675  67.682  1.00  0.00    -0.101 C  
HETATM   10  H   UNL     1      -8.586   4.336  66.188  1.00  0.00     0.000 HD 
HETATM   11  S   UNL     1      -6.572   5.280  67.830  1.00  0.00    -0.055 S  
HETATM   12  N   UNL     1      -8.751   6.642  68.461  1.00  0.00    -0.124 NA 
ENDBRANCH   3   4
ENDBRANCH   2   3
TORSDOF 2
ENDMDL
MODEL      224
REMARK 921   NORMALIZED FREE ENERGY PREDICTED BY IDOCK:   -1.82 KCAL/MOL
REMARK 922        TOTAL FREE ENERGY PREDICTED BY IDOCK:   -2.16 KCAL/MOL
REMARK 923 INTER-LIGAND FREE ENERGY PREDICTED BY IDOCK:   -2.06 KCAL/MOL
REMARK 924 INTRA-LIGAND FREE ENERGY PREDICTED BY IDOCK:   -0.10 KCAL/MOL
REMARK 927      BINDING AFFINITY PREDICTED BY RF-SCORE:    0.00 PKD
ROOT
HETATM    1  C   UNL     1      -5.603  10.044  67.889  1.00  0.00    -0.038 C  
HETATM    2  C   UNL     1      -6.261  10.237  69.246  1.00  0.00    -0.045 C  
ENDROOT
BRANCH   2   3
HETATM    3  C   UNL     1      -7.475   9.318  69.419  1.00  0.00    -0.078 C  
BRANCH   3   4
HETATM    4  C   UNL     1      -8.769  10.086  69.530  1.00  0.00    -0.192 C  
HETATM    5  C   UNL     1      -9.828   9.635  70.217  1.00  0.00    -0.321 C  
HETATM    6  C   UNL     1     -11.062  10.445  70.272  1.00  0.00    -0.307 C  
HETATM    7  N   UNL     1     -11.023  11.638  69.605  1.00  0.00    -0.466 N  
HETATM    8  O   UNL     1     -12.048  10.054  70.886  1.00  0.00    -0.307 OA 
HETATM    9  C   UNL     1      -9.951  12.098  68.899  1.00  0.00     0.043 C  
HETATM   10  H   UNL     1     -11.856  12.227  69.639  1.00  0.00     0.000 HD 
HETATM   11  S   UNL     1      -9.977  13.559  68.109  1.00  0.00    -0.243 S  
HETATM   12  N   UNL     1      -8.847  11.293  68.874  1.00  0.00    -0.103 NA 
ENDBRANCH   3   4
ENDBRANCH   2   3
TORSDOF 2
ENDMDL
MODEL      225
REMARK 921   NORMALIZED FREE ENERGY PREDICTED BY IDOCK:   -1.81 KCAL/MOL
REMARK 922        TOTAL FREE ENERGY PREDICTED BY IDOCK:   -2.14 KCAL/MOL
REMARK 923 INTER-LIGAND FREE ENERGY PREDICTED BY IDOCK:   -2.18 KCAL/MOL
REMARK 924 INTRA-LIGAND FREE ENERGY PREDICTED BY IDOCK:    0.03 KCAL/MOL
REMARK 927      BINDING AFFINITY PREDICTED BY RF-SCORE:    0.00 PKD
ROOT
HETATM    1  C   UNL     1     -10.426   5.186  66.768  1.00  0.00    -0.306 C  
HETATM    2  C   UNL     1     -10.566   6.498  67.523  1.00  0.00    -0.345 C  
ENDROOT
BRANCH   2   3
HETATM    3  C   UNL     1     -11.277   6.302  68.866  1.00  0.00    -0.387 C  
BRANCH   3   4
HETATM    4  C   UNL     1     -10.311   6.136  70.013  1.00  0.00    -0.209 C  
HETATM    5  C   UNL     1     -10.328   6.920  71.100  1.00  0.00    -0.222 C  
HETATM    6  C   UNL     1      -9.343   6.696  72.178  1.00  0.00    -0.141 C  
HETATM    7  N   UNL     1      -8.467   5.664  71.981  1.00  0.00    -0.126 N  
HETATM    8  O   UNL     1      -9.329   7.402  73.179  1.00  0.00    -0.155 OA 
HETATM    9  C   UNL     1      -8.441   4.869  70.873  1.00  0.00    -0.111 C  
HETATM   10  H   UNL     1      -7.785   5.475  72.715  1.00  0.00     0.000 HD 
HETATM   11  S   UNL     1      -7.344   3.634  70.701  1.00  0.00    -0.041 S  
HETATM   12  N   UNL     1      -9.368   5.140  69.907  1.00  0.00    -0.135 NA 
ENDBRANCH   3   4
ENDBRANCH   2   3
TORSDOF 2
ENDMDL
MODEL      226
REMARK 921   NORMALIZED FREE ENERGY PREDICTED BY IDOCK:   -1.81 KCAL/MOL
REMARK 922        TOTAL FREE ENERGY PREDICTED BY IDOCK:   -2.14 KCAL/MOL
REMARK 923 INTER-LIGAND FREE ENERGY PREDICTED BY IDOCK:   -2.00 KCAL/MOL
REMARK 924 INTRA-LIGAND FREE ENERGY PREDICTED BY IDOCK:   -0.14 KCAL/MOL
REMARK 927      BINDING AFFINITY PREDICTED BY RF-SCORE:    0.00 PKD
ROOT
HETATM    1  C   UNL     1      -9.471   4.881  65.313  1.00  0.00    -0.106 C  
HETATM    2  C   UNL     1     -10.529   5.099  66.383  1.00  0.00    -0.356 C  
ENDROOT
BRANCH   2   3
HETATM    3  C   UNL     1      -9.923   5.691  67.661  1.00  0.00    -0.177 C  
BRANCH   3   4
HETATM    4  C   UNL     1      -9.526   7.137  67.496  1.00  0.00    -0.124 C  
HETATM    5  C   UNL     1     -10.403   8.104  67.191  1.00  0.00    -0.391 C  
HETATM    6  C   UNL     1      -9.932   9.496  67.042  1.00  0.00    -0.213 C  
HETATM    7  N   UNL     1      -8.595   9.700  67.243  1.00  0.00    -0.131 N  
HETATM    8  O   UNL     1     -10.709  10.399  66.755  1.00  0.00    -0.231 OA 
HETATM    9  C   UNL     1      -7.698   8.718  67.545  1.00  0.00    -0.101 C  
HETATM   10  H   UNL     1      -8.243  10.653  67.161  1.00  0.00     0.000 HD 
HETATM   11  S   UNL     1      -6.084   9.039  67.773  1.00  0.00    -0.051 S  
HETATM   12  N   UNL     1      -8.195   7.450  67.654  1.00  0.00    -0.117 NA 
ENDBRANCH   3   4
ENDBRANCH   2   3
TORSDOF 2
ENDMDL
MODEL      227
REMARK 921   NORMALIZED FREE ENERGY PREDICTED BY IDOCK:   -1.77 KCAL/MOL
REMARK 922        TOTAL FREE ENERGY PREDICTED BY IDOCK:   -2.11 KCAL/MOL
REMARK 923 INTER-LIGAND FREE ENERGY PREDICTED BY IDOCK:   -2.02 KCAL/MOL
REMARK 924 INTRA-LIGAND FREE ENERGY PREDICTED BY IDOCK:   -0.09 KCAL/MOL
REMARK 927      BINDING AFFINITY PREDICTED BY RF-SCORE:    0.00 PKD
ROOT
HETATM    1  C   UNL     1      -7.166   7.361  64.045  1.00  0.00    -0.081 C  
HETATM    2  C   UNL     1      -8.080   8.453  64.578  1.00  0.00    -0.152 C  
ENDROOT
BRANCH   2   3
HETATM    3  C   UNL     1      -7.579   9.002  65.918  1.00  0.00    -0.094 C  
BRANCH   3   4
HETATM    4  C   UNL     1      -8.673   9.082  66.955  1.00  0.00    -0.123 C  
HETATM    5  C   UNL     1      -9.121  10.242  67.454  1.00  0.00    -0.148 C  
HETATM    6  C   UNL     1     -10.192  10.235  68.470  1.00  0.00    -0.172 C  
HETATM    7  N   UNL     1     -10.668   9.004  68.828  1.00  0.00    -0.384 N  
HETATM    8  O   UNL     1     -10.616  11.280  68.951  1.00  0.00    -0.194 OA 
HETATM    9  C   UNL     1     -10.210   7.820  68.329  1.00  0.00    -0.201 C  
HETATM   10  H   UNL     1     -11.419   8.968  69.517  1.00  0.00     0.000 HD 
HETATM   11  S   UNL     1     -10.835   6.359  68.813  1.00  0.00    -0.331 S  
HETATM   12  N   UNL     1      -9.208   7.896  67.403  1.00  0.00    -0.138 NA 
ENDBRANCH   3   4
ENDBRANCH   2   3
TORSDOF 2
ENDMDL
MODEL      228
REMARK 921   NORMALIZED FREE ENERGY PREDICTED BY IDOCK:   -1.76 KCAL/MOL
REMARK 922        TOTAL FREE ENERGY PREDICTED BY IDOCK:   -2.09 KCAL/MOL
REMARK 923 INTER-LIGAND FREE ENERGY PREDICTED BY IDOCK:   -1.96 KCAL/MOL
REMARK 924 INTRA-LIGAND FREE ENERGY PREDICTED BY IDOCK:   -0.13 KCAL/MOL
REMARK 927      BINDING AFFINITY PREDICTED BY RF-SCORE:    0.00 PKD
ROOT
HETATM    1  C   UNL     1     -11.647  11.431  67.565  1.00  0.00    -0.298 C  
HETATM    2  C   UNL     1     -10.400  11.813  66.783  1.00  0.00    -0.251 C  
ENDROOT
BRANCH   2   3
HETATM    3  C   UNL     1      -9.305  10.748  66.913  1.00  0.00    -0.179 C  
BRANCH   3   4
HETATM    4  C   UNL     1      -8.375  11.013  68.071  1.00  0.00    -0.125 C  
HETATM    5  C   UNL     1      -8.190  10.141  69.071  1.00  0.00    -0.132 C  
HETATM    6  C   UNL     1      -7.265  10.479  70.173  1.00  0.00    -0.012 C  
HETATM    7  N   UNL     1      -6.640  11.691  70.077  1.00  0.00    -0.332 N  
HETATM    8  O   UNL     1      -7.082   9.704  71.105  1.00  0.00    -0.319 OA 
HETATM    9  C   UNL     1      -6.832  12.585  69.066  1.00  0.00    -0.089 C  
HETATM   10  H   UNL     1      -5.984  11.946  70.816  1.00  0.00     0.000 HD 
HETATM   11  S   UNL     1      -6.040  14.044  69.017  1.00  0.00    -0.094 S  
HETATM   12  N   UNL     1      -7.712  12.218  68.087  1.00  0.00    -0.128 NA 
ENDBRANCH   3   4
ENDBRANCH   2   3
TORSDOF 2
ENDMDL
MODEL      229
REMARK 921   NORMALIZED FREE ENERGY PREDICTED BY IDOCK:   -1.75 KCAL/MOL
REMARK 922        TOTAL FREE ENERGY PREDICTED BY IDOCK:   -2.09 KCAL/MOL
REMARK 923 INTER-LIGAND FREE ENERGY PREDICTED BY IDOCK:   -1.97 KCAL/MOL
REMARK 924 INTRA-LIGAND FREE ENERGY PREDICTED BY IDOCK:   -0.12 KCAL/MOL
REMARK 927      BINDING AFFINITY PREDICTED BY RF-SCORE:    0.00 PKD
ROOT
HETATM    1  C   UNL     1      -7.785   7.745  68.879  1.00  0.00    -0.113 C  
HETATM    2  C   UNL     1      -7.398   7.071  70.186  1.00  0.00    -0.081 C  
ENDROOT
BRANCH   2   3
HETATM    3  C   UNL     1      -8.060   5.696  70.328  1.00  0.00    -0.104 C  
BRANCH   3   4
HETATM    4  C   UNL     1      -9.033   5.639  71.480  1.00  0.00    -0.140 C  
HETATM    5  C   UNL     1      -9.508   6.734  72.088  1.00  0.00    -0.145 C  
HETATM    6  C   UNL     1     -10.454   6.593  73.213  1.00  0.00    -0.276 C  
HETATM    7  N   UNL     1     -10.792   5.312  73.552  1.00  0.00    -0.288 N  
HETATM    8  O   UNL     1     -10.899   7.577  73.793  1.00  0.00    -0.316 OA 
HETATM    9  C   UNL     1     -10.305   4.194  72.942  1.00  0.00    -0.173 C  
HETATM   10  H   UNL     1     -11.456   5.183  74.316  1.00  0.00     0.000 HD 
HETATM   11  S   UNL     1     -10.759   2.666  73.410  1.00  0.00    -0.194 S  
HETATM   12  N   UNL     1      -9.421   4.394  71.918  1.00  0.00    -0.137 NA 
ENDBRANCH   3   4
ENDBRANCH   2   3
TORSDOF 2
ENDMDL
MODEL      230
REMARK 921   NORMALIZED FREE ENERGY PREDICTED BY IDOCK:   -1.75 KCAL/MOL
REMARK 922        TOTAL FREE ENERGY PREDICTED BY IDOCK:   -2.08 KCAL/MOL
REMARK 923 INTER-LIGAND FREE ENERGY PREDICTED BY IDOCK:   -1.98 KCAL/MOL
REMARK 924 INTRA-LIGAND FREE ENERGY PREDICTED BY IDOCK:   -0.10 KCAL/MOL
REMARK 927      BINDING AFFINITY PREDICTED BY RF-SCORE:    0.00 PKD
ROOT
HETATM    1  C   UNL     1     -10.952   7.623  69.943  1.00  0.00    -0.208 C  
HETATM    2  C   UNL     1     -10.880   6.245  69.304  1.00  0.00    -0.406 C  
ENDROOT
BRANCH   2   3
HETATM    3  C   UNL     1      -9.444   5.880  68.914  1.00  0.00    -0.146 C  
BRANCH   3   4
HETATM    4  C   UNL     1      -9.182   6.055  67.439  1.00  0.00    -0.109 C  
HETATM    5  C   UNL     1      -9.253   5.045  66.561  1.00  0.00    -0.135 C  
HETATM    6  C   UNL     1      -8.977   5.299  65.132  1.00  0.00    -0.101 C  
HETATM    7  N   UNL     1      -8.672   6.590  64.803  1.00  0.00    -0.340 N  
HETATM    8  O   UNL     1      -9.025   4.393  64.308  1.00  0.00    -0.143 OA 
HETATM    9  C   UNL     1      -8.592   7.620  65.694  1.00  0.00    -0.123 C  
HETATM   10  H   UNL     1      -8.492   6.799  63.821  1.00  0.00     0.000 HD 
HETATM   11  S   UNL     1      -8.212   9.166  65.221  1.00  0.00    -0.142 S  
HETATM   12  N   UNL     1      -8.843   7.315  67.002  1.00  0.00    -0.125 NA 
ENDBRANCH   3   4
ENDBRANCH   2   3
TORSDOF 2
ENDMDL
MODEL      231
REMARK 921   NORMALIZED FREE ENERGY PREDICTED BY IDOCK:   -1.74 KCAL/MOL
REMARK 922        TOTAL FREE ENERGY PREDICTED BY IDOCK:   -2.07 KCAL/MOL
REMARK 923 INTER-LIGAND FREE ENERGY PREDICTED BY IDOCK:   -1.96 KCAL/MOL
REMARK 924 INTRA-LIGAND FREE ENERGY PREDICTED BY IDOCK:   -0.11 KCAL/MOL
REMARK 927      BINDING AFFINITY PREDICTED BY RF-SCORE:    0.00 PKD
ROOT
HETATM    1  C   UNL     1     -10.742   7.724  69.684  1.00  0.00    -0.223 C  
HETATM    2  C   UNL     1     -11.312   6.317  69.601  1.00  0.00    -0.492 C  
ENDROOT
BRANCH   2   3
HETATM    3  C   UNL     1     -10.300   5.271  70.081  1.00  0.00    -0.354 C  
BRANCH   3   4
HETATM    4  C   UNL     1      -9.767   4.422  68.953  1.00  0.00    -0.141 C  
HETATM    5  C   UNL     1      -8.907   3.412  69.145  1.00  0.00    -0.158 C  
HETATM    6  C   UNL     1      -8.428   2.631  67.986  1.00  0.00    -0.083 C  
HETATM    7  N   UNL     1      -8.924   3.005  66.768  1.00  0.00    -0.149 N  
HETATM    8  O   UNL     1      -7.635   1.708  68.129  1.00  0.00    -0.049 OA 
HETATM    9  C   UNL     1      -9.792   4.038  66.567  1.00  0.00    -0.152 C  
HETATM   10  H   UNL     1      -8.622   2.475  65.950  1.00  0.00     0.000 HD 
HETATM   11  S   UNL     1     -10.351   4.437  65.055  1.00  0.00    -0.070 S  
HETATM   12  N   UNL     1     -10.184   4.729  67.679  1.00  0.00    -0.087 NA 
ENDBRANCH   3   4
ENDBRANCH   2   3
TORSDOF 2
ENDMDL
MODEL      232
REMARK 921   NORMALIZED FREE ENERGY PREDICTED BY IDOCK:   -1.71 KCAL/MOL
REMARK 922        TOTAL FREE ENERGY PREDICTED BY IDOCK:   -2.04 KCAL/MOL
REMARK 923 INTER-LIGAND FREE ENERGY PREDICTED BY IDOCK:   -1.96 KCAL/MOL
REMARK 924 INTRA-LIGAND FREE ENERGY PREDICTED BY IDOCK:   -0.09 KCAL/MOL
REMARK 927      BINDING AFFINITY PREDICTED BY RF-SCORE:    0.00 PKD
ROOT
HETATM    1  C   UNL     1      -9.729   7.745  71.444  1.00  0.00    -0.194 C  
HETATM    2  C   UNL     1     -10.872   7.429  72.396  1.00  0.00    -0.305 C  
ENDROOT
BRANCH   2   3
HETATM    3  C   UNL     1     -10.355   6.960  73.760  1.00  0.00    -0.409 C  
BRANCH   3   4
HETATM    4  C   UNL     1      -9.813   5.552  73.719  1.00  0.00    -0.171 C  
HETATM    5  C   UNL     1      -8.502   5.276  73.726  1.00  0.00    -0.111 C  
HETATM    6  C   UNL     1      -8.052   3.869  73.679  1.00  0.00    -0.088 C  
HETATM    7  N   UNL     1      -9.042   2.926  73.641  1.00  0.00    -0.081 N  
HETATM    8  O   UNL     1      -6.860   3.586  73.675  1.00  0.00    -0.041 OA 
HETATM    9  C   UNL     1     -10.377   3.203  73.626  1.00  0.00    -0.146 C  
HETATM   10  H   UNL     1      -8.762   1.946  73.623  1.00  0.00     0.000 HD 
HETATM   11  S   UNL     1     -11.525   2.004  73.578  1.00  0.00    -0.167 S  
HETATM   12  N   UNL     1     -10.726   4.524  73.656  1.00  0.00    -0.242 NA 
ENDBRANCH   3   4
ENDBRANCH   2   3
TORSDOF 2
ENDMDL
MODEL      233
REMARK 921   NORMALIZED FREE ENERGY PREDICTED BY IDOCK:   -1.71 KCAL/MOL
REMARK 922        TOTAL FREE ENERGY PREDICTED BY IDOCK:   -2.04 KCAL/MOL
REMARK 923 INTER-LIGAND FREE ENERGY PREDICTED BY IDOCK:   -2.37 KCAL/MOL
REMARK 924 INTRA-LIGAND FREE ENERGY PREDICTED BY IDOCK:    0.33 KCAL/MOL
REMARK 927      BINDING AFFINITY PREDICTED BY RF-SCORE:    0.00 PKD
ROOT
HETATM    1  C   UNL     1     -11.898   6.886  72.237  1.00  0.00    -0.274 C  
HETATM    2  C   UNL     1     -11.549   8.362  72.344  1.00  0.00    -0.450 C  
ENDROOT
BRANCH   2   3
HETATM    3  C   UNL     1     -10.807   8.857  71.097  1.00  0.00    -0.352 C  
BRANCH   3   4
HETATM    4  C   UNL     1     -10.299   7.724  70.239  1.00  0.00    -0.215 C  
HETATM    5  C   UNL     1     -10.880   7.367  69.086  1.00  0.00    -0.129 C  
HETATM    6  C   UNL     1     -10.325   6.242  68.306  1.00  0.00    -0.194 C  
HETATM    7  N   UNL     1      -9.217   5.639  68.834  1.00  0.00    -0.117 N  
HETATM    8  O   UNL     1     -10.840   5.887  67.252  1.00  0.00    -0.280 OA 
HETATM    9  C   UNL     1      -8.627   5.994  70.012  1.00  0.00    -0.131 C  
HETATM   10  H   UNL     1      -8.802   4.868  68.310  1.00  0.00     0.000 HD 
HETATM   11  S   UNL     1      -7.282   5.213  70.594  1.00  0.00    -0.069 S  
HETATM   12  N   UNL     1      -9.200   7.032  70.691  1.00  0.00    -0.158 NA 
ENDBRANCH   3   4
ENDBRANCH   2   3
TORSDOF 2
ENDMDL
MODEL      234
REMARK 921   NORMALIZED FREE ENERGY PREDICTED BY IDOCK:   -1.71 KCAL/MOL
REMARK 922        TOTAL FREE ENERGY PREDICTED BY IDOCK:   -2.04 KCAL/MOL
REMARK 923 INTER-LIGAND FREE ENERGY PREDICTED BY IDOCK:   -1.93 KCAL/MOL
REMARK 924 INTRA-LIGAND FREE ENERGY PREDICTED BY IDOCK:   -0.11 KCAL/MOL
REMARK 927      BINDING AFFINITY PREDICTED BY RF-SCORE:    0.00 PKD
ROOT
HETATM    1  C   UNL     1      -9.940   5.387  66.426  1.00  0.00    -0.218 C  
HETATM    2  C   UNL     1      -9.695   6.839  66.804  1.00  0.00    -0.222 C  
ENDROOT
BRANCH   2   3
HETATM    3  C   UNL     1      -8.429   6.993  67.654  1.00  0.00    -0.123 C  
BRANCH   3   4
HETATM    4  C   UNL     1      -8.697   7.680  68.971  1.00  0.00    -0.136 C  
HETATM    5  C   UNL     1      -7.885   7.565  70.031  1.00  0.00    -0.099 C  
HETATM    6  C   UNL     1      -8.221   8.266  71.287  1.00  0.00    -0.125 C  
HETATM    7  N   UNL     1      -9.368   9.010  71.268  1.00  0.00    -0.257 N  
HETATM    8  O   UNL     1      -7.501   8.173  72.275  1.00  0.00    -0.099 OA 
HETATM    9  C   UNL     1     -10.201   9.122  70.194  1.00  0.00    -0.205 C  
HETATM   10  H   UNL     1      -9.618   9.517  72.116  1.00  0.00     0.000 HD 
HETATM   11  S   UNL     1     -11.582  10.044  70.244  1.00  0.00    -0.271 S  
HETATM   12  N   UNL     1      -9.841   8.437  69.068  1.00  0.00    -0.178 NA 
ENDBRANCH   3   4
ENDBRANCH   2   3
TORSDOF 2
ENDMDL
MODEL      235
REMARK 921   NORMALIZED FREE ENERGY PREDICTED BY IDOCK:   -1.69 KCAL/MOL
REMARK 922        TOTAL FREE ENERGY PREDICTED BY IDOCK:   -2.01 KCAL/MOL
REMARK 923 INTER-LIGAND FREE ENERGY PREDICTED BY IDOCK:   -1.91 KCAL/MOL
REMARK 924 INTRA-LIGAND FREE ENERGY PREDICTED BY IDOCK:   -0.10 KCAL/MOL
REMARK 927      BINDING AFFINITY PREDICTED BY RF-SCORE:    0.00 PKD
ROOT
HETATM    1  C   UNL     1      -7.912  14.554  68.798  1.00  0.00    -0.142 C  
HETATM    2  C   UNL     1      -8.595  13.760  67.695  1.00  0.00    -0.187 C  
ENDROOT
BRANCH   2   3
HETATM    3  C   UNL     1      -9.841  13.034  68.214  1.00  0.00    -0.225 C  
BRANCH   3   4
HETATM    4  C   UNL     1      -9.680  11.534  68.208  1.00  0.00    -0.198 C  
HETATM    5  C   UNL     1     -10.439  10.723  67.458  1.00  0.00    -0.260 C  
HETATM    6  C   UNL     1     -10.222   9.262  67.512  1.00  0.00    -0.242 C  
HETATM    7  N   UNL     1      -9.223   8.838  68.344  1.00  0.00    -0.138 N  
HETATM    8  O   UNL     1     -10.906   8.496  66.844  1.00  0.00    -0.190 OA 
HETATM    9  C   UNL     1      -8.454   9.659  69.116  1.00  0.00    -0.143 C  
HETATM   10  H   UNL     1      -9.040   7.836  68.392  1.00  0.00     0.000 HD 
HETATM   11  S   UNL     1      -7.258   9.072  70.107  1.00  0.00    -0.072 S  
HETATM   12  N   UNL     1      -8.717  10.998  69.030  1.00  0.00    -0.114 NA 
ENDBRANCH   3   4
ENDBRANCH   2   3
TORSDOF 2
ENDMDL
MODEL      236
REMARK 921   NORMALIZED FREE ENERGY PREDICTED BY IDOCK:   -1.67 KCAL/MOL
REMARK 922        TOTAL FREE ENERGY PREDICTED BY IDOCK:   -1.99 KCAL/MOL
REMARK 923 INTER-LIGAND FREE ENERGY PREDICTED BY IDOCK:   -1.89 KCAL/MOL
REMARK 924 INTRA-LIGAND FREE ENERGY PREDICTED BY IDOCK:   -0.10 KCAL/MOL
REMARK 927      BINDING AFFINITY PREDICTED BY RF-SCORE:    0.00 PKD
ROOT
HETATM    1  C   UNL     1      -7.551   8.920  70.640  1.00  0.00    -0.101 C  
HETATM    2  C   UNL     1      -9.006   8.963  71.080  1.00  0.00    -0.305 C  
ENDROOT
BRANCH   2   3
HETATM    3  C   UNL     1      -9.148   8.685  72.581  1.00  0.00    -0.126 C  
BRANCH   3   4
HETATM    4  C   UNL     1      -9.340   7.219  72.881  1.00  0.00    -0.154 C  
HETATM    5  C   UNL     1     -10.543   6.630  72.901  1.00  0.00    -0.272 C  
HETATM    6  C   UNL     1     -10.646   5.189  73.209  1.00  0.00    -0.239 C  
HETATM    7  N   UNL     1      -9.465   4.544  73.449  1.00  0.00    -0.118 N  
HETATM    8  O   UNL     1     -11.734   4.626  73.242  1.00  0.00    -0.290 OA 
HETATM    9  C   UNL     1      -8.239   5.141  73.439  1.00  0.00    -0.111 C  
HETATM   10  H   UNL     1      -9.503   3.545  73.650  1.00  0.00     0.000 HD 
HETATM   11  S   UNL     1      -6.843   4.293  73.743  1.00  0.00    -0.061 S  
HETATM   12  N   UNL     1      -8.215   6.479  73.162  1.00  0.00    -0.114 NA 
ENDBRANCH   3   4
ENDBRANCH   2   3
TORSDOF 2
ENDMDL
MODEL      237
REMARK 921   NORMALIZED FREE ENERGY PREDICTED BY IDOCK:   -1.62 KCAL/MOL
REMARK 922        TOTAL FREE ENERGY PREDICTED BY IDOCK:   -1.93 KCAL/MOL
REMARK 923 INTER-LIGAND FREE ENERGY PREDICTED BY IDOCK:   -1.80 KCAL/MOL
REMARK 924 INTRA-LIGAND FREE ENERGY PREDICTED BY IDOCK:   -0.13 KCAL/MOL
REMARK 927      BINDING AFFINITY PREDICTED BY RF-SCORE:    0.00 PKD
ROOT
HETATM    1  C   UNL     1      -6.695   8.417  73.157  1.00  0.00    -0.113 C  
HETATM    2  C   UNL     1      -6.783   7.002  73.707  1.00  0.00    -0.070 C  
ENDROOT
BRANCH   2   3
HETATM    3  C   UNL     1      -7.053   5.982  72.595  1.00  0.00    -0.084 C  
BRANCH   3   4
HETATM    4  C   UNL     1      -8.457   6.078  72.052  1.00  0.00    -0.121 C  
HETATM    5  C   UNL     1      -9.539   5.731  72.762  1.00  0.00    -0.159 C  
HETATM    6  C   UNL     1     -10.880   5.850  72.155  1.00  0.00    -0.241 C  
HETATM    7  N   UNL     1     -10.916   6.332  70.875  1.00  0.00    -0.270 N  
HETATM    8  O   UNL     1     -11.887   5.532  72.777  1.00  0.00    -0.271 OA 
HETATM    9  C   UNL     1      -9.817   6.679  70.146  1.00  0.00    -0.166 C  
HETATM   10  H   UNL     1     -11.830   6.439  70.435  1.00  0.00     0.000 HD 
HETATM   11  S   UNL     1      -9.937   7.255  68.593  1.00  0.00    -0.171 S  
HETATM   12  N   UNL     1      -8.606   6.530  70.761  1.00  0.00    -0.134 NA 
ENDBRANCH   3   4
ENDBRANCH   2   3
TORSDOF 2
ENDMDL
MODEL      238
REMARK 921   NORMALIZED FREE ENERGY PREDICTED BY IDOCK:   -1.61 KCAL/MOL
REMARK 922        TOTAL FREE ENERGY PREDICTED BY IDOCK:   -1.93 KCAL/MOL
REMARK 923 INTER-LIGAND FREE ENERGY PREDICTED BY IDOCK:   -1.88 KCAL/MOL
REMARK 924 INTRA-LIGAND FREE ENERGY PREDICTED BY IDOCK:   -0.05 KCAL/MOL
REMARK 927      BINDING AFFINITY PREDICTED BY RF-SCORE:    0.00 PKD
ROOT
HETATM    1  C   UNL     1      -6.521   4.089  68.412  1.00  0.00    -0.037 C  
HETATM    2  C   UNL     1      -6.740   5.467  69.015  1.00  0.00    -0.053 C  
ENDROOT
BRANCH   2   3
HETATM    3  C   UNL     1      -6.522   6.576  67.979  1.00  0.00    -0.053 C  
BRANCH   3   4
HETATM    4  C   UNL     1      -7.818   7.106  67.418  1.00  0.00    -0.112 C  
HETATM    5  C   UNL     1      -8.986   6.463  67.550  1.00  0.00    -0.116 C  
HETATM    6  C   UNL     1     -10.211   7.046  66.966  1.00  0.00    -0.260 C  
HETATM    7  N   UNL     1     -10.055   8.243  66.323  1.00  0.00    -0.466 N  
HETATM    8  O   UNL     1     -11.292   6.477  67.064  1.00  0.00    -0.342 OA 
HETATM    9  C   UNL     1      -8.867   8.897  66.179  1.00  0.00    -0.161 C  
HETATM   10  H   UNL     1     -10.886   8.678  65.923  1.00  0.00     0.000 HD 
HETATM   11  S   UNL     1      -8.752  10.350  65.382  1.00  0.00    -0.186 S  
HETATM   12  N   UNL     1      -7.770   8.296  66.729  1.00  0.00    -0.093 NA 
ENDBRANCH   3   4
ENDBRANCH   2   3
TORSDOF 2
ENDMDL
MODEL      239
REMARK 921   NORMALIZED FREE ENERGY PREDICTED BY IDOCK:   -1.52 KCAL/MOL
REMARK 922        TOTAL FREE ENERGY PREDICTED BY IDOCK:   -1.83 KCAL/MOL
REMARK 923 INTER-LIGAND FREE ENERGY PREDICTED BY IDOCK:   -1.73 KCAL/MOL
REMARK 924 INTRA-LIGAND FREE ENERGY PREDICTED BY IDOCK:   -0.10 KCAL/MOL
REMARK 927      BINDING AFFINITY PREDICTED BY RF-SCORE:    0.00 PKD
ROOT
HETATM    1  C   UNL     1      -7.164   7.376  64.051  1.00  0.00    -0.081 C  
HETATM    2  C   UNL     1      -7.973   8.561  64.554  1.00  0.00    -0.145 C  
ENDROOT
BRANCH   2   3
HETATM    3  C   UNL     1      -7.421   9.099  65.878  1.00  0.00    -0.094 C  
BRANCH   3   4
HETATM    4  C   UNL     1      -8.511   9.414  66.873  1.00  0.00    -0.127 C  
HETATM    5  C   UNL     1      -9.022   8.499  67.708  1.00  0.00    -0.140 C  
HETATM    6  C   UNL     1     -10.092   8.886  68.650  1.00  0.00    -0.188 C  
HETATM    7  N   UNL     1     -10.485  10.195  68.603  1.00  0.00    -0.192 N  
HETATM    8  O   UNL     1     -10.584   8.069  69.420  1.00  0.00    -0.229 OA 
HETATM    9  C   UNL     1      -9.974  11.128  67.749  1.00  0.00    -0.175 C  
HETATM   10  H   UNL     1     -11.212  10.495  69.252  1.00  0.00     0.000 HD 
HETATM   11  S   UNL     1     -10.502  12.702  67.745  1.00  0.00    -0.226 S  
HETATM   12  N   UNL     1      -8.998  10.700  66.893  1.00  0.00    -0.137 NA 
ENDBRANCH   3   4
ENDBRANCH   2   3
TORSDOF 2
ENDMDL
MODEL      240
REMARK 921   NORMALIZED FREE ENERGY PREDICTED BY IDOCK:   -1.49 KCAL/MOL
REMARK 922        TOTAL FREE ENERGY PREDICTED BY IDOCK:   -1.79 KCAL/MOL
REMARK 923 INTER-LIGAND FREE ENERGY PREDICTED BY IDOCK:   -1.69 KCAL/MOL
REMARK 924 INTRA-LIGAND FREE ENERGY PREDICTED BY IDOCK:   -0.10 KCAL/MOL
REMARK 927      BINDING AFFINITY PREDICTED BY RF-SCORE:    0.00 PKD
ROOT
HETATM    1  C   UNL     1      -5.362   2.954  68.318  1.00  0.00    -0.013 C  
HETATM    2  C   UNL     1      -6.671   3.590  68.758  1.00  0.00    -0.045 C  
ENDROOT
BRANCH   2   3
HETATM    3  C   UNL     1      -6.809   5.020  68.224  1.00  0.00    -0.056 C  
BRANCH   3   4
HETATM    4  C   UNL     1      -8.020   5.193  67.341  1.00  0.00    -0.100 C  
HETATM    5  C   UNL     1      -9.104   5.884  67.718  1.00  0.00    -0.109 C  
HETATM    6  C   UNL     1     -10.253   6.002  66.797  1.00  0.00    -0.214 C  
HETATM    7  N   UNL     1     -10.111   5.385  65.585  1.00  0.00    -0.393 N  
HETATM    8  O   UNL     1     -11.261   6.621  67.117  1.00  0.00    -0.392 OA 
HETATM    9  C   UNL     1      -9.013   4.673  65.200  1.00  0.00    -0.150 C  
HETATM   10  H   UNL     1     -10.882   5.461  64.921  1.00  0.00     0.000 HD 
HETATM   11  S   UNL     1      -8.913   3.945  63.710  1.00  0.00    -0.120 S  
HETATM   12  N   UNL     1      -7.993   4.590  66.105  1.00  0.00    -0.099 NA 
ENDBRANCH   3   4
ENDBRANCH   2   3
TORSDOF 2
ENDMDL
MODEL      241
REMARK 921   NORMALIZED FREE ENERGY PREDICTED BY IDOCK:   -1.45 KCAL/MOL
REMARK 922        TOTAL FREE ENERGY PREDICTED BY IDOCK:   -1.75 KCAL/MOL
REMARK 923 INTER-LIGAND FREE ENERGY PREDICTED BY IDOCK:   -1.63 KCAL/MOL
REMARK 924 INTRA-LIGAND FREE ENERGY PREDICTED BY IDOCK:   -0.12 KCAL/MOL
REMARK 927      BINDING AFFINITY PREDICTED BY RF-SCORE:    0.00 PKD
ROOT
HETATM    1  C   UNL     1      -6.212   3.942  69.369  1.00  0.00    -0.028 C  
HETATM    2  C   UNL     1      -7.726   3.863  69.494  1.00  0.00    -0.052 C  
ENDROOT
BRANCH   2   3
HETATM    3  C   UNL     1      -8.402   5.130  68.960  1.00  0.00    -0.087 C  
BRANCH   3   4
HETATM    4  C   UNL     1      -9.097   5.915  70.044  1.00  0.00    -0.144 C  
HETATM    5  C   UNL     1      -9.230   5.464  71.299  1.00  0.00    -0.173 C  
HETATM    6  C   UNL     1      -9.929   6.293  72.303  1.00  0.00    -0.165 C  
HETATM    7  N   UNL     1     -10.392   7.502  71.861  1.00  0.00    -0.191 N  
HETATM    8  O   UNL     1     -10.073   5.903  73.456  1.00  0.00    -0.173 OA 
HETATM    9  C   UNL     1     -10.266   7.961  70.583  1.00  0.00    -0.196 C  
HETATM   10  H   UNL     1     -10.866   8.103  72.535  1.00  0.00     0.000 HD 
HETATM   11  S   UNL     1     -10.857   9.442  70.117  1.00  0.00    -0.263 S  
HETATM   12  N   UNL     1      -9.623   7.139  69.701  1.00  0.00    -0.155 NA 
ENDBRANCH   3   4
ENDBRANCH   2   3
TORSDOF 2
ENDMDL
MODEL      242
REMARK 921   NORMALIZED FREE ENERGY PREDICTED BY IDOCK:   -1.36 KCAL/MOL
REMARK 922        TOTAL FREE ENERGY PREDICTED BY IDOCK:   -1.65 KCAL/MOL
REMARK 923 INTER-LIGAND FREE ENERGY PREDICTED BY IDOCK:   -1.55 KCAL/MOL
REMARK 924 INTRA-LIGAND FREE ENERGY PREDICTED BY IDOCK:   -0.10 KCAL/MOL
REMARK 927      BINDING AFFINITY PREDICTED BY RF-SCORE:    0.00 PKD
ROOT
HETATM    1  C   UNL     1      -6.900   7.163  62.902  1.00  0.00    -0.053 C  
HETATM    2  C   UNL     1      -7.779   6.900  64.115  1.00  0.00    -0.116 C  
ENDROOT
BRANCH   2   3
HETATM    3  C   UNL     1      -7.506   5.518  64.720  1.00  0.00    -0.071 C  
BRANCH   3   4
HETATM    4  C   UNL     1      -8.481   5.164  65.815  1.00  0.00    -0.124 C  
HETATM    5  C   UNL     1      -9.378   6.033  66.301  1.00  0.00    -0.165 C  
HETATM    6  C   UNL     1     -10.295   5.609  67.379  1.00  0.00    -0.230 C  
HETATM    7  N   UNL     1     -10.159   4.317  67.805  1.00  0.00     0.005 N  
HETATM    8  O   UNL     1     -11.120   6.384  67.849  1.00  0.00    -0.322 OA 
HETATM    9  C   UNL     1      -9.242   3.432  67.319  1.00  0.00    -0.193 C  
HETATM   10  H   UNL     1     -10.789   3.991  68.538  1.00  0.00     0.000 HD 
HETATM   11  S   UNL     1      -9.133   1.875  67.887  1.00  0.00    -0.174 S  
HETATM   12  N   UNL     1      -8.414   3.892  66.334  1.00  0.00    -0.108 NA 
ENDBRANCH   3   4
ENDBRANCH   2   3
TORSDOF 2
ENDMDL
MODEL      243
REMARK 921   NORMALIZED FREE ENERGY PREDICTED BY IDOCK:   -1.34 KCAL/MOL
REMARK 922        TOTAL FREE ENERGY PREDICTED BY IDOCK:   -1.62 KCAL/MOL
REMARK 923 INTER-LIGAND FREE ENERGY PREDICTED BY IDOCK:   -1.50 KCAL/MOL
REMARK 924 INTRA-LIGAND FREE ENERGY PREDICTED BY IDOCK:   -0.12 KCAL/MOL
REMARK 927      BINDING AFFINITY PREDICTED BY RF-SCORE:    0.00 PKD
ROOT
HETATM    1  C   UNL     1      -5.333  12.912  68.460  1.00  0.00    -0.061 C  
HETATM    2  C   UNL     1      -6.770  12.930  68.957  1.00  0.00    -0.095 C  
ENDROOT
BRANCH   2   3
HETATM    3  C   UNL     1      -7.767  12.961  67.794  1.00  0.00    -0.151 C  
BRANCH   3   4
HETATM    4  C   UNL     1      -8.270  11.587  67.425  1.00  0.00    -0.149 C  
HETATM    5  C   UNL     1      -9.048  10.855  68.234  1.00  0.00    -0.158 C  
HETATM    6  C   UNL     1      -9.494   9.515  67.801  1.00  0.00    -0.131 C  
HETATM    7  N   UNL     1      -9.072   9.116  66.563  1.00  0.00    -0.148 N  
HETATM    8  O   UNL     1     -10.199   8.819  68.523  1.00  0.00    -0.186 OA 
HETATM    9  C   UNL     1      -8.274   9.854  65.740  1.00  0.00    -0.125 C  
HETATM   10  H   UNL     1      -9.377   8.201  66.231  1.00  0.00     0.000 HD 
HETATM   11  S   UNL     1      -7.798   9.303  64.247  1.00  0.00    -0.133 S  
HETATM   12  N   UNL     1      -7.884  11.078  66.207  1.00  0.00    -0.158 NA 
ENDBRANCH   3   4
ENDBRANCH   2   3
TORSDOF 2
ENDMDL
MODEL      244
REMARK 921   NORMALIZED FREE ENERGY PREDICTED BY IDOCK:   -1.33 KCAL/MOL
REMARK 922        TOTAL FREE ENERGY PREDICTED BY IDOCK:   -1.61 KCAL/MOL
REMARK 923 INTER-LIGAND FREE ENERGY PREDICTED BY IDOCK:   -1.53 KCAL/MOL
REMARK 924 INTRA-LIGAND FREE ENERGY PREDICTED BY IDOCK:   -0.09 KCAL/MOL
REMARK 927      BINDING AFFINITY PREDICTED BY RF-SCORE:    0.00 PKD
ROOT
HETATM    1  C   UNL     1      -6.073   3.970  68.213  1.00  0.00    -0.031 C  
HETATM    2  C   UNL     1      -7.538   4.106  68.597  1.00  0.00    -0.059 C  
ENDROOT
BRANCH   2   3
HETATM    3  C   UNL     1      -8.030   5.549  68.439  1.00  0.00    -0.096 C  
BRANCH   3   4
HETATM    4  C   UNL     1      -8.704   6.069  69.684  1.00  0.00    -0.133 C  
HETATM    5  C   UNL     1     -10.036   6.112  69.828  1.00  0.00    -0.213 C  
HETATM    6  C   UNL     1     -10.619   6.641  71.078  1.00  0.00    -0.226 C  
HETATM    7  N   UNL     1      -9.724   7.050  72.028  1.00  0.00    -0.156 N  
HETATM    8  O   UNL     1     -11.833   6.699  71.235  1.00  0.00    -0.320 OA 
HETATM    9  C   UNL     1      -8.369   7.017  71.883  1.00  0.00    -0.106 C  
HETATM   10  H   UNL     1     -10.097   7.407  72.908  1.00  0.00     0.000 HD 
HETATM   11  S   UNL     1      -7.341   7.535  73.081  1.00  0.00    -0.082 S  
HETATM   12  N   UNL     1      -7.895   6.531  70.697  1.00  0.00    -0.104 NA 
ENDBRANCH   3   4
ENDBRANCH   2   3
TORSDOF 2
ENDMDL
MODEL      245
REMARK 921   NORMALIZED FREE ENERGY PREDICTED BY IDOCK:   -1.32 KCAL/MOL
REMARK 922        TOTAL FREE ENERGY PREDICTED BY IDOCK:   -1.60 KCAL/MOL
REMARK 923 INTER-LIGAND FREE ENERGY PREDICTED BY IDOCK:   -1.46 KCAL/MOL
REMARK 924 INTRA-LIGAND FREE ENERGY PREDICTED BY IDOCK:   -0.14 KCAL/MOL
REMARK 927      BINDING AFFINITY PREDICTED BY RF-SCORE:    0.00 PKD
ROOT
HETATM    1  C   UNL     1      -6.403   4.917  69.657  1.00  0.00    -0.031 C  
HETATM    2  C   UNL     1      -6.013   5.490  71.010  1.00  0.00    -0.028 C  
ENDROOT
BRANCH   2   3
HETATM    3  C   UNL     1      -6.177   7.013  71.046  1.00  0.00    -0.036 C  
BRANCH   3   4
HETATM    4  C   UNL     1      -7.618   7.436  71.189  1.00  0.00    -0.082 C  
HETATM    5  C   UNL     1      -8.148   8.459  70.506  1.00  0.00    -0.107 C  
HETATM    6  C   UNL     1      -9.568   8.814  70.707  1.00  0.00    -0.208 C  
HETATM    7  N   UNL     1     -10.257   8.037  71.597  1.00  0.00    -0.195 N  
HETATM    8  O   UNL     1     -10.079   9.750  70.102  1.00  0.00    -0.238 OA 
HETATM    9  C   UNL     1      -9.719   7.000  72.301  1.00  0.00    -0.153 C  
HETATM   10  H   UNL     1     -11.244   8.249  71.746  1.00  0.00     0.000 HD 
HETATM   11  S   UNL     1     -10.618   6.101  73.370  1.00  0.00    -0.269 S  
HETATM   12  N   UNL     1      -8.397   6.735  72.080  1.00  0.00    -0.112 NA 
ENDBRANCH   3   4
ENDBRANCH   2   3
TORSDOF 2
ENDMDL
MODEL      246
REMARK 921   NORMALIZED FREE ENERGY PREDICTED BY IDOCK:   -1.26 KCAL/MOL
REMARK 922        TOTAL FREE ENERGY PREDICTED BY IDOCK:   -1.54 KCAL/MOL
REMARK 923 INTER-LIGAND FREE ENERGY PREDICTED BY IDOCK:   -1.62 KCAL/MOL
REMARK 924 INTRA-LIGAND FREE ENERGY PREDICTED BY IDOCK:    0.08 KCAL/MOL
REMARK 927      BINDING AFFINITY PREDICTED BY RF-SCORE:    0.00 PKD
ROOT
HETATM    1  C   UNL     1      -9.928   6.400  71.922  1.00  0.00    -0.193 C  
HETATM    2  C   UNL     1     -10.548   7.718  71.487  1.00  0.00    -0.247 C  
ENDROOT
BRANCH   2   3
HETATM    3  C   UNL     1     -10.953   7.689  70.009  1.00  0.00    -0.237 C  
BRANCH   3   4
HETATM    4  C   UNL     1      -9.766   7.563  69.086  1.00  0.00    -0.166 C  
HETATM    5  C   UNL     1      -9.296   6.383  68.660  1.00  0.00    -0.124 C  
HETATM    6  C   UNL     1      -8.124   6.345  67.761  1.00  0.00    -0.115 C  
HETATM    7  N   UNL     1      -7.598   7.558  67.414  1.00  0.00    -0.106 N  
HETATM    8  O   UNL     1      -7.667   5.280  67.362  1.00  0.00    -0.094 OA 
HETATM    9  C   UNL     1      -8.068   8.762  67.852  1.00  0.00    -0.107 C  
HETATM   10  H   UNL     1      -6.797   7.565  66.783  1.00  0.00     0.000 HD 
HETATM   11  S   UNL     1      -7.375  10.199  67.390  1.00  0.00    -0.090 S  
HETATM   12  N   UNL     1      -9.144   8.726  68.693  1.00  0.00    -0.141 NA 
ENDBRANCH   3   4
ENDBRANCH   2   3
TORSDOF 2
ENDMDL
MODEL      247
REMARK 921   NORMALIZED FREE ENERGY PREDICTED BY IDOCK:   -1.20 KCAL/MOL
REMARK 922        TOTAL FREE ENERGY PREDICTED BY IDOCK:   -1.47 KCAL/MOL
REMARK 923 INTER-LIGAND FREE ENERGY PREDICTED BY IDOCK:   -1.34 KCAL/MOL
REMARK 924 INTRA-LIGAND FREE ENERGY PREDICTED BY IDOCK:   -0.13 KCAL/MOL
REMARK 927      BINDING AFFINITY PREDICTED BY RF-SCORE:    0.00 PKD
ROOT
HETATM    1  C   UNL     1      -5.480  10.718  67.191  1.00  0.00    -0.044 C  
HETATM    2  C   UNL     1      -6.176  10.602  65.845  1.00  0.00    -0.134 C  
ENDROOT
BRANCH   2   3
HETATM    3  C   UNL     1      -7.700  10.549  66.001  1.00  0.00    -0.147 C  
BRANCH   3   4
HETATM    4  C   UNL     1      -8.175   9.248  66.599  1.00  0.00    -0.115 C  
HETATM    5  C   UNL     1      -7.798   8.050  66.131  1.00  0.00    -0.093 C  
HETATM    6  C   UNL     1      -8.312   6.821  66.770  1.00  0.00    -0.115 C  
HETATM    7  N   UNL     1      -9.153   7.007  67.832  1.00  0.00    -0.128 N  
HETATM    8  O   UNL     1      -7.991   5.713  66.358  1.00  0.00    -0.100 OA 
HETATM    9  C   UNL     1      -9.546   8.224  68.306  1.00  0.00    -0.147 C  
HETATM   10  H   UNL     1      -9.513   6.177  68.302  1.00  0.00     0.000 HD 
HETATM   11  S   UNL     1     -10.575   8.374  69.602  1.00  0.00    -0.194 S  
HETATM   12  N   UNL     1      -9.046   9.320  67.661  1.00  0.00    -0.125 NA 
ENDBRANCH   3   4
ENDBRANCH   2   3
TORSDOF 2
ENDMDL
MODEL      248
REMARK 921   NORMALIZED FREE ENERGY PREDICTED BY IDOCK:   -1.12 KCAL/MOL
REMARK 922        TOTAL FREE ENERGY PREDICTED BY IDOCK:   -1.38 KCAL/MOL
REMARK 923 INTER-LIGAND FREE ENERGY PREDICTED BY IDOCK:   -1.27 KCAL/MOL
REMARK 924 INTRA-LIGAND FREE ENERGY PREDICTED BY IDOCK:   -0.11 KCAL/MOL
REMARK 927      BINDING AFFINITY PREDICTED BY RF-SCORE:    0.00 PKD
ROOT
HETATM    1  C   UNL     1      -6.418   7.949  64.247  1.00  0.00    -0.057 C  
HETATM    2  C   UNL     1      -7.479   8.275  65.287  1.00  0.00    -0.083 C  
ENDROOT
BRANCH   2   3
HETATM    3  C   UNL     1      -6.989   7.966  66.706  1.00  0.00    -0.073 C  
BRANCH   3   4
HETATM    4  C   UNL     1      -7.666   6.755  67.300  1.00  0.00    -0.109 C  
HETATM    5  C   UNL     1      -7.140   5.524  67.241  1.00  0.00    -0.074 C  
HETATM    6  C   UNL     1      -7.869   4.389  67.843  1.00  0.00    -0.080 C  
HETATM    7  N   UNL     1      -9.059   4.695  68.443  1.00  0.00    -0.114 N  
HETATM    8  O   UNL     1      -7.417   3.251  67.798  1.00  0.00    -0.057 OA 
HETATM    9  C   UNL     1      -9.603   5.944  68.498  1.00  0.00    -0.123 C  
HETATM   10  H   UNL     1      -9.578   3.933  68.881  1.00  0.00     0.000 HD 
HETATM   11  S   UNL     1     -11.058   6.241  69.243  1.00  0.00    -0.373 S  
HETATM   12  N   UNL     1      -8.885   6.947  67.908  1.00  0.00    -0.124 NA 
ENDBRANCH   3   4
ENDBRANCH   2   3
TORSDOF 2
ENDMDL
MODEL      249
REMARK 921   NORMALIZED FREE ENERGY PREDICTED BY IDOCK:   -0.89 KCAL/MOL
REMARK 922        TOTAL FREE ENERGY PREDICTED BY IDOCK:   -1.12 KCAL/MOL
REMARK 923 INTER-LIGAND FREE ENERGY PREDICTED BY IDOCK:   -0.98 KCAL/MOL
REMARK 924 INTRA-LIGAND FREE ENERGY PREDICTED BY IDOCK:   -0.13 KCAL/MOL
REMARK 927      BINDING AFFINITY PREDICTED BY RF-SCORE:    0.00 PKD
ROOT
HETATM    1  C   UNL     1      -5.909   8.697  71.847  1.00  0.00    -0.056 C  
HETATM    2  C   UNL     1      -6.522   7.318  72.039  1.00  0.00    -0.043 C  
ENDROOT
BRANCH   2   3
HETATM    3  C   UNL     1      -6.172   6.380  70.879  1.00  0.00    -0.039 C  
BRANCH   3   4
HETATM    4  C   UNL     1      -7.155   6.479  69.739  1.00  0.00    -0.072 C  
HETATM    5  C   UNL     1      -8.483   6.434  69.916  1.00  0.00    -0.131 C  
HETATM    6  C   UNL     1      -9.379   6.532  68.747  1.00  0.00    -0.130 C  
HETATM    7  N   UNL     1      -8.765   6.677  67.533  1.00  0.00    -0.119 N  
HETATM    8  O   UNL     1     -10.597   6.485  68.877  1.00  0.00    -0.197 OA 
HETATM    9  C   UNL     1      -7.414   6.715  67.348  1.00  0.00    -0.096 C  
HETATM   10  H   UNL     1      -9.359   6.762  66.709  1.00  0.00     0.000 HD 
HETATM   11  S   UNL     1      -6.737   6.890  65.841  1.00  0.00    -0.053 S  
HETATM   12  N   UNL     1      -6.642   6.603  68.469  1.00  0.00    -0.049 NA 
ENDBRANCH   3   4
ENDBRANCH   2   3
TORSDOF 2
ENDMDL
MODEL      250
REMARK 921   NORMALIZED FREE ENERGY PREDICTED BY IDOCK:   -0.48 KCAL/MOL
REMARK 922        TOTAL FREE ENERGY PREDICTED BY IDOCK:   -0.66 KCAL/MOL
REMARK 923 INTER-LIGAND FREE ENERGY PREDICTED BY IDOCK:   -0.58 KCAL/MOL
REMARK 924 INTRA-LIGAND FREE ENERGY PREDICTED BY IDOCK:   -0.08 KCAL/MOL
REMARK 927      BINDING AFFINITY PREDICTED BY RF-SCORE:    0.00 PKD
ROOT
HETATM    1  C   UNL     1      -6.402   8.561  74.220  1.00  0.00    -0.151 C  
HETATM    2  C   UNL     1      -6.858   7.692  73.059  1.00  0.00    -0.077 C  
ENDROOT
BRANCH   2   3
HETATM    3  C   UNL     1      -5.668   7.123  72.279  1.00  0.00    -0.037 C  
BRANCH   3   4
HETATM    4  C   UNL     1      -6.071   6.021  71.331  1.00  0.00    -0.039 C  
HETATM    5  C   UNL     1      -5.530   5.873  70.114  1.00  0.00    -0.012 C  
HETATM    6  C   UNL     1      -5.985   4.770  69.242  1.00  0.00    -0.018 C  
HETATM    7  N   UNL     1      -6.947   3.952  69.767  1.00  0.00    -0.041 N  
HETATM    8  O   UNL     1      -5.514   4.614  68.121  1.00  0.00    -0.014 OA 
HETATM    9  C   UNL     1      -7.506   4.104  71.001  1.00  0.00    -0.047 C  
HETATM   10  H   UNL     1      -7.270   3.172  69.194  1.00  0.00     0.000 HD 
HETATM   11  S   UNL     1      -8.675   3.071  71.573  1.00  0.00    -0.077 S  
HETATM   12  N   UNL     1      -7.052   5.153  71.751  1.00  0.00    -0.071 NA 
ENDBRANCH   3   4
ENDBRANCH   2   3
TORSDOF 2
ENDMDL
MODEL      251
REMARK 921   NORMALIZED FREE ENERGY PREDICTED BY IDOCK:   -0.46 KCAL/MOL
REMARK 922        TOTAL FREE ENERGY PREDICTED BY IDOCK:   -0.64 KCAL/MOL
REMARK 923 INTER-LIGAND FREE ENERGY PREDICTED BY IDOCK:   -0.56 KCAL/MOL
REMARK 924 INTRA-LIGAND FREE ENERGY PREDICTED BY IDOCK:   -0.08 KCAL/MOL
REMARK 927      BINDING AFFINITY PREDICTED BY RF-SCORE:    0.00 PKD
ROOT
HETATM    1  C   UNL     1      -6.407   8.560  74.220  1.00  0.00    -0.151 C  
HETATM    2  C   UNL     1      -6.894   7.700  73.065  1.00  0.00    -0.077 C  
ENDROOT
BRANCH   2   3
HETATM    3  C   UNL     1      -5.725   7.118  72.264  1.00  0.00    -0.037 C  
BRANCH   3   4
HETATM    4  C   UNL     1      -6.159   6.024  71.319  1.00  0.00    -0.035 C  
HETATM    5  C   UNL     1      -6.618   4.838  71.739  1.00  0.00    -0.031 C  
HETATM    6  C   UNL     1      -7.019   3.818  70.748  1.00  0.00    -0.033 C  
HETATM    7  N   UNL     1      -6.896   4.179  69.435  1.00  0.00    -0.044 N  
HETATM    8  O   UNL     1      -7.435   2.720  71.103  1.00  0.00    -0.033 OA 
HETATM    9  C   UNL     1      -6.421   5.382  69.003  1.00  0.00    -0.042 C  
HETATM   10  H   UNL     1      -7.179   3.500  68.728  1.00  0.00     0.000 HD 
HETATM   11  S   UNL     1      -6.296   5.752  67.388  1.00  0.00    -0.043 S  
HETATM   12  N   UNL     1      -6.053   6.275  69.970  1.00  0.00    -0.029 NA 
ENDBRANCH   3   4
ENDBRANCH   2   3
TORSDOF 2
ENDMDL
MODEL      252
REMARK 921   NORMALIZED FREE ENERGY PREDICTED BY IDOCK:    2.64 KCAL/MOL
REMARK 922        TOTAL FREE ENERGY PREDICTED BY IDOCK:    2.82 KCAL/MOL
REMARK 923 INTER-LIGAND FREE ENERGY PREDICTED BY IDOCK:    2.90 KCAL/MOL
REMARK 924 INTRA-LIGAND FREE ENERGY PREDICTED BY IDOCK:   -0.07 KCAL/MOL
REMARK 927      BINDING AFFINITY PREDICTED BY RF-SCORE:    0.00 PKD
ROOT
HETATM    1  C   UNL     1      -6.140  10.730  73.911  1.00  0.00     1.981 C  
HETATM    2  C   UNL     1      -6.507   9.963  72.650  1.00  0.00     1.264 C  
ENDROOT
BRANCH   2   3
HETATM    3  C   UNL     1      -5.259   9.505  71.886  1.00  0.00    -0.076 C  
BRANCH   3   4
HETATM    4  C   UNL     1      -5.573   8.468  70.836  1.00  0.00    -0.032 C  
HETATM    5  C   UNL     1      -5.281   7.169  70.986  1.00  0.00    -0.027 C  
HETATM    6  C   UNL     1      -5.616   6.216  69.907  1.00  0.00    -0.013 C  
HETATM    7  N   UNL     1      -6.228   6.751  68.807  1.00  0.00    -0.026 N  
HETATM    8  O   UNL     1      -5.354   5.024  70.012  1.00  0.00    -0.003 OA 
HETATM    9  C   UNL     1      -6.519   8.073  68.647  1.00  0.00    -0.053 C  
HETATM   10  H   UNL     1      -6.485   6.115  68.052  1.00  0.00     0.000 HD 
HETATM   11  S   UNL     1      -7.263   8.652  67.280  1.00  0.00    -0.081 S  
HETATM   12  N   UNL     1      -6.169   8.903  69.675  1.00  0.00    -0.039 NA 
ENDBRANCH   3   4
ENDBRANCH   2   3
TORSDOF 2
ENDMDL
