MODEL        1
REMARK 921   NORMALIZED FREE ENERGY PREDICTED BY IDOCK:   -5.27 KCAL/MOL
REMARK 922        TOTAL FREE ENERGY PREDICTED BY IDOCK:   -7.12 KCAL/MOL
REMARK 923 INTER-LIGAND FREE ENERGY PREDICTED BY IDOCK:   -6.81 KCAL/MOL
REMARK 924 INTRA-LIGAND FREE ENERGY PREDICTED BY IDOCK:   -0.31 KCAL/MOL
REMARK 927      BINDING AFFINITY PREDICTED BY RF-SCORE:    0.00 PKD
ROOT
HETATM    1  C   UNL     1     -12.488  15.768  74.248  1.00  0.00    -0.800 C  
HETATM    2  C   UNL     1     -13.157  15.604  72.890  1.00  0.00    -0.621 C  
ENDROOT
BRANCH   2   3
HETATM    3  C   UNL     1     -12.250  16.137  71.788  1.00  0.00    -0.404 C  
BRANCH   3   4
HETATM    4  O   UNL     1     -12.562  15.552  70.516  1.00  0.00    -0.418 OA 
BRANCH   4   5
HETATM    5  C   UNL     1     -11.739  14.541  70.103  1.00  0.00    -0.297 C  
HETATM    6  O   UNL     1     -12.013  13.348  70.133  1.00  0.00    -0.327 OA 
BRANCH   5   7
HETATM    7  C   UNL     1     -10.450  15.113  69.533  1.00  0.00    -0.260 C  
BRANCH   7   8
HETATM    8  N   UNL     1     -10.607  15.568  68.139  1.00  0.00    -0.259 NA 
HETATM    9  C   UNL     1     -10.381  16.893  67.787  1.00  0.00    -0.327 C  
HETATM   10  C   UNL     1     -10.528  17.398  66.551  1.00  0.00    -0.264 C  
HETATM   11  I   UNL     1     -10.166  19.363  66.126  1.00  0.00    -0.461 I  
HETATM   12  C   UNL     1     -10.980  16.460  65.464  1.00  0.00    -0.119 C  
HETATM   13  C   UNL     1     -11.233  15.034  65.860  1.00  0.00    -0.313 C  
HETATM   14  O   UNL     1     -11.133  16.845  64.306  1.00  0.00    -1.135 OA 
HETATM   15  I   UNL     1     -11.868  13.678  64.467  1.00  0.00    -0.487 I  
HETATM   16  C   UNL     1     -11.032  14.697  67.144  1.00  0.00    -0.316 C  
ENDBRANCH   7   8
ENDBRANCH   5   7
ENDBRANCH   4   5
ENDBRANCH   3   4
ENDBRANCH   2   3
TORSDOF 5
ENDMDL
MODEL        2
REMARK 921   NORMALIZED FREE ENERGY PREDICTED BY IDOCK:   -5.25 KCAL/MOL
REMARK 922        TOTAL FREE ENERGY PREDICTED BY IDOCK:   -7.09 KCAL/MOL
REMARK 923 INTER-LIGAND FREE ENERGY PREDICTED BY IDOCK:   -6.77 KCAL/MOL
REMARK 924 INTRA-LIGAND FREE ENERGY PREDICTED BY IDOCK:   -0.32 KCAL/MOL
REMARK 927      BINDING AFFINITY PREDICTED BY RF-SCORE:    0.00 PKD
ROOT
HETATM    1  C   UNL     1     -10.527  11.213  63.390  1.00  0.00    -0.382 C  
HETATM    2  C   UNL     1     -11.910  11.847  63.405  1.00  0.00    -0.512 C  
ENDROOT
BRANCH   2   3
HETATM    3  C   UNL     1     -12.176  12.501  64.756  1.00  0.00    -0.465 C  
BRANCH   3   4
HETATM    4  O   UNL     1     -12.944  13.705  64.620  1.00  0.00    -0.661 OA 
BRANCH   4   5
HETATM    5  C   UNL     1     -12.234  14.842  64.351  1.00  0.00    -0.428 C  
HETATM    6  O   UNL     1     -12.657  15.810  63.730  1.00  0.00    -0.622 OA 
BRANCH   5   7
HETATM    7  C   UNL     1     -10.858  14.767  64.993  1.00  0.00    -0.425 C  
BRANCH   7   8
HETATM    8  N   UNL     1     -10.717  15.699  66.128  1.00  0.00    -0.314 NA 
HETATM    9  C   UNL     1     -10.165  16.962  65.954  1.00  0.00    -0.314 C  
HETATM   10  C   UNL     1      -9.974  17.860  66.933  1.00  0.00    -0.335 C  
HETATM   11  I   UNL     1      -9.159  19.701  66.581  1.00  0.00    -0.511 I  
HETATM   12  C   UNL     1     -10.378  17.467  68.329  1.00  0.00    -0.379 C  
HETATM   13  C   UNL     1     -10.960  16.095  68.505  1.00  0.00    -0.338 C  
HETATM   14  O   UNL     1     -10.239  18.236  69.279  1.00  0.00    -0.275 OA 
HETATM   15  I   UNL     1     -11.527  15.450  70.361  1.00  0.00    -0.484 I  
HETATM   16  C   UNL     1     -11.085  15.324  67.413  1.00  0.00    -0.326 C  
ENDBRANCH   7   8
ENDBRANCH   5   7
ENDBRANCH   4   5
ENDBRANCH   3   4
ENDBRANCH   2   3
TORSDOF 5
ENDMDL
MODEL        3
REMARK 921   NORMALIZED FREE ENERGY PREDICTED BY IDOCK:   -5.23 KCAL/MOL
REMARK 922        TOTAL FREE ENERGY PREDICTED BY IDOCK:   -7.07 KCAL/MOL
REMARK 923 INTER-LIGAND FREE ENERGY PREDICTED BY IDOCK:   -6.88 KCAL/MOL
REMARK 924 INTRA-LIGAND FREE ENERGY PREDICTED BY IDOCK:   -0.19 KCAL/MOL
REMARK 927      BINDING AFFINITY PREDICTED BY RF-SCORE:    0.00 PKD
ROOT
HETATM    1  C   UNL     1     -10.599  11.206  63.739  1.00  0.00    -0.422 C  
HETATM    2  C   UNL     1     -11.928  11.910  63.505  1.00  0.00    -0.567 C  
ENDROOT
BRANCH   2   3
HETATM    3  C   UNL     1     -12.174  12.947  64.595  1.00  0.00    -0.435 C  
BRANCH   3   4
HETATM    4  O   UNL     1     -12.599  14.202  64.045  1.00  0.00    -0.691 OA 
BRANCH   4   5
HETATM    5  C   UNL     1     -11.739  15.252  64.213  1.00  0.00    -0.215 C  
HETATM    6  O   UNL     1     -11.880  16.367  63.725  1.00  0.00    -1.002 OA 
BRANCH   5   7
HETATM    7  C   UNL     1     -10.610  14.861  65.154  1.00  0.00    -0.428 C  
BRANCH   7   8
HETATM    8  N   UNL     1     -10.492  15.781  66.300  1.00  0.00    -0.300 NA 
HETATM    9  C   UNL     1     -10.952  15.420  67.561  1.00  0.00    -0.315 C  
HETATM   10  C   UNL     1     -10.910  16.203  68.650  1.00  0.00    -0.311 C  
HETATM   11  I   UNL     1     -11.606  15.583  70.468  1.00  0.00    -0.511 I  
HETATM   12  C   UNL     1     -10.329  17.584  68.494  1.00  0.00    -0.380 C  
HETATM   13  C   UNL     1      -9.848  17.966  67.125  1.00  0.00    -0.308 C  
HETATM   14  O   UNL     1     -10.251  18.359  69.446  1.00  0.00    -0.173 OA 
HETATM   15  I   UNL     1      -9.058  19.824  66.796  1.00  0.00    -0.523 I  
HETATM   16  C   UNL     1      -9.962  17.056  66.145  1.00  0.00    -0.298 C  
ENDBRANCH   7   8
ENDBRANCH   5   7
ENDBRANCH   4   5
ENDBRANCH   3   4
ENDBRANCH   2   3
TORSDOF 5
ENDMDL
MODEL        4
REMARK 921   NORMALIZED FREE ENERGY PREDICTED BY IDOCK:   -5.09 KCAL/MOL
REMARK 922        TOTAL FREE ENERGY PREDICTED BY IDOCK:   -6.90 KCAL/MOL
REMARK 923 INTER-LIGAND FREE ENERGY PREDICTED BY IDOCK:   -6.57 KCAL/MOL
REMARK 924 INTRA-LIGAND FREE ENERGY PREDICTED BY IDOCK:   -0.33 KCAL/MOL
REMARK 927      BINDING AFFINITY PREDICTED BY RF-SCORE:    0.00 PKD
ROOT
HETATM    1  C   UNL     1     -12.489  15.769  74.247  1.00  0.00    -0.800 C  
HETATM    2  C   UNL     1     -13.167  15.601  72.895  1.00  0.00    -0.630 C  
ENDROOT
BRANCH   2   3
HETATM    3  C   UNL     1     -12.266  16.128  71.784  1.00  0.00    -0.404 C  
BRANCH   3   4
HETATM    4  O   UNL     1     -12.588  15.537  70.517  1.00  0.00    -0.418 OA 
BRANCH   4   5
HETATM    5  C   UNL     1     -11.769  14.524  70.103  1.00  0.00    -0.297 C  
HETATM    6  O   UNL     1     -12.043  13.330  70.145  1.00  0.00    -0.336 OA 
BRANCH   5   7
HETATM    7  C   UNL     1     -10.487  15.090  69.514  1.00  0.00    -0.235 C  
BRANCH   7   8
HETATM    8  N   UNL     1     -10.658  15.531  68.117  1.00  0.00    -0.259 NA 
HETATM    9  C   UNL     1     -10.899  14.615  67.100  1.00  0.00    -0.303 C  
HETATM   10  C   UNL     1     -11.038  14.925  65.801  1.00  0.00    -0.342 C  
HETATM   11  I   UNL     1     -11.397  13.507  64.374  1.00  0.00    -0.350 I  
HETATM   12  C   UNL     1     -10.916  16.374  65.413  1.00  0.00    -0.160 C  
HETATM   13  C   UNL     1     -10.644  17.352  66.519  1.00  0.00    -0.184 C  
HETATM   14  O   UNL     1     -11.037  16.739  64.245  1.00  0.00    -1.106 OA 
HETATM   15  I   UNL     1     -10.441  19.344  66.103  1.00  0.00    -0.404 I  
HETATM   16  C   UNL     1     -10.536  16.870  67.767  1.00  0.00    -0.340 C  
ENDBRANCH   7   8
ENDBRANCH   5   7
ENDBRANCH   4   5
ENDBRANCH   3   4
ENDBRANCH   2   3
TORSDOF 5
ENDMDL
MODEL        5
REMARK 921   NORMALIZED FREE ENERGY PREDICTED BY IDOCK:   -5.05 KCAL/MOL
REMARK 922        TOTAL FREE ENERGY PREDICTED BY IDOCK:   -6.84 KCAL/MOL
REMARK 923 INTER-LIGAND FREE ENERGY PREDICTED BY IDOCK:   -6.69 KCAL/MOL
REMARK 924 INTRA-LIGAND FREE ENERGY PREDICTED BY IDOCK:   -0.15 KCAL/MOL
REMARK 927      BINDING AFFINITY PREDICTED BY RF-SCORE:    0.00 PKD
ROOT
HETATM    1  C   UNL     1     -11.205  11.400  63.624  1.00  0.00    -0.366 C  
HETATM    2  C   UNL     1     -12.475  12.233  63.524  1.00  0.00    -0.642 C  
ENDROOT
BRANCH   2   3
HETATM    3  C   UNL     1     -12.529  13.250  64.658  1.00  0.00    -0.349 C  
BRANCH   3   4
HETATM    4  O   UNL     1     -12.769  14.577  64.167  1.00  0.00    -0.711 OA 
BRANCH   4   5
HETATM    5  C   UNL     1     -11.741  15.466  64.315  1.00  0.00    -0.206 C  
HETATM    6  O   UNL     1     -11.709  16.597  63.845  1.00  0.00    -1.153 OA 
BRANCH   5   7
HETATM    7  C   UNL     1     -10.661  14.876  65.208  1.00  0.00    -0.401 C  
BRANCH   7   8
HETATM    8  N   UNL     1     -10.736  15.386  66.591  1.00  0.00    -0.308 NA 
HETATM    9  C   UNL     1     -11.345  14.646  67.597  1.00  0.00    -0.336 C  
HETATM   10  C   UNL     1     -11.483  15.045  68.871  1.00  0.00    -0.314 C  
HETATM   11  I   UNL     1     -12.391  13.884  70.285  1.00  0.00    -0.274 I  
HETATM   12  C   UNL     1     -10.944  16.402  69.239  1.00  0.00    -0.322 C  
HETATM   13  C   UNL     1     -10.300  17.196  68.140  1.00  0.00    -0.350 C  
HETATM   14  O   UNL     1     -11.028  16.837  70.386  1.00  0.00    -0.192 OA 
HETATM   15  I   UNL     1      -9.551  19.061  68.524  1.00  0.00    -0.475 I  
HETATM   16  C   UNL     1     -10.243  16.643  66.919  1.00  0.00    -0.291 C  
ENDBRANCH   7   8
ENDBRANCH   5   7
ENDBRANCH   4   5
ENDBRANCH   3   4
ENDBRANCH   2   3
TORSDOF 5
ENDMDL
MODEL        6
REMARK 921   NORMALIZED FREE ENERGY PREDICTED BY IDOCK:   -4.96 KCAL/MOL
REMARK 922        TOTAL FREE ENERGY PREDICTED BY IDOCK:   -6.72 KCAL/MOL
REMARK 923 INTER-LIGAND FREE ENERGY PREDICTED BY IDOCK:   -6.33 KCAL/MOL
REMARK 924 INTRA-LIGAND FREE ENERGY PREDICTED BY IDOCK:   -0.39 KCAL/MOL
REMARK 927      BINDING AFFINITY PREDICTED BY RF-SCORE:    0.00 PKD
ROOT
HETATM    1  C   UNL     1     -13.045  10.641  71.736  1.00  0.00    -0.571 C  
HETATM    2  C   UNL     1     -12.795  12.088  71.336  1.00  0.00    -0.391 C  
ENDROOT
BRANCH   2   3
HETATM    3  C   UNL     1     -13.564  13.029  72.255  1.00  0.00    -0.547 C  
BRANCH   3   4
HETATM    4  O   UNL     1     -12.800  14.202  72.570  1.00  0.00    -0.369 OA 
BRANCH   4   5
HETATM    5  C   UNL     1     -12.934  15.255  71.708  1.00  0.00    -0.394 C  
HETATM    6  O   UNL     1     -13.996  15.679  71.269  1.00  0.00    -0.570 OA 
BRANCH   5   7
HETATM    7  C   UNL     1     -11.576  15.876  71.421  1.00  0.00    -0.464 C  
BRANCH   7   8
HETATM    8  N   UNL     1     -11.275  15.923  69.977  1.00  0.00    -0.324 NA 
HETATM    9  C   UNL     1     -11.443  14.803  69.173  1.00  0.00    -0.299 C  
HETATM   10  C   UNL     1     -11.167  14.748  67.860  1.00  0.00    -0.306 C  
HETATM   11  I   UNL     1     -11.453  13.055  66.754  1.00  0.00    -0.465 I  
HETATM   12  C   UNL     1     -10.626  15.994  67.210  1.00  0.00    -0.313 C  
HETATM   13  C   UNL     1     -10.437  17.193  68.093  1.00  0.00    -0.366 C  
HETATM   14  O   UNL     1     -10.353  16.026  66.011  1.00  0.00    -0.315 OA 
HETATM   15  I   UNL     1      -9.690  18.932  67.317  1.00  0.00    -0.449 I  
HETATM   16  C   UNL     1     -10.769  17.074  69.388  1.00  0.00    -0.184 C  
ENDBRANCH   7   8
ENDBRANCH   5   7
ENDBRANCH   4   5
ENDBRANCH   3   4
ENDBRANCH   2   3
TORSDOF 5
ENDMDL
MODEL        7
REMARK 921   NORMALIZED FREE ENERGY PREDICTED BY IDOCK:   -4.96 KCAL/MOL
REMARK 922        TOTAL FREE ENERGY PREDICTED BY IDOCK:   -6.72 KCAL/MOL
REMARK 923 INTER-LIGAND FREE ENERGY PREDICTED BY IDOCK:   -6.40 KCAL/MOL
REMARK 924 INTRA-LIGAND FREE ENERGY PREDICTED BY IDOCK:   -0.32 KCAL/MOL
REMARK 927      BINDING AFFINITY PREDICTED BY RF-SCORE:    0.00 PKD
ROOT
HETATM    1  C   UNL     1     -10.096  19.780  68.632  1.00  0.00    -0.546 C  
HETATM    2  C   UNL     1      -9.736  20.509  67.345  1.00  0.00    -0.587 C  
ENDROOT
BRANCH   2   3
HETATM    3  C   UNL     1     -10.384  19.821  66.150  1.00  0.00    -0.524 C  
BRANCH   3   4
HETATM    4  O   UNL     1     -10.904  18.530  66.500  1.00  0.00    -0.270 OA 
BRANCH   4   5
HETATM    5  C   UNL     1     -10.674  17.527  65.601  1.00  0.00    -0.089 C  
HETATM    6  O   UNL     1     -11.203  17.429  64.500  1.00  0.00    -1.018 OA 
BRANCH   5   7
HETATM    7  C   UNL     1      -9.613  16.577  66.132  1.00  0.00    -0.315 C  
BRANCH   7   8
HETATM    8  N   UNL     1     -10.153  15.234  66.416  1.00  0.00    -0.262 NA 
HETATM    9  C   UNL     1     -10.218  14.262  65.424  1.00  0.00    -0.371 C  
HETATM   10  C   UNL     1     -10.719  13.028  65.587  1.00  0.00    -0.275 C  
HETATM   11  I   UNL     1     -10.768  11.661  64.069  1.00  0.00    -0.540 I  
HETATM   12  C   UNL     1     -11.261  12.669  66.945  1.00  0.00    -0.300 C  
HETATM   13  C   UNL     1     -11.197  13.731  68.004  1.00  0.00    -0.267 C  
HETATM   14  O   UNL     1     -11.733  11.556  67.175  1.00  0.00    -0.567 OA 
HETATM   15  I   UNL     1     -11.921  13.358  69.879  1.00  0.00    -0.207 I  
HETATM   16  C   UNL     1     -10.658  14.915  67.670  1.00  0.00    -0.264 C  
ENDBRANCH   7   8
ENDBRANCH   5   7
ENDBRANCH   4   5
ENDBRANCH   3   4
ENDBRANCH   2   3
TORSDOF 5
ENDMDL
MODEL        8
REMARK 921   NORMALIZED FREE ENERGY PREDICTED BY IDOCK:   -4.95 KCAL/MOL
REMARK 922        TOTAL FREE ENERGY PREDICTED BY IDOCK:   -6.71 KCAL/MOL
REMARK 923 INTER-LIGAND FREE ENERGY PREDICTED BY IDOCK:   -6.42 KCAL/MOL
REMARK 924 INTRA-LIGAND FREE ENERGY PREDICTED BY IDOCK:   -0.30 KCAL/MOL
REMARK 927      BINDING AFFINITY PREDICTED BY RF-SCORE:    0.00 PKD
ROOT
HETATM    1  C   UNL     1      -8.823  20.405  67.093  1.00  0.00    -0.435 C  
HETATM    2  C   UNL     1      -9.736  19.664  68.060  1.00  0.00    -0.501 C  
ENDROOT
BRANCH   2   3
HETATM    3  C   UNL     1     -10.783  18.868  67.291  1.00  0.00    -0.449 C  
BRANCH   3   4
HETATM    4  O   UNL     1     -10.410  18.692  65.917  1.00  0.00    -0.532 OA 
BRANCH   4   5
HETATM    5  C   UNL     1     -10.546  17.427  65.416  1.00  0.00    -0.034 C  
HETATM    6  O   UNL     1     -11.279  17.108  64.488  1.00  0.00    -1.104 OA 
BRANCH   5   7
HETATM    7  C   UNL     1      -9.602  16.474  66.133  1.00  0.00    -0.315 C  
BRANCH   7   8
HETATM    8  N   UNL     1     -10.237  15.176  66.432  1.00  0.00    -0.270 NA 
HETATM    9  C   UNL     1     -10.790  14.918  67.681  1.00  0.00    -0.286 C  
HETATM   10  C   UNL     1     -11.360  13.759  68.047  1.00  0.00    -0.288 C  
HETATM   11  I   UNL     1     -12.153  13.473  69.907  1.00  0.00    -0.231 I  
HETATM   12  C   UNL     1     -11.396  12.649  67.030  1.00  0.00    -0.323 C  
HETATM   13  C   UNL     1     -10.784  12.936  65.690  1.00  0.00    -0.274 C  
HETATM   14  O   UNL     1     -11.905  11.559  67.288  1.00  0.00    -0.609 OA 
HETATM   15  I   UNL     1     -10.762  11.493  64.241  1.00  0.00    -0.418 I  
HETATM   16  C   UNL     1     -10.259  14.155  65.491  1.00  0.00    -0.351 C  
ENDBRANCH   7   8
ENDBRANCH   5   7
ENDBRANCH   4   5
ENDBRANCH   3   4
ENDBRANCH   2   3
TORSDOF 5
ENDMDL
MODEL        9
REMARK 921   NORMALIZED FREE ENERGY PREDICTED BY IDOCK:   -4.92 KCAL/MOL
REMARK 922        TOTAL FREE ENERGY PREDICTED BY IDOCK:   -6.67 KCAL/MOL
REMARK 923 INTER-LIGAND FREE ENERGY PREDICTED BY IDOCK:   -6.27 KCAL/MOL
REMARK 924 INTRA-LIGAND FREE ENERGY PREDICTED BY IDOCK:   -0.41 KCAL/MOL
REMARK 927      BINDING AFFINITY PREDICTED BY RF-SCORE:    0.00 PKD
ROOT
HETATM    1  C   UNL     1     -12.147  12.674  63.480  1.00  0.00    -0.648 C  
HETATM    2  C   UNL     1     -11.469  13.643  64.438  1.00  0.00    -0.410 C  
ENDROOT
BRANCH   2   3
HETATM    3  C   UNL     1     -12.192  13.652  65.779  1.00  0.00    -0.464 C  
BRANCH   3   4
HETATM    4  O   UNL     1     -12.320  12.330  66.321  1.00  0.00    -0.556 OA 
BRANCH   4   5
HETATM    5  C   UNL     1     -11.197  11.808  66.901  1.00  0.00    -0.327 C  
HETATM    6  O   UNL     1     -10.660  10.755  66.582  1.00  0.00    -0.245 OA 
BRANCH   5   7
HETATM    7  C   UNL     1     -10.664  12.759  67.961  1.00  0.00    -0.230 C  
BRANCH   7   8
HETATM    8  N   UNL     1     -11.419  12.670  69.225  1.00  0.00    -0.292 NA 
HETATM    9  C   UNL     1     -11.778  11.439  69.761  1.00  0.00    -0.344 C  
HETATM   10  C   UNL     1     -12.487  11.266  70.888  1.00  0.00    -0.394 C  
HETATM   11  I   UNL     1     -12.964   9.414  71.604  1.00  0.00    -0.546 I  
HETATM   12  C   UNL     1     -12.936  12.501  71.624  1.00  0.00    -0.302 C  
HETATM   13  C   UNL     1     -12.553  13.824  71.028  1.00  0.00    -0.371 C  
HETATM   14  O   UNL     1     -13.586  12.426  72.666  1.00  0.00    -0.289 OA 
HETATM   15  I   UNL     1     -13.126  15.564  71.936  1.00  0.00    -0.521 I  
HETATM   16  C   UNL     1     -11.835  13.814  69.893  1.00  0.00    -0.327 C  
ENDBRANCH   7   8
ENDBRANCH   5   7
ENDBRANCH   4   5
ENDBRANCH   3   4
ENDBRANCH   2   3
TORSDOF 5
ENDMDL
MODEL       10
REMARK 921   NORMALIZED FREE ENERGY PREDICTED BY IDOCK:   -4.89 KCAL/MOL
REMARK 922        TOTAL FREE ENERGY PREDICTED BY IDOCK:   -6.63 KCAL/MOL
REMARK 923 INTER-LIGAND FREE ENERGY PREDICTED BY IDOCK:   -6.39 KCAL/MOL
REMARK 924 INTRA-LIGAND FREE ENERGY PREDICTED BY IDOCK:   -0.24 KCAL/MOL
REMARK 927      BINDING AFFINITY PREDICTED BY RF-SCORE:    0.00 PKD
ROOT
HETATM    1  C   UNL     1      -9.754  20.003  66.848  1.00  0.00    -0.557 C  
HETATM    2  C   UNL     1     -10.717  19.348  65.868  1.00  0.00    -0.501 C  
ENDROOT
BRANCH   2   3
HETATM    3  C   UNL     1     -10.443  17.852  65.780  1.00  0.00    -0.196 C  
BRANCH   3   4
HETATM    4  O   UNL     1     -11.037  17.273  64.609  1.00  0.00    -1.052 OA 
BRANCH   4   5
HETATM    5  C   UNL     1     -11.306  15.934  64.672  1.00  0.00    -0.322 C  
HETATM    6  O   UNL     1     -12.293  15.387  64.195  1.00  0.00    -0.619 OA 
BRANCH   5   7
HETATM    7  C   UNL     1     -10.166  15.202  65.363  1.00  0.00    -0.372 C  
BRANCH   7   8
HETATM    8  N   UNL     1     -10.630  14.400  66.511  1.00  0.00    -0.292 NA 
HETATM    9  C   UNL     1     -11.172  15.006  67.638  1.00  0.00    -0.326 C  
HETATM   10  C   UNL     1     -11.591  14.357  68.735  1.00  0.00    -0.315 C  
HETATM   11  I   UNL     1     -12.381  15.335  70.345  1.00  0.00    -0.397 I  
HETATM   12  C   UNL     1     -11.456  12.857  68.753  1.00  0.00    -0.303 C  
HETATM   13  C   UNL     1     -10.857  12.216  67.535  1.00  0.00    -0.243 C  
HETATM   14  O   UNL     1     -11.822  12.191  69.720  1.00  0.00    -0.314 OA 
HETATM   15  I   UNL     1     -10.611  10.187  67.458  1.00  0.00    -0.303 I  
HETATM   16  C   UNL     1     -10.494  13.017  66.521  1.00  0.00    -0.277 C  
ENDBRANCH   7   8
ENDBRANCH   5   7
ENDBRANCH   4   5
ENDBRANCH   3   4
ENDBRANCH   2   3
TORSDOF 5
ENDMDL
MODEL       11
REMARK 921   NORMALIZED FREE ENERGY PREDICTED BY IDOCK:   -4.87 KCAL/MOL
REMARK 922        TOTAL FREE ENERGY PREDICTED BY IDOCK:   -6.60 KCAL/MOL
REMARK 923 INTER-LIGAND FREE ENERGY PREDICTED BY IDOCK:   -6.21 KCAL/MOL
REMARK 924 INTRA-LIGAND FREE ENERGY PREDICTED BY IDOCK:   -0.39 KCAL/MOL
REMARK 927      BINDING AFFINITY PREDICTED BY RF-SCORE:    0.00 PKD
ROOT
HETATM    1  C   UNL     1     -10.864  14.686  64.832  1.00  0.00    -0.436 C  
HETATM    2  C   UNL     1     -12.189  13.953  64.682  1.00  0.00    -0.449 C  
ENDROOT
BRANCH   2   3
HETATM    3  C   UNL     1     -11.994  12.459  64.908  1.00  0.00    -0.398 C  
BRANCH   3   4
HETATM    4  O   UNL     1     -12.130  12.111  66.293  1.00  0.00    -0.626 OA 
BRANCH   4   5
HETATM    5  C   UNL     1     -11.033  11.546  66.881  1.00  0.00    -0.296 C  
HETATM    6  O   UNL     1     -10.510  10.493  66.537  1.00  0.00    -0.241 OA 
BRANCH   5   7
HETATM    7  C   UNL     1     -10.506  12.446  67.987  1.00  0.00    -0.217 C  
BRANCH   7   8
HETATM    8  N   UNL     1     -11.363  12.420  69.187  1.00  0.00    -0.264 NA 
HETATM    9  C   UNL     1     -11.800  13.598  69.783  1.00  0.00    -0.327 C  
HETATM   10  C   UNL     1     -12.556  13.667  70.890  1.00  0.00    -0.346 C  
HETATM   11  I   UNL     1     -13.157  15.447  71.691  1.00  0.00    -0.604 I  
HETATM   12  C   UNL     1     -12.955  12.370  71.543  1.00  0.00    -0.285 C  
HETATM   13  C   UNL     1     -12.465  11.106  70.897  1.00  0.00    -0.409 C  
HETATM   14  O   UNL     1     -13.650  12.350  72.557  1.00  0.00    -0.399 OA 
HETATM   15  I   UNL     1     -12.933   9.290  71.712  1.00  0.00    -0.564 I  
HETATM   16  C   UNL     1     -11.719  11.220  69.788  1.00  0.00    -0.349 C  
ENDBRANCH   7   8
ENDBRANCH   5   7
ENDBRANCH   4   5
ENDBRANCH   3   4
ENDBRANCH   2   3
TORSDOF 5
ENDMDL
MODEL       12
REMARK 921   NORMALIZED FREE ENERGY PREDICTED BY IDOCK:   -4.86 KCAL/MOL
REMARK 922        TOTAL FREE ENERGY PREDICTED BY IDOCK:   -6.59 KCAL/MOL
REMARK 923 INTER-LIGAND FREE ENERGY PREDICTED BY IDOCK:   -6.21 KCAL/MOL
REMARK 924 INTRA-LIGAND FREE ENERGY PREDICTED BY IDOCK:   -0.38 KCAL/MOL
REMARK 927      BINDING AFFINITY PREDICTED BY RF-SCORE:    0.00 PKD
ROOT
HETATM    1  C   UNL     1      -9.171  10.254  64.359  1.00  0.00    -0.296 C  
HETATM    2  C   UNL     1      -9.944  10.929  63.235  1.00  0.00    -0.399 C  
ENDROOT
BRANCH   2   3
HETATM    3  C   UNL     1     -10.575  12.223  63.732  1.00  0.00    -0.451 C  
BRANCH   3   4
HETATM    4  O   UNL     1     -11.932  12.023  64.153  1.00  0.00    -0.381 OA 
BRANCH   4   5
HETATM    5  C   UNL     1     -12.367  12.821  65.175  1.00  0.00    -0.496 C  
HETATM    6  O   UNL     1     -13.278  13.636  65.098  1.00  0.00    -0.739 OA 
BRANCH   5   7
HETATM    7  C   UNL     1     -11.601  12.505  66.451  1.00  0.00    -0.391 C  
BRANCH   7   8
HETATM    8  N   UNL     1     -11.325  13.712  67.252  1.00  0.00    -0.309 NA 
HETATM    9  C   UNL     1     -11.920  13.901  68.494  1.00  0.00    -0.359 C  
HETATM   10  C   UNL     1     -11.748  14.979  69.275  1.00  0.00    -0.323 C  
HETATM   11  I   UNL     1     -12.662  15.167  71.092  1.00  0.00    -0.592 I  
HETATM   12  C   UNL     1     -10.848  16.073  68.765  1.00  0.00    -0.302 C  
HETATM   13  C   UNL     1     -10.221  15.862  67.417  1.00  0.00    -0.270 C  
HETATM   14  O   UNL     1     -10.636  17.089  69.423  1.00  0.00    -0.335 OA 
HETATM   15  I   UNL     1      -8.995  17.292  66.619  1.00  0.00    -0.284 I  
HETATM   16  C   UNL     1     -10.499  14.719  66.770  1.00  0.00    -0.282 C  
ENDBRANCH   7   8
ENDBRANCH   5   7
ENDBRANCH   4   5
ENDBRANCH   3   4
ENDBRANCH   2   3
TORSDOF 5
ENDMDL
MODEL       13
REMARK 921   NORMALIZED FREE ENERGY PREDICTED BY IDOCK:   -4.85 KCAL/MOL
REMARK 922        TOTAL FREE ENERGY PREDICTED BY IDOCK:   -6.58 KCAL/MOL
REMARK 923 INTER-LIGAND FREE ENERGY PREDICTED BY IDOCK:   -6.17 KCAL/MOL
REMARK 924 INTRA-LIGAND FREE ENERGY PREDICTED BY IDOCK:   -0.41 KCAL/MOL
REMARK 927      BINDING AFFINITY PREDICTED BY RF-SCORE:    0.00 PKD
ROOT
HETATM    1  C   UNL     1     -12.582  15.543  74.139  1.00  0.00    -0.743 C  
HETATM    2  C   UNL     1     -13.075  14.873  72.865  1.00  0.00    -0.586 C  
ENDROOT
BRANCH   2   3
HETATM    3  C   UNL     1     -12.924  15.817  71.679  1.00  0.00    -0.440 C  
BRANCH   3   4
HETATM    4  O   UNL     1     -11.549  16.153  71.442  1.00  0.00    -0.445 OA 
BRANCH   4   5
HETATM    5  C   UNL     1     -11.031  15.750  70.243  1.00  0.00    -0.357 C  
HETATM    6  O   UNL     1      -9.843  15.759  69.946  1.00  0.00    -0.272 OA 
BRANCH   5   7
HETATM    7  C   UNL     1     -12.138  15.220  69.344  1.00  0.00    -0.270 C  
BRANCH   7   8
HETATM    8  N   UNL     1     -11.880  13.839  68.893  1.00  0.00    -0.342 NA 
HETATM    9  C   UNL     1     -11.672  13.550  67.549  1.00  0.00    -0.367 C  
HETATM   10  C   UNL     1     -11.460  12.323  67.049  1.00  0.00    -0.354 C  
HETATM   11  I   UNL     1     -11.156  11.995  65.056  1.00  0.00    -0.329 I  
HETATM   12  C   UNL     1     -11.456  11.168  68.015  1.00  0.00    -0.293 C  
HETATM   13  C   UNL     1     -11.695  11.492  69.461  1.00  0.00    -0.346 C  
HETATM   14  O   UNL     1     -11.264  10.014  67.635  1.00  0.00    -0.248 OA 
HETATM   15  I   UNL     1     -11.730   9.997  70.856  1.00  0.00    -0.470 I  
HETATM   16  C   UNL     1     -11.887  12.779  69.790  1.00  0.00    -0.310 C  
ENDBRANCH   7   8
ENDBRANCH   5   7
ENDBRANCH   4   5
ENDBRANCH   3   4
ENDBRANCH   2   3
TORSDOF 5
ENDMDL
MODEL       14
REMARK 921   NORMALIZED FREE ENERGY PREDICTED BY IDOCK:   -4.82 KCAL/MOL
REMARK 922        TOTAL FREE ENERGY PREDICTED BY IDOCK:   -6.54 KCAL/MOL
REMARK 923 INTER-LIGAND FREE ENERGY PREDICTED BY IDOCK:   -6.09 KCAL/MOL
REMARK 924 INTRA-LIGAND FREE ENERGY PREDICTED BY IDOCK:   -0.46 KCAL/MOL
REMARK 927      BINDING AFFINITY PREDICTED BY RF-SCORE:    0.00 PKD
ROOT
HETATM    1  C   UNL     1     -13.816  14.131  72.404  1.00  0.00    -0.638 C  
HETATM    2  C   UNL     1     -12.881  15.018  73.213  1.00  0.00    -0.647 C  
ENDROOT
BRANCH   2   3
HETATM    3  C   UNL     1     -11.668  15.406  72.376  1.00  0.00    -0.466 C  
BRANCH   3   4
HETATM    4  O   UNL     1     -12.050  16.099  71.179  1.00  0.00    -0.399 OA 
BRANCH   4   5
HETATM    5  C   UNL     1     -11.265  15.879  70.082  1.00  0.00    -0.364 C  
HETATM    6  O   UNL     1     -10.043  15.953  70.060  1.00  0.00    -0.253 OA 
BRANCH   5   7
HETATM    7  C   UNL     1     -12.122  15.460  68.898  1.00  0.00    -0.198 C  
BRANCH   7   8
HETATM    8  N   UNL     1     -11.882  14.060  68.499  1.00  0.00    -0.352 NA 
HETATM    9  C   UNL     1     -11.894  13.034  69.436  1.00  0.00    -0.322 C  
HETATM   10  C   UNL     1     -11.657  11.741  69.166  1.00  0.00    -0.310 C  
HETATM   11  I   UNL     1     -11.702  10.299  70.612  1.00  0.00    -0.453 I  
HETATM   12  C   UNL     1     -11.346  11.372  67.740  1.00  0.00    -0.287 C  
HETATM   13  C   UNL     1     -11.323  12.492  66.739  1.00  0.00    -0.334 C  
HETATM   14  O   UNL     1     -11.123  10.209  67.411  1.00  0.00    -0.283 OA 
HETATM   15  I   UNL     1     -10.893  12.107  64.777  1.00  0.00    -0.416 I  
HETATM   16  C   UNL     1     -11.588  13.731  67.182  1.00  0.00    -0.364 C  
ENDBRANCH   7   8
ENDBRANCH   5   7
ENDBRANCH   4   5
ENDBRANCH   3   4
ENDBRANCH   2   3
TORSDOF 5
ENDMDL
MODEL       15
REMARK 921   NORMALIZED FREE ENERGY PREDICTED BY IDOCK:   -4.82 KCAL/MOL
REMARK 922        TOTAL FREE ENERGY PREDICTED BY IDOCK:   -6.54 KCAL/MOL
REMARK 923 INTER-LIGAND FREE ENERGY PREDICTED BY IDOCK:   -6.47 KCAL/MOL
REMARK 924 INTRA-LIGAND FREE ENERGY PREDICTED BY IDOCK:   -0.07 KCAL/MOL
REMARK 927      BINDING AFFINITY PREDICTED BY RF-SCORE:    0.00 PKD
ROOT
HETATM    1  C   UNL     1     -10.513  18.983  66.405  1.00  0.00    -0.524 C  
HETATM    2  C   UNL     1     -10.378  17.640  67.109  1.00  0.00    -0.343 C  
ENDROOT
BRANCH   2   3
HETATM    3  C   UNL     1      -9.918  16.573  66.123  1.00  0.00    -0.343 C  
BRANCH   3   4
HETATM    4  O   UNL     1     -10.949  15.609  65.867  1.00  0.00    -0.308 OA 
BRANCH   4   5
HETATM    5  C   UNL     1     -11.527  15.665  64.629  1.00  0.00    -0.303 C  
HETATM    6  O   UNL     1     -11.419  16.594  63.838  1.00  0.00    -1.186 OA 
BRANCH   5   7
HETATM    7  C   UNL     1     -12.276  14.373  64.340  1.00  0.00    -0.458 C  
BRANCH   7   8
HETATM    8  N   UNL     1     -11.513  13.179  64.751  1.00  0.00    -0.312 NA 
HETATM    9  C   UNL     1     -10.740  12.472  63.837  1.00  0.00    -0.437 C  
HETATM   10  C   UNL     1     -10.039  11.362  64.117  1.00  0.00    -0.309 C  
HETATM   11  I   UNL     1      -8.923  10.392  62.708  1.00  0.00    -0.400 I  
HETATM   12  C   UNL     1     -10.101  10.836  65.527  1.00  0.00    -0.274 C  
HETATM   13  C   UNL     1     -10.950  11.601  66.500  1.00  0.00    -0.299 C  
HETATM   14  O   UNL     1      -9.483   9.827  65.863  1.00  0.00    -0.188 OA 
HETATM   15  I   UNL     1     -11.121  10.964  68.436  1.00  0.00    -0.393 I  
HETATM   16  C   UNL     1     -11.583  12.696  66.051  1.00  0.00    -0.393 C  
ENDBRANCH   7   8
ENDBRANCH   5   7
ENDBRANCH   4   5
ENDBRANCH   3   4
ENDBRANCH   2   3
TORSDOF 5
ENDMDL
MODEL       16
REMARK 921   NORMALIZED FREE ENERGY PREDICTED BY IDOCK:   -4.79 KCAL/MOL
REMARK 922        TOTAL FREE ENERGY PREDICTED BY IDOCK:   -6.50 KCAL/MOL
REMARK 923 INTER-LIGAND FREE ENERGY PREDICTED BY IDOCK:   -6.42 KCAL/MOL
REMARK 924 INTRA-LIGAND FREE ENERGY PREDICTED BY IDOCK:   -0.08 KCAL/MOL
REMARK 927      BINDING AFFINITY PREDICTED BY RF-SCORE:    0.00 PKD
ROOT
HETATM    1  C   UNL     1     -10.153  10.930  63.564  1.00  0.00    -0.406 C  
HETATM    2  C   UNL     1     -10.852  12.263  63.338  1.00  0.00    -0.457 C  
ENDROOT
BRANCH   2   3
HETATM    3  C   UNL     1     -12.363  12.088  63.428  1.00  0.00    -0.523 C  
BRANCH   3   4
HETATM    4  O   UNL     1     -12.806  12.007  64.790  1.00  0.00    -0.420 OA 
BRANCH   4   5
HETATM    5  C   UNL     1     -12.581  13.113  65.561  1.00  0.00    -0.408 C  
HETATM    6  O   UNL     1     -13.170  14.183  65.453  1.00  0.00    -0.741 OA 
BRANCH   5   7
HETATM    7  C   UNL     1     -11.538  12.810  66.624  1.00  0.00    -0.370 C  
BRANCH   7   8
HETATM    8  N   UNL     1     -11.565  13.785  67.731  1.00  0.00    -0.325 NA 
HETATM    9  C   UNL     1     -10.956  15.029  67.608  1.00  0.00    -0.305 C  
HETATM   10  C   UNL     1     -10.908  15.962  68.571  1.00  0.00    -0.298 C  
HETATM   11  I   UNL     1      -9.994  17.768  68.295  1.00  0.00    -0.417 I  
HETATM   12  C   UNL     1     -11.556  15.636  69.890  1.00  0.00    -0.347 C  
HETATM   13  C   UNL     1     -12.199  14.285  70.015  1.00  0.00    -0.359 C  
HETATM   14  O   UNL     1     -11.559  16.441  70.821  1.00  0.00    -0.334 OA 
HETATM   15  I   UNL     1     -13.092  13.731  71.769  1.00  0.00    -0.428 I  
HETATM   16  C   UNL     1     -12.158  13.473  68.947  1.00  0.00    -0.279 C  
ENDBRANCH   7   8
ENDBRANCH   5   7
ENDBRANCH   4   5
ENDBRANCH   3   4
ENDBRANCH   2   3
TORSDOF 5
ENDMDL
MODEL       17
REMARK 921   NORMALIZED FREE ENERGY PREDICTED BY IDOCK:   -4.78 KCAL/MOL
REMARK 922        TOTAL FREE ENERGY PREDICTED BY IDOCK:   -6.49 KCAL/MOL
REMARK 923 INTER-LIGAND FREE ENERGY PREDICTED BY IDOCK:   -6.02 KCAL/MOL
REMARK 924 INTRA-LIGAND FREE ENERGY PREDICTED BY IDOCK:   -0.47 KCAL/MOL
REMARK 927      BINDING AFFINITY PREDICTED BY RF-SCORE:    0.00 PKD
ROOT
HETATM    1  C   UNL     1     -10.368  10.753  64.200  1.00  0.00    -0.382 C  
HETATM    2  C   UNL     1     -10.866  12.007  63.496  1.00  0.00    -0.509 C  
ENDROOT
BRANCH   2   3
HETATM    3  C   UNL     1     -12.389  12.020  63.458  1.00  0.00    -0.551 C  
BRANCH   3   4
HETATM    4  O   UNL     1     -12.944  12.584  64.655  1.00  0.00    -0.803 OA 
BRANCH   4   5
HETATM    5  C   UNL     1     -12.602  13.880  64.922  1.00  0.00    -0.347 C  
HETATM    6  O   UNL     1     -12.589  14.792  64.104  1.00  0.00    -0.784 OA 
BRANCH   5   7
HETATM    7  C   UNL     1     -12.301  14.050  66.403  1.00  0.00    -0.431 C  
BRANCH   7   8
HETATM    8  N   UNL     1     -10.868  14.286  66.661  1.00  0.00    -0.298 NA 
HETATM    9  C   UNL     1     -10.331  15.567  66.609  1.00  0.00    -0.286 C  
HETATM   10  C   UNL     1      -9.037  15.868  66.801  1.00  0.00    -0.248 C  
HETATM   11  I   UNL     1      -8.338  17.786  66.711  1.00  0.00    -0.301 I  
HETATM   12  C   UNL     1      -8.092  14.732  67.087  1.00  0.00    -0.197 C  
HETATM   13  C   UNL     1      -8.683  13.352  67.128  1.00  0.00    -0.215 C  
HETATM   14  O   UNL     1      -6.893  14.926  67.279  1.00  0.00    -0.254 OA 
HETATM   15  I   UNL     1      -7.486  11.733  67.489  1.00  0.00    -0.162 I  
HETATM   16  C   UNL     1     -10.002  13.231  66.916  1.00  0.00    -0.250 C  
ENDBRANCH   7   8
ENDBRANCH   5   7
ENDBRANCH   4   5
ENDBRANCH   3   4
ENDBRANCH   2   3
TORSDOF 5
ENDMDL
MODEL       18
REMARK 921   NORMALIZED FREE ENERGY PREDICTED BY IDOCK:   -4.78 KCAL/MOL
REMARK 922        TOTAL FREE ENERGY PREDICTED BY IDOCK:   -6.48 KCAL/MOL
REMARK 923 INTER-LIGAND FREE ENERGY PREDICTED BY IDOCK:   -6.15 KCAL/MOL
REMARK 924 INTRA-LIGAND FREE ENERGY PREDICTED BY IDOCK:   -0.34 KCAL/MOL
REMARK 927      BINDING AFFINITY PREDICTED BY RF-SCORE:    0.00 PKD
ROOT
HETATM    1  C   UNL     1      -9.726  20.493  67.295  1.00  0.00    -0.600 C  
HETATM    2  C   UNL     1     -10.467  19.673  66.249  1.00  0.00    -0.621 C  
ENDROOT
BRANCH   2   3
HETATM    3  C   UNL     1     -10.457  18.198  66.630  1.00  0.00    -0.339 C  
BRANCH   3   4
HETATM    4  O   UNL     1     -10.398  17.352  65.473  1.00  0.00    -0.621 OA 
BRANCH   4   5
HETATM    5  C   UNL     1      -9.981  16.069  65.689  1.00  0.00    -0.313 C  
HETATM    6  O   UNL     1      -8.834  15.733  65.959  1.00  0.00    -0.327 OA 
BRANCH   5   7
HETATM    7  C   UNL     1     -11.161  15.113  65.615  1.00  0.00    -0.334 C  
BRANCH   7   8
HETATM    8  N   UNL     1     -11.285  14.280  66.826  1.00  0.00    -0.322 NA 
HETATM    9  C   UNL     1     -10.964  12.928  66.803  1.00  0.00    -0.272 C  
HETATM   10  C   UNL     1     -11.074  12.092  67.848  1.00  0.00    -0.245 C  
HETATM   11  I   UNL     1     -10.571  10.116  67.722  1.00  0.00    -0.330 I  
HETATM   12  C   UNL     1     -11.593  12.659  69.143  1.00  0.00    -0.320 C  
HETATM   13  C   UNL     1     -11.948  14.118  69.150  1.00  0.00    -0.349 C  
HETATM   14  O   UNL     1     -11.718  11.959  70.146  1.00  0.00    -0.314 OA 
HETATM   15  I   UNL     1     -12.681  14.988  70.850  1.00  0.00    -0.509 I  
HETATM   16  C   UNL     1     -11.772  14.810  68.013  1.00  0.00    -0.333 C  
ENDBRANCH   7   8
ENDBRANCH   5   7
ENDBRANCH   4   5
ENDBRANCH   3   4
ENDBRANCH   2   3
TORSDOF 5
ENDMDL
MODEL       19
REMARK 921   NORMALIZED FREE ENERGY PREDICTED BY IDOCK:   -4.76 KCAL/MOL
REMARK 922        TOTAL FREE ENERGY PREDICTED BY IDOCK:   -6.46 KCAL/MOL
REMARK 923 INTER-LIGAND FREE ENERGY PREDICTED BY IDOCK:   -6.09 KCAL/MOL
REMARK 924 INTRA-LIGAND FREE ENERGY PREDICTED BY IDOCK:   -0.37 KCAL/MOL
REMARK 927      BINDING AFFINITY PREDICTED BY RF-SCORE:    0.00 PKD
ROOT
HETATM    1  C   UNL     1     -12.384  11.859  63.340  1.00  0.00    -0.577 C  
HETATM    2  C   UNL     1     -10.913  11.812  63.729  1.00  0.00    -0.500 C  
ENDROOT
BRANCH   2   3
HETATM    3  C   UNL     1     -10.480  13.149  64.318  1.00  0.00    -0.389 C  
BRANCH   3   4
HETATM    4  O   UNL     1     -10.247  13.055  65.730  1.00  0.00    -0.282 OA 
BRANCH   4   5
HETATM    5  C   UNL     1     -11.175  13.656  66.533  1.00  0.00    -0.310 C  
HETATM    6  O   UNL     1     -12.345  13.861  66.232  1.00  0.00    -0.453 OA 
BRANCH   5   7
HETATM    7  C   UNL     1     -10.568  13.979  67.889  1.00  0.00    -0.244 C  
BRANCH   7   8
HETATM    8  N   UNL     1     -11.321  13.368  69.001  1.00  0.00    -0.272 NA 
HETATM    9  C   UNL     1     -12.170  14.128  69.796  1.00  0.00    -0.344 C  
HETATM   10  C   UNL     1     -12.869  13.661  70.842  1.00  0.00    -0.251 C  
HETATM   11  I   UNL     1     -14.100  14.855  71.952  1.00  0.00    -0.760 I  
HETATM   12  C   UNL     1     -12.717  12.204  71.188  1.00  0.00    -0.253 C  
HETATM   13  C   UNL     1     -11.787  11.397  70.329  1.00  0.00    -0.350 C  
HETATM   14  O   UNL     1     -13.327  11.700  72.129  1.00  0.00    -0.491 OA 
HETATM   15  I   UNL     1     -11.491   9.411  70.721  1.00  0.00    -0.389 I  
HETATM   16  C   UNL     1     -11.168  12.024  69.317  1.00  0.00    -0.229 C  
ENDBRANCH   7   8
ENDBRANCH   5   7
ENDBRANCH   4   5
ENDBRANCH   3   4
ENDBRANCH   2   3
TORSDOF 5
ENDMDL
MODEL       20
REMARK 921   NORMALIZED FREE ENERGY PREDICTED BY IDOCK:   -4.75 KCAL/MOL
REMARK 922        TOTAL FREE ENERGY PREDICTED BY IDOCK:   -6.46 KCAL/MOL
REMARK 923 INTER-LIGAND FREE ENERGY PREDICTED BY IDOCK:   -6.12 KCAL/MOL
REMARK 924 INTRA-LIGAND FREE ENERGY PREDICTED BY IDOCK:   -0.33 KCAL/MOL
REMARK 927      BINDING AFFINITY PREDICTED BY RF-SCORE:    0.00 PKD
ROOT
HETATM    1  C   UNL     1     -11.651  10.073  71.070  1.00  0.00    -0.476 C  
HETATM    2  C   UNL     1     -12.782  11.086  71.177  1.00  0.00    -0.521 C  
ENDROOT
BRANCH   2   3
HETATM    3  C   UNL     1     -12.317  12.449  70.677  1.00  0.00    -0.279 C  
BRANCH   3   4
HETATM    4  O   UNL     1     -13.012  13.519  71.333  1.00  0.00    -0.348 OA 
BRANCH   4   5
HETATM    5  C   UNL     1     -12.706  14.781  70.908  1.00  0.00    -0.342 C  
HETATM    6  O   UNL     1     -13.504  15.704  70.798  1.00  0.00    -0.536 OA 
BRANCH   5   7
HETATM    7  C   UNL     1     -11.212  14.903  70.655  1.00  0.00    -0.189 C  
BRANCH   7   8
HETATM    8  N   UNL     1     -10.913  15.557  69.367  1.00  0.00    -0.255 NA 
HETATM    9  C   UNL     1     -10.597  16.909  69.305  1.00  0.00    -0.325 C  
HETATM   10  C   UNL     1     -10.340  17.590  68.177  1.00  0.00    -0.375 C  
HETATM   11  I   UNL     1      -9.877  19.579  68.184  1.00  0.00    -0.583 I  
HETATM   12  C   UNL     1     -10.407  16.834  66.876  1.00  0.00    -0.294 C  
HETATM   13  C   UNL     1     -10.762  15.377  66.956  1.00  0.00    -0.321 C  
HETATM   14  O   UNL     1     -10.181  17.385  65.801  1.00  0.00    -0.555 OA 
HETATM   15  I   UNL     1     -10.901  14.259  65.249  1.00  0.00    -0.453 I  
HETATM   16  C   UNL     1     -10.985  14.854  68.172  1.00  0.00    -0.272 C  
ENDBRANCH   7   8
ENDBRANCH   5   7
ENDBRANCH   4   5
ENDBRANCH   3   4
ENDBRANCH   2   3
TORSDOF 5
ENDMDL
MODEL       21
REMARK 921   NORMALIZED FREE ENERGY PREDICTED BY IDOCK:   -4.72 KCAL/MOL
REMARK 922        TOTAL FREE ENERGY PREDICTED BY IDOCK:   -6.41 KCAL/MOL
REMARK 923 INTER-LIGAND FREE ENERGY PREDICTED BY IDOCK:   -5.87 KCAL/MOL
REMARK 924 INTRA-LIGAND FREE ENERGY PREDICTED BY IDOCK:   -0.54 KCAL/MOL
REMARK 927      BINDING AFFINITY PREDICTED BY RF-SCORE:    0.00 PKD
ROOT
HETATM    1  C   UNL     1     -10.830  16.753  68.118  1.00  0.00    -0.353 C  
HETATM    2  C   UNL     1      -9.995  15.808  67.265  1.00  0.00    -0.238 C  
ENDROOT
BRANCH   2   3
HETATM    3  C   UNL     1     -10.890  15.032  66.307  1.00  0.00    -0.333 C  
BRANCH   3   4
HETATM    4  O   UNL     1     -10.434  13.683  66.132  1.00  0.00    -0.286 OA 
BRANCH   4   5
HETATM    5  C   UNL     1     -11.243  12.706  66.640  1.00  0.00    -0.300 C  
HETATM    6  O   UNL     1     -12.344  12.398  66.200  1.00  0.00    -0.606 OA 
BRANCH   5   7
HETATM    7  C   UNL     1     -10.552  12.000  67.796  1.00  0.00    -0.207 C  
BRANCH   7   8
HETATM    8  N   UNL     1     -11.330  12.079  69.047  1.00  0.00    -0.255 NA 
HETATM    9  C   UNL     1     -11.746  10.929  69.707  1.00  0.00    -0.338 C  
HETATM   10  C   UNL     1     -12.480  10.910  70.831  1.00  0.00    -0.408 C  
HETATM   11  I   UNL     1     -13.042   9.167  71.737  1.00  0.00    -0.556 I  
HETATM   12  C   UNL     1     -12.890  12.234  71.419  1.00  0.00    -0.271 C  
HETATM   13  C   UNL     1     -12.444  13.467  70.690  1.00  0.00    -0.333 C  
HETATM   14  O   UNL     1     -13.558  12.299  72.450  1.00  0.00    -0.431 OA 
HETATM   15  I   UNL     1     -12.962  15.318  71.390  1.00  0.00    -0.630 I  
HETATM   16  C   UNL     1     -11.710  13.305  69.578  1.00  0.00    -0.322 C  
ENDBRANCH   7   8
ENDBRANCH   5   7
ENDBRANCH   4   5
ENDBRANCH   3   4
ENDBRANCH   2   3
TORSDOF 5
ENDMDL
MODEL       22
REMARK 921   NORMALIZED FREE ENERGY PREDICTED BY IDOCK:   -4.72 KCAL/MOL
REMARK 922        TOTAL FREE ENERGY PREDICTED BY IDOCK:   -6.41 KCAL/MOL
REMARK 923 INTER-LIGAND FREE ENERGY PREDICTED BY IDOCK:   -6.07 KCAL/MOL
REMARK 924 INTRA-LIGAND FREE ENERGY PREDICTED BY IDOCK:   -0.34 KCAL/MOL
REMARK 927      BINDING AFFINITY PREDICTED BY RF-SCORE:    0.00 PKD
ROOT
HETATM    1  C   UNL     1     -10.386  19.591  66.112  1.00  0.00    -0.614 C  
HETATM    2  C   UNL     1      -9.871  20.289  67.363  1.00  0.00    -0.586 C  
ENDROOT
BRANCH   2   3
HETATM    3  C   UNL     1      -9.119  19.301  68.246  1.00  0.00    -0.345 C  
BRANCH   3   4
HETATM    4  O   UNL     1      -9.997  18.307  68.795  1.00  0.00    -0.363 OA 
BRANCH   4   5
HETATM    5  C   UNL     1      -9.620  17.006  68.610  1.00  0.00    -0.275 C  
HETATM    6  O   UNL     1      -8.573  16.509  69.007  1.00  0.00    -0.246 OA 
BRANCH   5   7
HETATM    7  C   UNL     1     -10.721  16.237  67.896  1.00  0.00    -0.329 C  
BRANCH   7   8
HETATM    8  N   UNL     1     -11.289  15.164  68.734  1.00  0.00    -0.283 NA 
HETATM    9  C   UNL     1     -12.052  15.459  69.858  1.00  0.00    -0.355 C  
HETATM   10  C   UNL     1     -12.582  14.548  70.690  1.00  0.00    -0.352 C  
HETATM   11  I   UNL     1     -13.698  15.076  72.317  1.00  0.00    -0.709 I  
HETATM   12  C   UNL     1     -12.324  13.096  70.389  1.00  0.00    -0.279 C  
HETATM   13  C   UNL     1     -11.487  12.791  69.181  1.00  0.00    -0.306 C  
HETATM   14  O   UNL     1     -12.778  12.202  71.101  1.00  0.00    -0.358 OA 
HETATM   15  I   UNL     1     -11.058  10.853  68.690  1.00  0.00    -0.404 I  
HETATM   16  C   UNL     1     -11.038  13.827  68.454  1.00  0.00    -0.263 C  
ENDBRANCH   7   8
ENDBRANCH   5   7
ENDBRANCH   4   5
ENDBRANCH   3   4
ENDBRANCH   2   3
TORSDOF 5
ENDMDL
MODEL       23
REMARK 921   NORMALIZED FREE ENERGY PREDICTED BY IDOCK:   -4.70 KCAL/MOL
REMARK 922        TOTAL FREE ENERGY PREDICTED BY IDOCK:   -6.38 KCAL/MOL
REMARK 923 INTER-LIGAND FREE ENERGY PREDICTED BY IDOCK:   -5.99 KCAL/MOL
REMARK 924 INTRA-LIGAND FREE ENERGY PREDICTED BY IDOCK:   -0.39 KCAL/MOL
REMARK 927      BINDING AFFINITY PREDICTED BY RF-SCORE:    0.00 PKD
ROOT
HETATM    1  C   UNL     1     -12.443  15.222  73.808  1.00  0.00    -0.746 C  
HETATM    2  C   UNL     1     -13.535  15.929  73.019  1.00  0.00    -0.653 C  
ENDROOT
BRANCH   2   3
HETATM    3  C   UNL     1     -13.914  15.109  71.792  1.00  0.00    -0.529 C  
BRANCH   3   4
HETATM    4  O   UNL     1     -13.003  15.330  70.705  1.00  0.00    -0.417 OA 
BRANCH   4   5
HETATM    5  C   UNL     1     -12.404  14.216  70.188  1.00  0.00    -0.351 C  
HETATM    6  O   UNL     1     -12.259  13.151  70.778  1.00  0.00    -0.361 OA 
BRANCH   5   7
HETATM    7  C   UNL     1     -11.997  14.460  68.743  1.00  0.00    -0.295 C  
BRANCH   7   8
HETATM    8  N   UNL     1     -10.835  15.361  68.632  1.00  0.00    -0.249 NA 
HETATM    9  C   UNL     1      -9.564  14.943  69.011  1.00  0.00    -0.204 C  
HETATM   10  C   UNL     1      -8.459  15.704  68.970  1.00  0.00    -0.231 C  
HETATM   11  I   UNL     1      -6.629  15.001  69.542  1.00  0.00    -0.181 I  
HETATM   12  C   UNL     1      -8.607  17.123  68.486  1.00  0.00    -0.258 C  
HETATM   13  C   UNL     1      -9.986  17.565  68.093  1.00  0.00    -0.321 C  
HETATM   14  O   UNL     1      -7.641  17.881  68.415  1.00  0.00    -0.261 OA 
HETATM   15  I   UNL     1     -10.305  19.476  67.438  1.00  0.00    -0.609 I  
HETATM   16  C   UNL     1     -10.982  16.670  68.192  1.00  0.00    -0.327 C  
ENDBRANCH   7   8
ENDBRANCH   5   7
ENDBRANCH   4   5
ENDBRANCH   3   4
ENDBRANCH   2   3
TORSDOF 5
ENDMDL
MODEL       24
REMARK 921   NORMALIZED FREE ENERGY PREDICTED BY IDOCK:   -4.68 KCAL/MOL
REMARK 922        TOTAL FREE ENERGY PREDICTED BY IDOCK:   -6.37 KCAL/MOL
REMARK 923 INTER-LIGAND FREE ENERGY PREDICTED BY IDOCK:   -6.02 KCAL/MOL
REMARK 924 INTRA-LIGAND FREE ENERGY PREDICTED BY IDOCK:   -0.34 KCAL/MOL
REMARK 927      BINDING AFFINITY PREDICTED BY RF-SCORE:    0.00 PKD
ROOT
HETATM    1  C   UNL     1     -12.483  11.933  63.334  1.00  0.00    -0.582 C  
HETATM    2  C   UNL     1     -11.055  11.660  63.787  1.00  0.00    -0.499 C  
ENDROOT
BRANCH   2   3
HETATM    3  C   UNL     1     -10.442  12.921  64.384  1.00  0.00    -0.396 C  
BRANCH   3   4
HETATM    4  O   UNL     1     -10.283  12.811  65.805  1.00  0.00    -0.280 OA 
BRANCH   4   5
HETATM    5  C   UNL     1     -11.180  13.509  66.565  1.00  0.00    -0.306 C  
HETATM    6  O   UNL     1     -12.343  13.737  66.256  1.00  0.00    -0.444 OA 
BRANCH   5   7
HETATM    7  C   UNL     1     -10.548  13.908  67.890  1.00  0.00    -0.245 C  
BRANCH   7   8
HETATM    8  N   UNL     1     -11.295  13.382  69.048  1.00  0.00    -0.272 NA 
HETATM    9  C   UNL     1     -11.227  12.038  69.396  1.00  0.00    -0.196 C  
HETATM   10  C   UNL     1     -11.894  11.471  70.414  1.00  0.00    -0.320 C  
HETATM   11  I   UNL     1     -11.726   9.484  70.856  1.00  0.00    -0.406 I  
HETATM   12  C   UNL     1     -12.793  12.356  71.237  1.00  0.00    -0.240 C  
HETATM   13  C   UNL     1     -12.867  13.802  70.842  1.00  0.00    -0.271 C  
HETATM   14  O   UNL     1     -13.433  11.912  72.189  1.00  0.00    -0.458 OA 
HETATM   15  I   UNL     1     -14.072  15.089  71.880  1.00  0.00    -0.753 I  
HETATM   16  C   UNL     1     -12.128  14.204  69.797  1.00  0.00    -0.354 C  
ENDBRANCH   7   8
ENDBRANCH   5   7
ENDBRANCH   4   5
ENDBRANCH   3   4
ENDBRANCH   2   3
TORSDOF 5
ENDMDL
MODEL       25
REMARK 921   NORMALIZED FREE ENERGY PREDICTED BY IDOCK:   -4.68 KCAL/MOL
REMARK 922        TOTAL FREE ENERGY PREDICTED BY IDOCK:   -6.36 KCAL/MOL
REMARK 923 INTER-LIGAND FREE ENERGY PREDICTED BY IDOCK:   -5.97 KCAL/MOL
REMARK 924 INTRA-LIGAND FREE ENERGY PREDICTED BY IDOCK:   -0.38 KCAL/MOL
REMARK 927      BINDING AFFINITY PREDICTED BY RF-SCORE:    0.00 PKD
ROOT
HETATM    1  C   UNL     1      -9.063  20.179  67.493  1.00  0.00    -0.465 C  
HETATM    2  C   UNL     1     -10.047  19.715  66.429  1.00  0.00    -0.573 C  
ENDROOT
BRANCH   2   3
HETATM    3  C   UNL     1     -10.457  18.270  66.683  1.00  0.00    -0.360 C  
BRANCH   3   4
HETATM    4  O   UNL     1     -10.979  18.093  68.008  1.00  0.00    -0.265 OA 
BRANCH   4   5
HETATM    5  C   UNL     1     -10.480  17.034  68.713  1.00  0.00    -0.347 C  
HETATM    6  O   UNL     1      -9.292  16.818  68.920  1.00  0.00    -0.245 OA 
BRANCH   5   7
HETATM    7  C   UNL     1     -11.616  16.189  69.268  1.00  0.00    -0.270 C  
BRANCH   7   8
HETATM    8  N   UNL     1     -11.684  14.857  68.637  1.00  0.00    -0.331 NA 
HETATM    9  C   UNL     1     -11.731  13.700  69.406  1.00  0.00    -0.324 C  
HETATM   10  C   UNL     1     -11.766  12.451  68.917  1.00  0.00    -0.324 C  
HETATM   11  I   UNL     1     -11.840  10.807  70.127  1.00  0.00    -0.481 I  
HETATM   12  C   UNL     1     -11.743  12.287  67.420  1.00  0.00    -0.335 C  
HETATM   13  C   UNL     1     -11.679  13.544  66.602  1.00  0.00    -0.387 C  
HETATM   14  O   UNL     1     -11.776  11.176  66.895  1.00  0.00    -0.410 OA 
HETATM   15  I   UNL     1     -11.624  13.438  64.560  1.00  0.00    -0.473 I  
HETATM   16  C   UNL     1     -11.655  14.716  67.256  1.00  0.00    -0.387 C  
ENDBRANCH   7   8
ENDBRANCH   5   7
ENDBRANCH   4   5
ENDBRANCH   3   4
ENDBRANCH   2   3
TORSDOF 5
ENDMDL
MODEL       26
REMARK 921   NORMALIZED FREE ENERGY PREDICTED BY IDOCK:   -4.67 KCAL/MOL
REMARK 922        TOTAL FREE ENERGY PREDICTED BY IDOCK:   -6.35 KCAL/MOL
REMARK 923 INTER-LIGAND FREE ENERGY PREDICTED BY IDOCK:   -6.18 KCAL/MOL
REMARK 924 INTRA-LIGAND FREE ENERGY PREDICTED BY IDOCK:   -0.17 KCAL/MOL
REMARK 927      BINDING AFFINITY PREDICTED BY RF-SCORE:    0.00 PKD
ROOT
HETATM    1  C   UNL     1     -10.100   5.326  69.895  1.00  0.00    -0.333 C  
HETATM    2  C   UNL     1     -11.282   6.282  69.821  1.00  0.00    -0.499 C  
ENDROOT
BRANCH   2   3
HETATM    3  C   UNL     1     -11.842   6.536  71.215  1.00  0.00    -0.329 C  
BRANCH   3   4
HETATM    4  O   UNL     1     -12.669   7.708  71.248  1.00  0.00    -0.321 OA 
BRANCH   4   5
HETATM    5  C   UNL     1     -12.113   8.819  71.818  1.00  0.00    -0.350 C  
HETATM    6  O   UNL     1     -10.921   8.969  72.061  1.00  0.00    -0.358 OA 
BRANCH   5   7
HETATM    7  C   UNL     1     -13.177   9.880  72.050  1.00  0.00    -0.456 C  
BRANCH   7   8
HETATM    8  N   UNL     1     -12.838  11.164  71.407  1.00  0.00    -0.438 NA 
HETATM    9  C   UNL     1     -13.143  12.374  72.018  1.00  0.00    -0.365 C  
HETATM   10  C   UNL     1     -12.897  13.585  71.493  1.00  0.00    -0.352 C  
HETATM   11  I   UNL     1     -13.376  15.315  72.469  1.00  0.00    -0.728 I  
HETATM   12  C   UNL     1     -12.249  13.638  70.135  1.00  0.00    -0.342 C  
HETATM   13  C   UNL     1     -11.937  12.324  69.481  1.00  0.00    -0.270 C  
HETATM   14  O   UNL     1     -11.988  14.709  69.590  1.00  0.00    -0.293 OA 
HETATM   15  I   UNL     1     -11.074  12.278  67.627  1.00  0.00    -0.403 I  
HETATM   16  C   UNL     1     -12.248  11.203  70.151  1.00  0.00    -0.337 C  
ENDBRANCH   7   8
ENDBRANCH   5   7
ENDBRANCH   4   5
ENDBRANCH   3   4
ENDBRANCH   2   3
TORSDOF 5
ENDMDL
MODEL       27
REMARK 921   NORMALIZED FREE ENERGY PREDICTED BY IDOCK:   -4.66 KCAL/MOL
REMARK 922        TOTAL FREE ENERGY PREDICTED BY IDOCK:   -6.34 KCAL/MOL
REMARK 923 INTER-LIGAND FREE ENERGY PREDICTED BY IDOCK:   -6.03 KCAL/MOL
REMARK 924 INTRA-LIGAND FREE ENERGY PREDICTED BY IDOCK:   -0.31 KCAL/MOL
REMARK 927      BINDING AFFINITY PREDICTED BY RF-SCORE:    0.00 PKD
ROOT
HETATM    1  C   UNL     1     -10.492  19.224  66.390  1.00  0.00    -0.563 C  
HETATM    2  C   UNL     1     -10.219  17.875  67.040  1.00  0.00    -0.359 C  
ENDROOT
BRANCH   2   3
HETATM    3  C   UNL     1      -9.894  16.833  65.977  1.00  0.00    -0.287 C  
BRANCH   3   4
HETATM    4  O   UNL     1     -10.840  15.755  65.986  1.00  0.00    -0.317 OA 
BRANCH   4   5
HETATM    5  C   UNL     1     -11.641  15.651  64.884  1.00  0.00    -0.156 C  
HETATM    6  O   UNL     1     -11.589  16.378  63.899  1.00  0.00    -1.100 OA 
BRANCH   5   7
HETATM    7  C   UNL     1     -12.571  14.455  65.021  1.00  0.00    -0.301 C  
BRANCH   7   8
HETATM    8  N   UNL     1     -11.840  13.206  65.306  1.00  0.00    -0.345 NA 
HETATM    9  C   UNL     1     -11.855  12.640  66.575  1.00  0.00    -0.396 C  
HETATM   10  C   UNL     1     -11.196  11.525  66.929  1.00  0.00    -0.298 C  
HETATM   11  I   UNL     1     -11.282  10.761  68.822  1.00  0.00    -0.374 I  
HETATM   12  C   UNL     1     -10.371  10.838  65.873  1.00  0.00    -0.238 C  
HETATM   13  C   UNL     1     -10.354  11.467  64.510  1.00  0.00    -0.313 C  
HETATM   14  O   UNL     1      -9.743   9.809  66.117  1.00  0.00    -0.208 OA 
HETATM   15  I   UNL     1      -9.251  10.628  63.006  1.00  0.00    -0.419 I  
HETATM   16  C   UNL     1     -11.075  12.584  64.328  1.00  0.00    -0.356 C  
ENDBRANCH   7   8
ENDBRANCH   5   7
ENDBRANCH   4   5
ENDBRANCH   3   4
ENDBRANCH   2   3
TORSDOF 5
ENDMDL
MODEL       28
REMARK 921   NORMALIZED FREE ENERGY PREDICTED BY IDOCK:   -4.66 KCAL/MOL
REMARK 922        TOTAL FREE ENERGY PREDICTED BY IDOCK:   -6.33 KCAL/MOL
REMARK 923 INTER-LIGAND FREE ENERGY PREDICTED BY IDOCK:   -5.86 KCAL/MOL
REMARK 924 INTRA-LIGAND FREE ENERGY PREDICTED BY IDOCK:   -0.47 KCAL/MOL
REMARK 927      BINDING AFFINITY PREDICTED BY RF-SCORE:    0.00 PKD
ROOT
HETATM    1  C   UNL     1      -9.393   9.625  65.336  1.00  0.00    -0.320 C  
HETATM    2  C   UNL     1     -10.242  10.876  65.167  1.00  0.00    -0.360 C  
ENDROOT
BRANCH   2   3
HETATM    3  C   UNL     1     -10.502  11.142  63.689  1.00  0.00    -0.376 C  
BRANCH   3   4
HETATM    4  O   UNL     1     -10.850  12.513  63.451  1.00  0.00    -0.439 OA 
BRANCH   4   5
HETATM    5  C   UNL     1     -12.157  12.847  63.668  1.00  0.00    -0.535 C  
HETATM    6  O   UNL     1     -13.110  12.083  63.563  1.00  0.00    -0.764 OA 
BRANCH   5   7
HETATM    7  C   UNL     1     -12.262  14.292  64.129  1.00  0.00    -0.378 C  
BRANCH   7   8
HETATM    8  N   UNL     1     -11.537  14.533  65.390  1.00  0.00    -0.349 NA 
HETATM    9  C   UNL     1     -10.458  15.407  65.442  1.00  0.00    -0.402 C  
HETATM   10  C   UNL     1      -9.725  15.663  66.537  1.00  0.00    -0.266 C  
HETATM   11  I   UNL     1      -8.157  16.972  66.520  1.00  0.00    -0.335 I  
HETATM   12  C   UNL     1     -10.093  14.941  67.806  1.00  0.00    -0.234 C  
HETATM   13  C   UNL     1     -11.252  13.989  67.734  1.00  0.00    -0.281 C  
HETATM   14  O   UNL     1      -9.474  15.125  68.853  1.00  0.00    -0.196 OA 
HETATM   15  I   UNL     1     -11.827  12.941  69.393  1.00  0.00    -0.207 I  
HETATM   16  C   UNL     1     -11.879  13.856  66.554  1.00  0.00    -0.414 C  
ENDBRANCH   7   8
ENDBRANCH   5   7
ENDBRANCH   4   5
ENDBRANCH   3   4
ENDBRANCH   2   3
TORSDOF 5
ENDMDL
MODEL       29
REMARK 921   NORMALIZED FREE ENERGY PREDICTED BY IDOCK:   -4.65 KCAL/MOL
REMARK 922        TOTAL FREE ENERGY PREDICTED BY IDOCK:   -6.33 KCAL/MOL
REMARK 923 INTER-LIGAND FREE ENERGY PREDICTED BY IDOCK:   -5.84 KCAL/MOL
REMARK 924 INTRA-LIGAND FREE ENERGY PREDICTED BY IDOCK:   -0.49 KCAL/MOL
REMARK 927      BINDING AFFINITY PREDICTED BY RF-SCORE:    0.00 PKD
ROOT
HETATM    1  C   UNL     1      -9.561   9.596  65.355  1.00  0.00    -0.361 C  
HETATM    2  C   UNL     1     -10.249  10.942  65.173  1.00  0.00    -0.360 C  
ENDROOT
BRANCH   2   3
HETATM    3  C   UNL     1     -10.625  11.148  63.711  1.00  0.00    -0.356 C  
BRANCH   3   4
HETATM    4  O   UNL     1     -10.941  12.520  63.435  1.00  0.00    -0.452 OA 
BRANCH   4   5
HETATM    5  C   UNL     1     -12.231  12.900  63.679  1.00  0.00    -0.499 C  
HETATM    6  O   UNL     1     -13.208  12.163  63.627  1.00  0.00    -0.770 OA 
BRANCH   5   7
HETATM    7  C   UNL     1     -12.278  14.362  64.096  1.00  0.00    -0.363 C  
BRANCH   7   8
HETATM    8  N   UNL     1     -11.516  14.617  65.333  1.00  0.00    -0.346 NA 
HETATM    9  C   UNL     1     -11.880  14.022  66.536  1.00  0.00    -0.417 C  
HETATM   10  C   UNL     1     -11.262  14.220  67.711  1.00  0.00    -0.291 C  
HETATM   11  I   UNL     1     -11.864  13.295  69.430  1.00  0.00    -0.266 I  
HETATM   12  C   UNL     1     -10.091  15.166  67.732  1.00  0.00    -0.230 C  
HETATM   13  C   UNL     1      -9.717  15.812  66.430  1.00  0.00    -0.282 C  
HETATM   14  O   UNL     1      -9.470  15.397  68.769  1.00  0.00    -0.191 OA 
HETATM   15  I   UNL     1      -8.154  17.129  66.347  1.00  0.00    -0.249 I  
HETATM   16  C   UNL     1     -10.442  15.497  65.345  1.00  0.00    -0.405 C  
ENDBRANCH   7   8
ENDBRANCH   5   7
ENDBRANCH   4   5
ENDBRANCH   3   4
ENDBRANCH   2   3
TORSDOF 5
ENDMDL
MODEL       30
REMARK 921   NORMALIZED FREE ENERGY PREDICTED BY IDOCK:   -4.65 KCAL/MOL
REMARK 922        TOTAL FREE ENERGY PREDICTED BY IDOCK:   -6.32 KCAL/MOL
REMARK 923 INTER-LIGAND FREE ENERGY PREDICTED BY IDOCK:   -6.11 KCAL/MOL
REMARK 924 INTRA-LIGAND FREE ENERGY PREDICTED BY IDOCK:   -0.22 KCAL/MOL
REMARK 927      BINDING AFFINITY PREDICTED BY RF-SCORE:    0.00 PKD
ROOT
HETATM    1  C   UNL     1     -10.073   5.015  69.931  1.00  0.00    -0.344 C  
HETATM    2  C   UNL     1     -11.135   6.102  69.853  1.00  0.00    -0.481 C  
ENDROOT
BRANCH   2   3
HETATM    3  C   UNL     1     -11.667   6.420  71.246  1.00  0.00    -0.300 C  
BRANCH   3   4
HETATM    4  O   UNL     1     -12.514   7.577  71.238  1.00  0.00    -0.328 OA 
BRANCH   4   5
HETATM    5  C   UNL     1     -12.046   8.667  71.917  1.00  0.00    -0.356 C  
HETATM    6  O   UNL     1     -10.889   8.830  72.283  1.00  0.00    -0.352 OA 
BRANCH   5   7
HETATM    7  C   UNL     1     -13.157   9.691  72.097  1.00  0.00    -0.431 C  
BRANCH   7   8
HETATM    8  N   UNL     1     -12.865  10.962  71.409  1.00  0.00    -0.425 NA 
HETATM    9  C   UNL     1     -12.231  10.980  70.173  1.00  0.00    -0.344 C  
HETATM   10  C   UNL     1     -11.902  12.089  69.492  1.00  0.00    -0.326 C  
HETATM   11  I   UNL     1     -10.975  12.018  67.673  1.00  0.00    -0.365 I  
HETATM   12  C   UNL     1     -12.237  13.417  70.118  1.00  0.00    -0.315 C  
HETATM   13  C   UNL     1     -12.910  13.384  71.459  1.00  0.00    -0.337 C  
HETATM   14  O   UNL     1     -11.972  14.478  69.554  1.00  0.00    -0.292 OA 
HETATM   15  I   UNL     1     -13.393  15.130  72.409  1.00  0.00    -0.724 I  
HETATM   16  C   UNL     1     -13.170  12.183  71.998  1.00  0.00    -0.391 C  
ENDBRANCH   7   8
ENDBRANCH   5   7
ENDBRANCH   4   5
ENDBRANCH   3   4
ENDBRANCH   2   3
TORSDOF 5
ENDMDL
MODEL       31
REMARK 921   NORMALIZED FREE ENERGY PREDICTED BY IDOCK:   -4.63 KCAL/MOL
REMARK 922        TOTAL FREE ENERGY PREDICTED BY IDOCK:   -6.29 KCAL/MOL
REMARK 923 INTER-LIGAND FREE ENERGY PREDICTED BY IDOCK:   -6.04 KCAL/MOL
REMARK 924 INTRA-LIGAND FREE ENERGY PREDICTED BY IDOCK:   -0.26 KCAL/MOL
REMARK 927      BINDING AFFINITY PREDICTED BY RF-SCORE:    0.00 PKD
ROOT
HETATM    1  C   UNL     1      -8.975  20.305  66.928  1.00  0.00    -0.424 C  
HETATM    2  C   UNL     1     -10.424  19.937  67.217  1.00  0.00    -0.557 C  
ENDROOT
BRANCH   2   3
HETATM    3  C   UNL     1     -10.561  18.429  67.385  1.00  0.00    -0.413 C  
BRANCH   3   4
HETATM    4  O   UNL     1     -10.369  18.028  68.749  1.00  0.00    -0.368 OA 
BRANCH   4   5
HETATM    5  C   UNL     1     -10.344  16.681  68.980  1.00  0.00    -0.317 C  
HETATM    6  O   UNL     1      -9.363  16.043  69.344  1.00  0.00    -0.254 OA 
BRANCH   5   7
HETATM    7  C   UNL     1     -11.731  16.088  68.788  1.00  0.00    -0.299 C  
BRANCH   7   8
HETATM    8  N   UNL     1     -11.684  14.696  68.303  1.00  0.00    -0.328 NA 
HETATM    9  C   UNL     1     -11.645  14.412  66.943  1.00  0.00    -0.388 C  
HETATM   10  C   UNL     1     -11.630  13.178  66.414  1.00  0.00    -0.349 C  
HETATM   11  I   UNL     1     -11.566  12.856  64.398  1.00  0.00    -0.534 I  
HETATM   12  C   UNL     1     -11.667  12.011  67.365  1.00  0.00    -0.281 C  
HETATM   13  C   UNL     1     -11.722  12.333  68.831  1.00  0.00    -0.328 C  
HETATM   14  O   UNL     1     -11.651  10.851  66.959  1.00  0.00    -0.383 OA 
HETATM   15  I   UNL     1     -11.794  10.825  70.211  1.00  0.00    -0.483 I  
HETATM   16  C   UNL     1     -11.726  13.627  69.187  1.00  0.00    -0.329 C  
ENDBRANCH   7   8
ENDBRANCH   5   7
ENDBRANCH   4   5
ENDBRANCH   3   4
ENDBRANCH   2   3
TORSDOF 5
ENDMDL
MODEL       32
REMARK 921   NORMALIZED FREE ENERGY PREDICTED BY IDOCK:   -4.58 KCAL/MOL
REMARK 922        TOTAL FREE ENERGY PREDICTED BY IDOCK:   -6.23 KCAL/MOL
REMARK 923 INTER-LIGAND FREE ENERGY PREDICTED BY IDOCK:   -5.87 KCAL/MOL
REMARK 924 INTRA-LIGAND FREE ENERGY PREDICTED BY IDOCK:   -0.36 KCAL/MOL
REMARK 927      BINDING AFFINITY PREDICTED BY RF-SCORE:    0.00 PKD
ROOT
HETATM    1  C   UNL     1     -12.701  15.009  73.540  1.00  0.00    -0.667 C  
HETATM    2  C   UNL     1     -13.812  15.736  72.796  1.00  0.00    -0.600 C  
ENDROOT
BRANCH   2   3
HETATM    3  C   UNL     1     -13.900  15.234  71.360  1.00  0.00    -0.515 C  
BRANCH   3   4
HETATM    4  O   UNL     1     -12.635  15.324  70.689  1.00  0.00    -0.363 OA 
BRANCH   4   5
HETATM    5  C   UNL     1     -12.239  14.210  70.003  1.00  0.00    -0.357 C  
HETATM    6  O   UNL     1     -12.244  13.068  70.445  1.00  0.00    -0.351 OA 
BRANCH   5   7
HETATM    7  C   UNL     1     -11.851  14.580  68.580  1.00  0.00    -0.320 C  
BRANCH   7   8
HETATM    8  N   UNL     1     -10.726  15.532  68.534  1.00  0.00    -0.250 NA 
HETATM    9  C   UNL     1     -10.900  16.827  68.061  1.00  0.00    -0.341 C  
HETATM   10  C   UNL     1      -9.928  17.747  67.958  1.00  0.00    -0.333 C  
HETATM   11  I   UNL     1     -10.281  19.633  67.255  1.00  0.00    -0.627 I  
HETATM   12  C   UNL     1      -8.539  17.344  68.378  1.00  0.00    -0.270 C  
HETATM   13  C   UNL     1      -8.362  15.938  68.875  1.00  0.00    -0.226 C  
HETATM   14  O   UNL     1      -7.597  18.131  68.318  1.00  0.00    -0.255 OA 
HETATM   15  I   UNL     1      -6.515  15.279  69.454  1.00  0.00    -0.178 I  
HETATM   16  C   UNL     1      -9.447  15.149  68.916  1.00  0.00    -0.213 C  
ENDBRANCH   7   8
ENDBRANCH   5   7
ENDBRANCH   4   5
ENDBRANCH   3   4
ENDBRANCH   2   3
TORSDOF 5
ENDMDL
MODEL       33
REMARK 921   NORMALIZED FREE ENERGY PREDICTED BY IDOCK:   -4.57 KCAL/MOL
REMARK 922        TOTAL FREE ENERGY PREDICTED BY IDOCK:   -6.22 KCAL/MOL
REMARK 923 INTER-LIGAND FREE ENERGY PREDICTED BY IDOCK:   -5.90 KCAL/MOL
REMARK 924 INTRA-LIGAND FREE ENERGY PREDICTED BY IDOCK:   -0.33 KCAL/MOL
REMARK 927      BINDING AFFINITY PREDICTED BY RF-SCORE:    0.00 PKD
ROOT
HETATM    1  C   UNL     1      -8.284  19.851  66.386  1.00  0.00    -0.365 C  
HETATM    2  C   UNL     1      -9.567  20.345  67.039  1.00  0.00    -0.571 C  
ENDROOT
BRANCH   2   3
HETATM    3  C   UNL     1      -9.773  19.657  68.382  1.00  0.00    -0.403 C  
BRANCH   3   4
HETATM    4  O   UNL     1     -10.649  18.526  68.269  1.00  0.00    -0.320 OA 
BRANCH   4   5
HETATM    5  C   UNL     1     -10.043  17.303  68.201  1.00  0.00    -0.325 C  
HETATM    6  O   UNL     1      -8.923  17.042  68.623  1.00  0.00    -0.257 OA 
BRANCH   5   7
HETATM    7  C   UNL     1     -10.987  16.282  67.584  1.00  0.00    -0.245 C  
BRANCH   7   8
HETATM    8  N   UNL     1     -11.403  15.247  68.549  1.00  0.00    -0.310 NA 
HETATM    9  C   UNL     1     -11.203  13.898  68.285  1.00  0.00    -0.272 C  
HETATM   10  C   UNL     1     -11.575  12.891  69.092  1.00  0.00    -0.322 C  
HETATM   11  I   UNL     1     -11.233  10.933  68.622  1.00  0.00    -0.390 I  
HETATM   12  C   UNL     1     -12.271  13.250  70.378  1.00  0.00    -0.332 C  
HETATM   13  C   UNL     1     -12.493  14.711  70.645  1.00  0.00    -0.344 C  
HETATM   14  O   UNL     1     -12.639  12.386  71.172  1.00  0.00    -0.364 OA 
HETATM   15  I   UNL     1     -13.445  15.310  72.353  1.00  0.00    -0.728 I  
HETATM   16  C   UNL     1     -12.052  15.588  69.729  1.00  0.00    -0.349 C  
ENDBRANCH   7   8
ENDBRANCH   5   7
ENDBRANCH   4   5
ENDBRANCH   3   4
ENDBRANCH   2   3
TORSDOF 5
ENDMDL
MODEL       34
REMARK 921   NORMALIZED FREE ENERGY PREDICTED BY IDOCK:   -4.56 KCAL/MOL
REMARK 922        TOTAL FREE ENERGY PREDICTED BY IDOCK:   -6.21 KCAL/MOL
REMARK 923 INTER-LIGAND FREE ENERGY PREDICTED BY IDOCK:   -5.77 KCAL/MOL
REMARK 924 INTRA-LIGAND FREE ENERGY PREDICTED BY IDOCK:   -0.45 KCAL/MOL
REMARK 927      BINDING AFFINITY PREDICTED BY RF-SCORE:    0.00 PKD
ROOT
HETATM    1  C   UNL     1      -9.730  11.338  63.081  1.00  0.00    -0.408 C  
HETATM    2  C   UNL     1     -10.872  11.350  64.088  1.00  0.00    -0.431 C  
ENDROOT
BRANCH   2   3
HETATM    3  C   UNL     1     -12.009  12.230  63.585  1.00  0.00    -0.543 C  
BRANCH   3   4
HETATM    4  O   UNL     1     -12.727  12.838  64.668  1.00  0.00    -0.649 OA 
BRANCH   4   5
HETATM    5  C   UNL     1     -12.514  14.175  64.853  1.00  0.00    -0.401 C  
HETATM    6  O   UNL     1     -12.598  15.033  63.983  1.00  0.00    -0.817 OA 
BRANCH   5   7
HETATM    7  C   UNL     1     -12.221  14.462  66.318  1.00  0.00    -0.345 C  
BRANCH   7   8
HETATM    8  N   UNL     1     -10.774  14.496  66.604  1.00  0.00    -0.300 NA 
HETATM    9  C   UNL     1     -10.107  13.368  67.067  1.00  0.00    -0.247 C  
HETATM   10  C   UNL     1      -8.803  13.318  67.379  1.00  0.00    -0.204 C  
HETATM   11  I   UNL     1      -7.906  11.609  68.050  1.00  0.00    -0.157 I  
HETATM   12  C   UNL     1      -8.000  14.582  67.223  1.00  0.00    -0.191 C  
HETATM   13  C   UNL     1      -8.734  15.796  66.734  1.00  0.00    -0.271 C  
HETATM   14  O   UNL     1      -6.798  14.616  67.484  1.00  0.00    -0.179 OA 
HETATM   15  I   UNL     1      -7.745  17.572  66.504  1.00  0.00    -0.340 I  
HETATM   16  C   UNL     1     -10.043  15.669  66.464  1.00  0.00    -0.282 C  
ENDBRANCH   7   8
ENDBRANCH   5   7
ENDBRANCH   4   5
ENDBRANCH   3   4
ENDBRANCH   2   3
TORSDOF 5
ENDMDL
MODEL       35
REMARK 921   NORMALIZED FREE ENERGY PREDICTED BY IDOCK:   -4.56 KCAL/MOL
REMARK 922        TOTAL FREE ENERGY PREDICTED BY IDOCK:   -6.21 KCAL/MOL
REMARK 923 INTER-LIGAND FREE ENERGY PREDICTED BY IDOCK:   -5.91 KCAL/MOL
REMARK 924 INTRA-LIGAND FREE ENERGY PREDICTED BY IDOCK:   -0.30 KCAL/MOL
REMARK 927      BINDING AFFINITY PREDICTED BY RF-SCORE:    0.00 PKD
ROOT
HETATM    1  C   UNL     1     -14.354   7.841  71.536  1.00  0.00    -0.574 C  
HETATM    2  C   UNL     1     -13.677   8.975  72.294  1.00  0.00    -0.550 C  
ENDROOT
BRANCH   2   3
HETATM    3  C   UNL     1     -13.155  10.023  71.319  1.00  0.00    -0.402 C  
BRANCH   3   4
HETATM    4  O   UNL     1     -11.732  10.174  71.417  1.00  0.00    -0.360 OA 
BRANCH   4   5
HETATM    5  C   UNL     1     -11.060  10.304  70.233  1.00  0.00    -0.319 C  
HETATM    6  O   UNL     1      -9.879  10.032  70.056  1.00  0.00    -0.241 OA 
BRANCH   5   7
HETATM    7  C   UNL     1     -12.007  10.774  69.140  1.00  0.00    -0.230 C  
BRANCH   7   8
HETATM    8  N   UNL     1     -11.847  12.209  68.838  1.00  0.00    -0.313 NA 
HETATM    9  C   UNL     1     -11.833  13.159  69.852  1.00  0.00    -0.308 C  
HETATM   10  C   UNL     1     -11.721  14.484  69.665  1.00  0.00    -0.307 C  
HETATM   11  I   UNL     1     -11.702  15.807  71.221  1.00  0.00    -0.554 I  
HETATM   12  C   UNL     1     -11.611  14.981  68.248  1.00  0.00    -0.334 C  
HETATM   13  C   UNL     1     -11.641  13.946  67.162  1.00  0.00    -0.364 C  
HETATM   14  O   UNL     1     -11.500  16.179  67.995  1.00  0.00    -0.289 OA 
HETATM   15  I   UNL     1     -11.518  14.512  65.200  1.00  0.00    -0.395 I  
HETATM   16  C   UNL     1     -11.755  12.659  67.527  1.00  0.00    -0.368 C  
ENDBRANCH   7   8
ENDBRANCH   5   7
ENDBRANCH   4   5
ENDBRANCH   3   4
ENDBRANCH   2   3
TORSDOF 5
ENDMDL
MODEL       36
REMARK 921   NORMALIZED FREE ENERGY PREDICTED BY IDOCK:   -4.54 KCAL/MOL
REMARK 922        TOTAL FREE ENERGY PREDICTED BY IDOCK:   -6.19 KCAL/MOL
REMARK 923 INTER-LIGAND FREE ENERGY PREDICTED BY IDOCK:   -5.76 KCAL/MOL
REMARK 924 INTRA-LIGAND FREE ENERGY PREDICTED BY IDOCK:   -0.43 KCAL/MOL
REMARK 927      BINDING AFFINITY PREDICTED BY RF-SCORE:    0.00 PKD
ROOT
HETATM    1  C   UNL     1     -10.541  16.481  67.724  1.00  0.00    -0.332 C  
HETATM    2  C   UNL     1     -10.512  15.680  66.430  1.00  0.00    -0.309 C  
ENDROOT
BRANCH   2   3
HETATM    3  C   UNL     1      -9.745  14.379  66.632  1.00  0.00    -0.278 C  
BRANCH   3   4
HETATM    4  O   UNL     1     -10.280  13.319  65.827  1.00  0.00    -0.284 OA 
BRANCH   4   5
HETATM    5  C   UNL     1     -11.342  12.640  66.357  1.00  0.00    -0.331 C  
HETATM    6  O   UNL     1     -12.502  12.732  65.976  1.00  0.00    -0.540 OA 
BRANCH   5   7
HETATM    7  C   UNL     1     -10.869  11.696  67.451  1.00  0.00    -0.250 C  
BRANCH   7   8
HETATM    8  N   UNL     1     -11.581  11.911  68.725  1.00  0.00    -0.283 NA 
HETATM    9  C   UNL     1     -11.798  13.193  69.219  1.00  0.00    -0.323 C  
HETATM   10  C   UNL     1     -12.410  13.478  70.379  1.00  0.00    -0.327 C  
HETATM   11  I   UNL     1     -12.689  15.397  71.022  1.00  0.00    -0.508 I  
HETATM   12  C   UNL     1     -12.892  12.323  71.215  1.00  0.00    -0.239 C  
HETATM   13  C   UNL     1     -12.641  10.944  70.677  1.00  0.00    -0.346 C  
HETATM   14  O   UNL     1     -13.466  12.502  72.288  1.00  0.00    -0.556 OA 
HETATM   15  I   UNL     1     -13.237   9.302  71.740  1.00  0.00    -0.557 I  
HETATM   16  C   UNL     1     -12.016  10.839  69.493  1.00  0.00    -0.292 C  
ENDBRANCH   7   8
ENDBRANCH   5   7
ENDBRANCH   4   5
ENDBRANCH   3   4
ENDBRANCH   2   3
TORSDOF 5
ENDMDL
MODEL       37
REMARK 921   NORMALIZED FREE ENERGY PREDICTED BY IDOCK:   -4.53 KCAL/MOL
REMARK 922        TOTAL FREE ENERGY PREDICTED BY IDOCK:   -6.17 KCAL/MOL
REMARK 923 INTER-LIGAND FREE ENERGY PREDICTED BY IDOCK:   -5.66 KCAL/MOL
REMARK 924 INTRA-LIGAND FREE ENERGY PREDICTED BY IDOCK:   -0.50 KCAL/MOL
REMARK 927      BINDING AFFINITY PREDICTED BY RF-SCORE:    0.00 PKD
ROOT
HETATM    1  C   UNL     1     -12.261  14.539  64.656  1.00  0.00    -0.474 C  
HETATM    2  C   UNL     1     -11.686  13.394  63.835  1.00  0.00    -0.455 C  
ENDROOT
BRANCH   2   3
HETATM    3  C   UNL     1     -11.743  12.095  64.629  1.00  0.00    -0.332 C  
BRANCH   3   4
HETATM    4  O   UNL     1     -12.181  12.317  65.977  1.00  0.00    -0.646 OA 
BRANCH   4   5
HETATM    5  C   UNL     1     -11.390  11.789  66.959  1.00  0.00    -0.321 C  
HETATM    6  O   UNL     1     -11.700  10.859  67.693  1.00  0.00    -0.566 OA 
BRANCH   5   7
HETATM    7  C   UNL     1     -10.034  12.477  66.969  1.00  0.00    -0.214 C  
BRANCH   7   8
HETATM    8  N   UNL     1     -10.093  13.824  67.568  1.00  0.00    -0.239 NA 
HETATM    9  C   UNL     1      -9.398  14.889  67.009  1.00  0.00    -0.227 C  
HETATM   10  C   UNL     1      -9.372  16.137  67.503  1.00  0.00    -0.217 C  
HETATM   11  I   UNL     1      -8.324  17.644  66.606  1.00  0.00    -0.290 I  
HETATM   12  C   UNL     1     -10.149  16.403  68.765  1.00  0.00    -0.247 C  
HETATM   13  C   UNL     1     -10.885  15.241  69.366  1.00  0.00    -0.262 C  
HETATM   14  O   UNL     1     -10.179  17.521  69.277  1.00  0.00    -0.303 OA 
HETATM   15  I   UNL     1     -11.957  15.485  71.091  1.00  0.00    -0.607 I  
HETATM   16  C   UNL     1     -10.806  14.058  68.737  1.00  0.00    -0.263 C  
ENDBRANCH   7   8
ENDBRANCH   5   7
ENDBRANCH   4   5
ENDBRANCH   3   4
ENDBRANCH   2   3
TORSDOF 5
ENDMDL
MODEL       38
REMARK 921   NORMALIZED FREE ENERGY PREDICTED BY IDOCK:   -4.51 KCAL/MOL
REMARK 922        TOTAL FREE ENERGY PREDICTED BY IDOCK:   -6.15 KCAL/MOL
REMARK 923 INTER-LIGAND FREE ENERGY PREDICTED BY IDOCK:   -5.62 KCAL/MOL
REMARK 924 INTRA-LIGAND FREE ENERGY PREDICTED BY IDOCK:   -0.53 KCAL/MOL
REMARK 927      BINDING AFFINITY PREDICTED BY RF-SCORE:    0.00 PKD
ROOT
HETATM    1  C   UNL     1     -11.279  15.083  64.812  1.00  0.00    -0.393 C  
HETATM    2  C   UNL     1     -12.445  14.199  65.233  1.00  0.00    -0.474 C  
ENDROOT
BRANCH   2   3
HETATM    3  C   UNL     1     -12.101  12.732  65.007  1.00  0.00    -0.441 C  
BRANCH   3   4
HETATM    4  O   UNL     1     -12.068  12.000  66.241  1.00  0.00    -0.596 OA 
BRANCH   4   5
HETATM    5  C   UNL     1     -10.840  11.554  66.641  1.00  0.00    -0.287 C  
HETATM    6  O   UNL     1      -9.885  11.351  65.901  1.00  0.00    -0.209 OA 
BRANCH   5   7
HETATM    7  C   UNL     1     -10.800  11.407  68.154  1.00  0.00    -0.213 C  
BRANCH   7   8
HETATM    8  N   UNL     1     -11.104  12.673  68.848  1.00  0.00    -0.257 NA 
HETATM    9  C   UNL     1     -10.482  13.860  68.481  1.00  0.00    -0.250 C  
HETATM   10  C   UNL     1     -10.677  15.048  69.075  1.00  0.00    -0.239 C  
HETATM   11  I   UNL     1      -9.719  16.745  68.461  1.00  0.00    -0.279 I  
HETATM   12  C   UNL     1     -11.636  15.098  70.234  1.00  0.00    -0.289 C  
HETATM   13  C   UNL     1     -12.292  13.807  70.629  1.00  0.00    -0.375 C  
HETATM   14  O   UNL     1     -11.872  16.150  70.827  1.00  0.00    -0.369 OA 
HETATM   15  I   UNL     1     -13.599  13.757  72.201  1.00  0.00    -0.647 I  
HETATM   16  C   UNL     1     -11.985  12.708  69.921  1.00  0.00    -0.295 C  
ENDBRANCH   7   8
ENDBRANCH   5   7
ENDBRANCH   4   5
ENDBRANCH   3   4
ENDBRANCH   2   3
TORSDOF 5
ENDMDL
MODEL       39
REMARK 921   NORMALIZED FREE ENERGY PREDICTED BY IDOCK:   -4.50 KCAL/MOL
REMARK 922        TOTAL FREE ENERGY PREDICTED BY IDOCK:   -6.13 KCAL/MOL
REMARK 923 INTER-LIGAND FREE ENERGY PREDICTED BY IDOCK:   -5.96 KCAL/MOL
REMARK 924 INTRA-LIGAND FREE ENERGY PREDICTED BY IDOCK:   -0.17 KCAL/MOL
REMARK 927      BINDING AFFINITY PREDICTED BY RF-SCORE:    0.00 PKD
ROOT
HETATM    1  C   UNL     1     -13.888   8.661  71.918  1.00  0.00    -0.481 C  
HETATM    2  C   UNL     1     -13.201  10.015  71.817  1.00  0.00    -0.540 C  
ENDROOT
BRANCH   2   3
HETATM    3  C   UNL     1     -12.137   9.987  70.726  1.00  0.00    -0.327 C  
BRANCH   3   4
HETATM    4  O   UNL     1     -12.407  10.950  69.698  1.00  0.00    -0.328 OA 
BRANCH   4   5
HETATM    5  C   UNL     1     -11.376  11.786  69.373  1.00  0.00    -0.272 C  
HETATM    6  O   UNL     1     -10.243  11.429  69.073  1.00  0.00    -0.193 OA 
BRANCH   5   7
HETATM    7  C   UNL     1     -11.850  13.230  69.369  1.00  0.00    -0.329 C  
BRANCH   7   8
HETATM    8  N   UNL     1     -11.537  13.920  68.103  1.00  0.00    -0.314 NA 
HETATM    9  C   UNL     1     -11.021  15.211  68.098  1.00  0.00    -0.287 C  
HETATM   10  C   UNL     1     -10.735  15.922  66.996  1.00  0.00    -0.292 C  
HETATM   11  I   UNL     1      -9.972  17.814  67.086  1.00  0.00    -0.374 I  
HETATM   12  C   UNL     1     -11.000  15.276  65.662  1.00  0.00    -0.344 C  
HETATM   13  C   UNL     1     -11.569  13.887  65.682  1.00  0.00    -0.333 C  
HETATM   14  O   UNL     1     -10.760  15.860  64.606  1.00  0.00    -0.553 OA 
HETATM   15  I   UNL     1     -11.986  12.923  63.927  1.00  0.00    -0.596 I  
HETATM   16  C   UNL     1     -11.792  13.320  66.877  1.00  0.00    -0.392 C  
ENDBRANCH   7   8
ENDBRANCH   5   7
ENDBRANCH   4   5
ENDBRANCH   3   4
ENDBRANCH   2   3
TORSDOF 5
ENDMDL
MODEL       40
REMARK 921   NORMALIZED FREE ENERGY PREDICTED BY IDOCK:   -4.48 KCAL/MOL
REMARK 922        TOTAL FREE ENERGY PREDICTED BY IDOCK:   -6.10 KCAL/MOL
REMARK 923 INTER-LIGAND FREE ENERGY PREDICTED BY IDOCK:   -5.61 KCAL/MOL
REMARK 924 INTRA-LIGAND FREE ENERGY PREDICTED BY IDOCK:   -0.49 KCAL/MOL
REMARK 927      BINDING AFFINITY PREDICTED BY RF-SCORE:    0.00 PKD
ROOT
HETATM    1  C   UNL     1     -10.591  11.566  66.140  1.00  0.00    -0.314 C  
HETATM    2  C   UNL     1     -10.655  11.368  64.632  1.00  0.00    -0.380 C  
ENDROOT
BRANCH   2   3
HETATM    3  C   UNL     1     -11.923  11.999  64.071  1.00  0.00    -0.403 C  
BRANCH   3   4
HETATM    4  O   UNL     1     -11.701  13.353  63.654  1.00  0.00    -0.411 OA 
BRANCH   4   5
HETATM    5  C   UNL     1     -12.237  14.323  64.454  1.00  0.00    -0.447 C  
HETATM    6  O   UNL     1     -13.138  14.152  65.266  1.00  0.00    -0.763 OA 
BRANCH   5   7
HETATM    7  C   UNL     1     -11.509  15.641  64.243  1.00  0.00    -0.193 C  
BRANCH   7   8
HETATM    8  N   UNL     1     -10.697  16.026  65.413  1.00  0.00    -0.393 NA 
HETATM    9  C   UNL     1     -10.742  17.318  65.924  1.00  0.00    -0.126 C  
HETATM   10  C   UNL     1     -10.018  17.761  66.964  1.00  0.00    -0.322 C  
HETATM   11  I   UNL     1     -10.156  19.679  67.651  1.00  0.00    -0.614 I  
HETATM   12  C   UNL     1      -9.078  16.787  67.624  1.00  0.00    -0.218 C  
HETATM   13  C   UNL     1      -9.029  15.399  67.054  1.00  0.00    -0.231 C  
HETATM   14  O   UNL     1      -8.384  17.115  68.585  1.00  0.00    -0.250 OA 
HETATM   15  I   UNL     1      -7.772  14.002  67.861  1.00  0.00    -0.230 I  
HETATM   16  C   UNL     1      -9.826  15.123  66.010  1.00  0.00    -0.320 C  
ENDBRANCH   7   8
ENDBRANCH   5   7
ENDBRANCH   4   5
ENDBRANCH   3   4
ENDBRANCH   2   3
TORSDOF 5
ENDMDL
MODEL       41
REMARK 921   NORMALIZED FREE ENERGY PREDICTED BY IDOCK:   -4.48 KCAL/MOL
REMARK 922        TOTAL FREE ENERGY PREDICTED BY IDOCK:   -6.10 KCAL/MOL
REMARK 923 INTER-LIGAND FREE ENERGY PREDICTED BY IDOCK:   -5.76 KCAL/MOL
REMARK 924 INTRA-LIGAND FREE ENERGY PREDICTED BY IDOCK:   -0.34 KCAL/MOL
REMARK 927      BINDING AFFINITY PREDICTED BY RF-SCORE:    0.00 PKD
ROOT
HETATM    1  C   UNL     1      -6.503  21.020  67.633  1.00  0.00    -0.417 C  
HETATM    2  C   UNL     1      -6.705  19.805  68.528  1.00  0.00    -0.331 C  
ENDROOT
BRANCH   2   3
HETATM    3  C   UNL     1      -8.184  19.443  68.598  1.00  0.00    -0.364 C  
BRANCH   3   4
HETATM    4  O   UNL     1      -8.938  20.094  67.565  1.00  0.00    -0.332 OA 
BRANCH   4   5
HETATM    5  C   UNL     1      -9.861  19.320  66.919  1.00  0.00    -0.342 C  
HETATM    6  O   UNL     1     -11.020  19.645  66.688  1.00  0.00    -0.424 OA 
BRANCH   5   7
HETATM    7  C   UNL     1      -9.227  18.016  66.461  1.00  0.00    -0.275 C  
BRANCH   7   8
HETATM    8  N   UNL     1     -10.057  16.842  66.791  1.00  0.00    -0.284 NA 
HETATM    9  C   UNL     1     -10.527  16.636  68.083  1.00  0.00    -0.321 C  
HETATM   10  C   UNL     1     -11.262  15.584  68.476  1.00  0.00    -0.333 C  
HETATM   11  I   UNL     1     -11.915  15.367  70.399  1.00  0.00    -0.490 I  
HETATM   12  C   UNL     1     -11.598  14.542  67.442  1.00  0.00    -0.385 C  
HETATM   13  C   UNL     1     -11.073  14.771  66.054  1.00  0.00    -0.330 C  
HETATM   14  O   UNL     1     -12.271  13.552  67.723  1.00  0.00    -0.311 OA 
HETATM   15  I   UNL     1     -11.454  13.410  64.575  1.00  0.00    -0.456 I  
HETATM   16  C   UNL     1     -10.355  15.883  65.832  1.00  0.00    -0.365 C  
ENDBRANCH   7   8
ENDBRANCH   5   7
ENDBRANCH   4   5
ENDBRANCH   3   4
ENDBRANCH   2   3
TORSDOF 5
ENDMDL
MODEL       42
REMARK 921   NORMALIZED FREE ENERGY PREDICTED BY IDOCK:   -4.48 KCAL/MOL
REMARK 922        TOTAL FREE ENERGY PREDICTED BY IDOCK:   -6.10 KCAL/MOL
REMARK 923 INTER-LIGAND FREE ENERGY PREDICTED BY IDOCK:   -5.98 KCAL/MOL
REMARK 924 INTRA-LIGAND FREE ENERGY PREDICTED BY IDOCK:   -0.12 KCAL/MOL
REMARK 927      BINDING AFFINITY PREDICTED BY RF-SCORE:    0.00 PKD
ROOT
HETATM    1  C   UNL     1     -13.969   8.707  72.015  1.00  0.00    -0.506 C  
HETATM    2  C   UNL     1     -13.254  10.045  71.890  1.00  0.00    -0.557 C  
ENDROOT
BRANCH   2   3
HETATM    3  C   UNL     1     -12.213   9.985  70.779  1.00  0.00    -0.315 C  
BRANCH   3   4
HETATM    4  O   UNL     1     -12.513  10.907  69.722  1.00  0.00    -0.311 OA 
BRANCH   4   5
HETATM    5  C   UNL     1     -11.508  11.763  69.369  1.00  0.00    -0.307 C  
HETATM    6  O   UNL     1     -10.375  11.428  69.041  1.00  0.00    -0.201 OA 
BRANCH   5   7
HETATM    7  C   UNL     1     -12.012  13.198  69.373  1.00  0.00    -0.291 C  
BRANCH   7   8
HETATM    8  N   UNL     1     -11.697  13.906  68.118  1.00  0.00    -0.334 NA 
HETATM    9  C   UNL     1     -11.839  13.280  66.885  1.00  0.00    -0.392 C  
HETATM   10  C   UNL     1     -11.550  13.838  65.699  1.00  0.00    -0.330 C  
HETATM   11  I   UNL     1     -11.797  12.841  63.934  1.00  0.00    -0.648 I  
HETATM   12  C   UNL     1     -11.022  15.249  65.703  1.00  0.00    -0.344 C  
HETATM   13  C   UNL     1     -10.861  15.909  67.042  1.00  0.00    -0.252 C  
HETATM   14  O   UNL     1     -10.738  15.831  64.658  1.00  0.00    -0.497 OA 
HETATM   15  I   UNL     1     -10.134  17.817  67.165  1.00  0.00    -0.373 I  
HETATM   16  C   UNL     1     -11.203  15.204  68.132  1.00  0.00    -0.320 C  
ENDBRANCH   7   8
ENDBRANCH   5   7
ENDBRANCH   4   5
ENDBRANCH   3   4
ENDBRANCH   2   3
TORSDOF 5
ENDMDL
MODEL       43
REMARK 921   NORMALIZED FREE ENERGY PREDICTED BY IDOCK:   -4.47 KCAL/MOL
REMARK 922        TOTAL FREE ENERGY PREDICTED BY IDOCK:   -6.09 KCAL/MOL
REMARK 923 INTER-LIGAND FREE ENERGY PREDICTED BY IDOCK:   -5.84 KCAL/MOL
REMARK 924 INTRA-LIGAND FREE ENERGY PREDICTED BY IDOCK:   -0.25 KCAL/MOL
REMARK 927      BINDING AFFINITY PREDICTED BY RF-SCORE:    0.00 PKD
ROOT
HETATM    1  C   UNL     1     -14.333   7.843  71.532  1.00  0.00    -0.563 C  
HETATM    2  C   UNL     1     -13.543   8.863  72.340  1.00  0.00    -0.500 C  
ENDROOT
BRANCH   2   3
HETATM    3  C   UNL     1     -13.067   9.995  71.439  1.00  0.00    -0.417 C  
BRANCH   3   4
HETATM    4  O   UNL     1     -11.637  10.016  71.325  1.00  0.00    -0.367 OA 
BRANCH   4   5
HETATM    5  C   UNL     1     -11.137  10.407  70.114  1.00  0.00    -0.314 C  
HETATM    6  O   UNL     1     -10.051  10.075  69.656  1.00  0.00    -0.210 OA 
BRANCH   5   7
HETATM    7  C   UNL     1     -12.155  11.264  69.378  1.00  0.00    -0.315 C  
BRANCH   7   8
HETATM    8  N   UNL     1     -11.898  12.707  69.544  1.00  0.00    -0.318 NA 
HETATM    9  C   UNL     1     -11.248  13.439  68.557  1.00  0.00    -0.283 C  
HETATM   10  C   UNL     1     -10.948  14.745  68.637  1.00  0.00    -0.255 C  
HETATM   11  I   UNL     1      -9.995  15.741  67.130  1.00  0.00    -0.266 I  
HETATM   12  C   UNL     1     -11.338  15.473  69.897  1.00  0.00    -0.314 C  
HETATM   13  C   UNL     1     -12.027  14.669  70.960  1.00  0.00    -0.339 C  
HETATM   14  O   UNL     1     -11.103  16.671  70.044  1.00  0.00    -0.312 OA 
HETATM   15  I   UNL     1     -12.584  15.553  72.718  1.00  0.00    -0.739 I  
HETATM   16  C   UNL     1     -12.253  13.369  70.712  1.00  0.00    -0.328 C  
ENDBRANCH   7   8
ENDBRANCH   5   7
ENDBRANCH   4   5
ENDBRANCH   3   4
ENDBRANCH   2   3
TORSDOF 5
ENDMDL
MODEL       44
REMARK 921   NORMALIZED FREE ENERGY PREDICTED BY IDOCK:   -4.47 KCAL/MOL
REMARK 922        TOTAL FREE ENERGY PREDICTED BY IDOCK:   -6.09 KCAL/MOL
REMARK 923 INTER-LIGAND FREE ENERGY PREDICTED BY IDOCK:   -5.57 KCAL/MOL
REMARK 924 INTRA-LIGAND FREE ENERGY PREDICTED BY IDOCK:   -0.52 KCAL/MOL
REMARK 927      BINDING AFFINITY PREDICTED BY RF-SCORE:    0.00 PKD
ROOT
HETATM    1  C   UNL     1     -10.282  11.599  63.334  1.00  0.00    -0.471 C  
HETATM    2  C   UNL     1     -11.767  11.726  63.645  1.00  0.00    -0.517 C  
ENDROOT
BRANCH   2   3
HETATM    3  C   UNL     1     -12.218  13.172  63.480  1.00  0.00    -0.476 C  
BRANCH   3   4
HETATM    4  O   UNL     1     -12.701  13.721  64.714  1.00  0.00    -0.647 OA 
BRANCH   4   5
HETATM    5  C   UNL     1     -11.798  14.442  65.444  1.00  0.00    -0.366 C  
HETATM    6  O   UNL     1     -10.917  15.154  64.977  1.00  0.00    -0.381 OA 
BRANCH   5   7
HETATM    7  C   UNL     1     -12.083  14.291  66.930  1.00  0.00    -0.409 C  
BRANCH   7   8
HETATM    8  N   UNL     1     -11.487  13.064  67.494  1.00  0.00    -0.308 NA 
HETATM    9  C   UNL     1     -12.012  12.471  68.636  1.00  0.00    -0.224 C  
HETATM   10  C   UNL     1     -11.517  11.374  69.231  1.00  0.00    -0.303 C  
HETATM   11  I   UNL     1     -12.360  10.568  70.908  1.00  0.00    -0.545 I  
HETATM   12  C   UNL     1     -10.295  10.740  68.620  1.00  0.00    -0.192 C  
HETATM   13  C   UNL     1      -9.732  11.398  67.394  1.00  0.00    -0.181 C  
HETATM   14  O   UNL     1      -9.786   9.731  69.103  1.00  0.00    -0.167 OA 
HETATM   15  I   UNL     1      -8.062  10.633  66.493  1.00  0.00    -0.152 I  
HETATM   16  C   UNL     1     -10.356  12.492  66.928  1.00  0.00    -0.229 C  
ENDBRANCH   7   8
ENDBRANCH   5   7
ENDBRANCH   4   5
ENDBRANCH   3   4
ENDBRANCH   2   3
TORSDOF 5
ENDMDL
MODEL       45
REMARK 921   NORMALIZED FREE ENERGY PREDICTED BY IDOCK:   -4.46 KCAL/MOL
REMARK 922        TOTAL FREE ENERGY PREDICTED BY IDOCK:   -6.08 KCAL/MOL
REMARK 923 INTER-LIGAND FREE ENERGY PREDICTED BY IDOCK:   -5.89 KCAL/MOL
REMARK 924 INTRA-LIGAND FREE ENERGY PREDICTED BY IDOCK:   -0.20 KCAL/MOL
REMARK 927      BINDING AFFINITY PREDICTED BY RF-SCORE:    0.00 PKD
ROOT
HETATM    1  C   UNL     1     -12.428  15.108  74.033  1.00  0.00    -0.712 C  
HETATM    2  C   UNL     1     -13.391  15.957  73.215  1.00  0.00    -0.660 C  
ENDROOT
BRANCH   2   3
HETATM    3  C   UNL     1     -13.689  15.280  71.883  1.00  0.00    -0.499 C  
BRANCH   3   4
HETATM    4  O   UNL     1     -12.838  15.770  70.838  1.00  0.00    -0.468 OA 
BRANCH   4   5
HETATM    5  C   UNL     1     -12.322  14.828  69.993  1.00  0.00    -0.316 C  
HETATM    6  O   UNL     1     -12.372  13.617  70.167  1.00  0.00    -0.331 OA 
BRANCH   5   7
HETATM    7  C   UNL     1     -11.730  15.495  68.760  1.00  0.00    -0.357 C  
BRANCH   7   8
HETATM    8  N   UNL     1     -11.106  14.523  67.842  1.00  0.00    -0.269 NA 
HETATM    9  C   UNL     1     -11.787  14.049  66.727  1.00  0.00    -0.424 C  
HETATM   10  C   UNL     1     -11.307  13.146  65.858  1.00  0.00    -0.311 C  
HETATM   11  I   UNL     1     -12.380  12.511  64.240  1.00  0.00    -0.436 I  
HETATM   12  C   UNL     1      -9.929  12.596  66.114  1.00  0.00    -0.261 C  
HETATM   13  C   UNL     1      -9.209  13.107  67.329  1.00  0.00    -0.221 C  
HETATM   14  O   UNL     1      -9.417  11.769  65.361  1.00  0.00    -0.218 OA 
HETATM   15  I   UNL     1      -7.339  12.414  67.782  1.00  0.00    -0.170 I  
HETATM   16  C   UNL     1      -9.837  14.016  68.091  1.00  0.00    -0.235 C  
ENDBRANCH   7   8
ENDBRANCH   5   7
ENDBRANCH   4   5
ENDBRANCH   3   4
ENDBRANCH   2   3
TORSDOF 5
ENDMDL
MODEL       46
REMARK 921   NORMALIZED FREE ENERGY PREDICTED BY IDOCK:   -4.44 KCAL/MOL
REMARK 922        TOTAL FREE ENERGY PREDICTED BY IDOCK:   -6.06 KCAL/MOL
REMARK 923 INTER-LIGAND FREE ENERGY PREDICTED BY IDOCK:   -5.81 KCAL/MOL
REMARK 924 INTRA-LIGAND FREE ENERGY PREDICTED BY IDOCK:   -0.24 KCAL/MOL
REMARK 927      BINDING AFFINITY PREDICTED BY RF-SCORE:    0.00 PKD
ROOT
HETATM    1  C   UNL     1     -11.662  12.426  63.475  1.00  0.00    -0.592 C  
HETATM    2  C   UNL     1     -11.794  13.599  64.436  1.00  0.00    -0.460 C  
ENDROOT
BRANCH   2   3
HETATM    3  C   UNL     1     -10.416  14.091  64.860  1.00  0.00    -0.431 C  
BRANCH   3   4
HETATM    4  O   UNL     1     -10.463  15.436  65.356  1.00  0.00    -0.342 OA 
BRANCH   4   5
HETATM    5  C   UNL     1      -9.971  15.628  66.617  1.00  0.00    -0.258 C  
HETATM    6  O   UNL     1      -8.798  15.499  66.946  1.00  0.00    -0.216 OA 
BRANCH   5   7
HETATM    7  C   UNL     1     -11.079  16.093  67.549  1.00  0.00    -0.175 C  
BRANCH   7   8
HETATM    8  N   UNL     1     -11.446  15.064  68.541  1.00  0.00    -0.303 NA 
HETATM    9  C   UNL     1     -11.190  13.718  68.307  1.00  0.00    -0.273 C  
HETATM   10  C   UNL     1     -11.516  12.716  69.139  1.00  0.00    -0.304 C  
HETATM   11  I   UNL     1     -11.093  10.764  68.713  1.00  0.00    -0.393 I  
HETATM   12  C   UNL     1     -12.220  13.075  70.421  1.00  0.00    -0.310 C  
HETATM   13  C   UNL     1     -12.502  14.531  70.655  1.00  0.00    -0.343 C  
HETATM   14  O   UNL     1     -12.547  12.215  71.237  1.00  0.00    -0.342 OA 
HETATM   15  I   UNL     1     -13.471  15.129  72.354  1.00  0.00    -0.725 I  
HETATM   16  C   UNL     1     -12.103  15.404  69.717  1.00  0.00    -0.347 C  
ENDBRANCH   7   8
ENDBRANCH   5   7
ENDBRANCH   4   5
ENDBRANCH   3   4
ENDBRANCH   2   3
TORSDOF 5
ENDMDL
MODEL       47
REMARK 921   NORMALIZED FREE ENERGY PREDICTED BY IDOCK:   -4.43 KCAL/MOL
REMARK 922        TOTAL FREE ENERGY PREDICTED BY IDOCK:   -6.04 KCAL/MOL
REMARK 923 INTER-LIGAND FREE ENERGY PREDICTED BY IDOCK:   -5.54 KCAL/MOL
REMARK 924 INTRA-LIGAND FREE ENERGY PREDICTED BY IDOCK:   -0.50 KCAL/MOL
REMARK 927      BINDING AFFINITY PREDICTED BY RF-SCORE:    0.00 PKD
ROOT
HETATM    1  C   UNL     1     -10.615  11.559  66.157  1.00  0.00    -0.314 C  
HETATM    2  C   UNL     1     -10.753  11.338  64.657  1.00  0.00    -0.371 C  
ENDROOT
BRANCH   2   3
HETATM    3  C   UNL     1     -12.015  12.016  64.139  1.00  0.00    -0.369 C  
BRANCH   3   4
HETATM    4  O   UNL     1     -11.741  13.331  63.635  1.00  0.00    -0.440 OA 
BRANCH   4   5
HETATM    5  C   UNL     1     -12.183  14.372  64.403  1.00  0.00    -0.458 C  
HETATM    6  O   UNL     1     -13.078  14.307  65.236  1.00  0.00    -0.707 OA 
BRANCH   5   7
HETATM    7  C   UNL     1     -11.355  15.617  64.126  1.00  0.00    -0.022 C  
BRANCH   7   8
HETATM    8  N   UNL     1     -10.550  16.026  65.292  1.00  0.00    -0.504 NA 
HETATM    9  C   UNL     1      -9.762  15.109  65.977  1.00  0.00    -0.330 C  
HETATM   10  C   UNL     1      -9.022  15.388  67.062  1.00  0.00    -0.231 C  
HETATM   11  I   UNL     1      -7.887  13.973  68.002  1.00  0.00    -0.217 I  
HETATM   12  C   UNL     1      -9.054  16.800  67.583  1.00  0.00    -0.218 C  
HETATM   13  C   UNL     1      -9.919  17.778  66.842  1.00  0.00    -0.332 C  
HETATM   14  O   UNL     1      -8.400  17.135  68.569  1.00  0.00    -0.245 OA 
HETATM   15  I   UNL     1     -10.051  19.718  67.475  1.00  0.00    -0.593 I  
HETATM   16  C   UNL     1     -10.591  17.330  65.770  1.00  0.00    -0.194 C  
ENDBRANCH   7   8
ENDBRANCH   5   7
ENDBRANCH   4   5
ENDBRANCH   3   4
ENDBRANCH   2   3
TORSDOF 5
ENDMDL
MODEL       48
REMARK 921   NORMALIZED FREE ENERGY PREDICTED BY IDOCK:   -4.43 KCAL/MOL
REMARK 922        TOTAL FREE ENERGY PREDICTED BY IDOCK:   -6.04 KCAL/MOL
REMARK 923 INTER-LIGAND FREE ENERGY PREDICTED BY IDOCK:   -5.70 KCAL/MOL
REMARK 924 INTRA-LIGAND FREE ENERGY PREDICTED BY IDOCK:   -0.34 KCAL/MOL
REMARK 927      BINDING AFFINITY PREDICTED BY RF-SCORE:    0.00 PKD
ROOT
HETATM    1  C   UNL     1      -6.467  21.070  67.401  1.00  0.00    -0.427 C  
HETATM    2  C   UNL     1      -6.546  19.836  68.290  1.00  0.00    -0.303 C  
ENDROOT
BRANCH   2   3
HETATM    3  C   UNL     1      -8.001  19.467  68.551  1.00  0.00    -0.348 C  
BRANCH   3   4
HETATM    4  O   UNL     1      -8.887  20.128  67.636  1.00  0.00    -0.328 OA 
BRANCH   4   5
HETATM    5  C   UNL     1      -9.805  19.332  67.010  1.00  0.00    -0.340 C  
HETATM    6  O   UNL     1     -10.964  19.645  66.765  1.00  0.00    -0.444 OA 
BRANCH   5   7
HETATM    7  C   UNL     1      -9.164  18.016  66.595  1.00  0.00    -0.284 C  
BRANCH   7   8
HETATM    8  N   UNL     1      -9.990  16.850  66.962  1.00  0.00    -0.270 NA 
HETATM    9  C   UNL     1     -10.411  15.939  66.001  1.00  0.00    -0.345 C  
HETATM   10  C   UNL     1     -11.186  14.869  66.240  1.00  0.00    -0.331 C  
HETATM   11  I   UNL     1     -11.751  13.578  64.762  1.00  0.00    -0.494 I  
HETATM   12  C   UNL     1     -11.642  14.642  67.657  1.00  0.00    -0.361 C  
HETATM   13  C   UNL     1     -11.190  15.641  68.683  1.00  0.00    -0.338 C  
HETATM   14  O   UNL     1     -12.349  13.682  67.958  1.00  0.00    -0.238 OA 
HETATM   15  I   UNL     1     -11.766  15.440  70.635  1.00  0.00    -0.531 I  
HETATM   16  C   UNL     1     -10.412  16.653  68.270  1.00  0.00    -0.321 C  
ENDBRANCH   7   8
ENDBRANCH   5   7
ENDBRANCH   4   5
ENDBRANCH   3   4
ENDBRANCH   2   3
TORSDOF 5
ENDMDL
MODEL       49
REMARK 921   NORMALIZED FREE ENERGY PREDICTED BY IDOCK:   -4.42 KCAL/MOL
REMARK 922        TOTAL FREE ENERGY PREDICTED BY IDOCK:   -6.02 KCAL/MOL
REMARK 923 INTER-LIGAND FREE ENERGY PREDICTED BY IDOCK:   -5.59 KCAL/MOL
REMARK 924 INTRA-LIGAND FREE ENERGY PREDICTED BY IDOCK:   -0.43 KCAL/MOL
REMARK 927      BINDING AFFINITY PREDICTED BY RF-SCORE:    0.00 PKD
ROOT
HETATM    1  C   UNL     1     -10.094   9.080  67.907  1.00  0.00    -0.246 C  
HETATM    2  C   UNL     1     -10.368   9.545  66.483  1.00  0.00    -0.263 C  
ENDROOT
BRANCH   2   3
HETATM    3  C   UNL     1     -10.345  11.067  66.413  1.00  0.00    -0.250 C  
BRANCH   3   4
HETATM    4  O   UNL     1     -11.664  11.622  66.519  1.00  0.00    -0.498 OA 
BRANCH   4   5
HETATM    5  C   UNL     1     -11.736  12.924  66.927  1.00  0.00    -0.382 C  
HETATM    6  O   UNL     1     -12.443  13.787  66.421  1.00  0.00    -0.423 OA 
BRANCH   5   7
HETATM    7  C   UNL     1     -10.860  13.141  68.151  1.00  0.00    -0.251 C  
BRANCH   7   8
HETATM    8  N   UNL     1     -11.598  12.939  69.412  1.00  0.00    -0.300 NA 
HETATM    9  C   UNL     1     -11.854  11.662  69.898  1.00  0.00    -0.358 C  
HETATM   10  C   UNL     1     -12.541  11.387  71.018  1.00  0.00    -0.386 C  
HETATM   11  I   UNL     1     -12.863   9.474  71.658  1.00  0.00    -0.554 I  
HETATM   12  C   UNL     1     -13.084  12.550  71.806  1.00  0.00    -0.347 C  
HETATM   13  C   UNL     1     -12.812  13.923  71.263  1.00  0.00    -0.360 C  
HETATM   14  O   UNL     1     -13.720  12.380  72.845  1.00  0.00    -0.051 OA 
HETATM   15  I   UNL     1     -13.519  15.573  72.243  1.00  0.00    -0.571 I  
HETATM   16  C   UNL     1     -12.102  14.017  70.128  1.00  0.00    -0.351 C  
ENDBRANCH   7   8
ENDBRANCH   5   7
ENDBRANCH   4   5
ENDBRANCH   3   4
ENDBRANCH   2   3
TORSDOF 5
ENDMDL
MODEL       50
REMARK 921   NORMALIZED FREE ENERGY PREDICTED BY IDOCK:   -4.39 KCAL/MOL
REMARK 922        TOTAL FREE ENERGY PREDICTED BY IDOCK:   -5.99 KCAL/MOL
REMARK 923 INTER-LIGAND FREE ENERGY PREDICTED BY IDOCK:   -5.63 KCAL/MOL
REMARK 924 INTRA-LIGAND FREE ENERGY PREDICTED BY IDOCK:   -0.36 KCAL/MOL
REMARK 927      BINDING AFFINITY PREDICTED BY RF-SCORE:    0.00 PKD
ROOT
HETATM    1  C   UNL     1     -11.002   5.975  70.885  1.00  0.00    -0.355 C  
HETATM    2  C   UNL     1     -12.102   6.955  71.271  1.00  0.00    -0.419 C  
ENDROOT
BRANCH   2   3
HETATM    3  C   UNL     1     -11.589   7.936  72.318  1.00  0.00    -0.350 C  
BRANCH   3   4
HETATM    4  O   UNL     1     -12.071   9.266  72.078  1.00  0.00    -0.366 OA 
BRANCH   4   5
HETATM    5  C   UNL     1     -11.482   9.939  71.045  1.00  0.00    -0.388 C  
HETATM    6  O   UNL     1     -10.290   9.905  70.765  1.00  0.00    -0.273 OA 
BRANCH   5   7
HETATM    7  C   UNL     1     -12.532  10.689  70.240  1.00  0.00    -0.304 C  
BRANCH   7   8
HETATM    8  N   UNL     1     -12.276  12.141  70.200  1.00  0.00    -0.270 NA 
HETATM    9  C   UNL     1     -12.453  12.933  71.329  1.00  0.00    -0.200 C  
HETATM   10  C   UNL     1     -12.271  14.262  71.374  1.00  0.00    -0.331 C  
HETATM   11  I   UNL     1     -12.549  15.344  73.084  1.00  0.00    -0.802 I  
HETATM   12  C   UNL     1     -11.851  14.952  70.102  1.00  0.00    -0.308 C  
HETATM   13  C   UNL     1     -11.677  14.087  68.888  1.00  0.00    -0.340 C  
HETATM   14  O   UNL     1     -11.660  16.166  70.064  1.00  0.00    -0.319 OA 
HETATM   15  I   UNL     1     -11.127  14.922  67.103  1.00  0.00    -0.311 I  
HETATM   16  C   UNL     1     -11.897  12.770  69.021  1.00  0.00    -0.297 C  
ENDBRANCH   7   8
ENDBRANCH   5   7
ENDBRANCH   4   5
ENDBRANCH   3   4
ENDBRANCH   2   3
TORSDOF 5
ENDMDL
MODEL       51
REMARK 921   NORMALIZED FREE ENERGY PREDICTED BY IDOCK:   -4.39 KCAL/MOL
REMARK 922        TOTAL FREE ENERGY PREDICTED BY IDOCK:   -5.99 KCAL/MOL
REMARK 923 INTER-LIGAND FREE ENERGY PREDICTED BY IDOCK:   -5.57 KCAL/MOL
REMARK 924 INTRA-LIGAND FREE ENERGY PREDICTED BY IDOCK:   -0.42 KCAL/MOL
REMARK 927      BINDING AFFINITY PREDICTED BY RF-SCORE:    0.00 PKD
ROOT
HETATM    1  C   UNL     1     -12.320  11.325  70.627  1.00  0.00    -0.477 C  
HETATM    2  C   UNL     1     -11.313  10.278  70.173  1.00  0.00    -0.388 C  
ENDROOT
BRANCH   2   3
HETATM    3  C   UNL     1     -11.038  10.422  68.681  1.00  0.00    -0.262 C  
BRANCH   3   4
HETATM    4  O   UNL     1     -12.058  11.191  68.027  1.00  0.00    -0.635 OA 
BRANCH   4   5
HETATM    5  C   UNL     1     -11.638  12.006  67.013  1.00  0.00    -0.317 C  
HETATM    6  O   UNL     1     -12.304  12.319  66.034  1.00  0.00    -0.609 OA 
BRANCH   5   7
HETATM    7  C   UNL     1     -10.240  12.529  67.305  1.00  0.00    -0.216 C  
BRANCH   7   8
HETATM    8  N   UNL     1     -10.258  13.885  67.886  1.00  0.00    -0.237 NA 
HETATM    9  C   UNL     1     -10.897  14.140  69.093  1.00  0.00    -0.229 C  
HETATM   10  C   UNL     1     -10.987  15.344  69.678  1.00  0.00    -0.284 C  
HETATM   11  I   UNL     1     -11.943  15.623  71.462  1.00  0.00    -0.644 I  
HETATM   12  C   UNL     1     -10.355  16.513  68.969  1.00  0.00    -0.296 C  
HETATM   13  C   UNL     1      -9.680  16.226  67.659  1.00  0.00    -0.234 C  
HETATM   14  O   UNL     1     -10.391  17.647  69.442  1.00  0.00    -0.273 OA 
HETATM   15  I   UNL     1      -8.805  17.742  66.601  1.00  0.00    -0.243 I  
HETATM   16  C   UNL     1      -9.679  14.958  67.220  1.00  0.00    -0.228 C  
ENDBRANCH   7   8
ENDBRANCH   5   7
ENDBRANCH   4   5
ENDBRANCH   3   4
ENDBRANCH   2   3
TORSDOF 5
ENDMDL
MODEL       52
REMARK 921   NORMALIZED FREE ENERGY PREDICTED BY IDOCK:   -4.36 KCAL/MOL
REMARK 922        TOTAL FREE ENERGY PREDICTED BY IDOCK:   -5.94 KCAL/MOL
REMARK 923 INTER-LIGAND FREE ENERGY PREDICTED BY IDOCK:   -5.47 KCAL/MOL
REMARK 924 INTRA-LIGAND FREE ENERGY PREDICTED BY IDOCK:   -0.47 KCAL/MOL
REMARK 927      BINDING AFFINITY PREDICTED BY RF-SCORE:    0.00 PKD
ROOT
HETATM    1  C   UNL     1     -12.400  11.112  70.719  1.00  0.00    -0.504 C  
HETATM    2  C   UNL     1     -11.482  10.025  70.179  1.00  0.00    -0.344 C  
ENDROOT
BRANCH   2   3
HETATM    3  C   UNL     1     -11.059  10.352  68.753  1.00  0.00    -0.250 C  
BRANCH   3   4
HETATM    4  O   UNL     1     -12.073  11.090  68.056  1.00  0.00    -0.615 OA 
BRANCH   4   5
HETATM    5  C   UNL     1     -11.634  11.929  67.070  1.00  0.00    -0.291 C  
HETATM    6  O   UNL     1     -12.268  12.239  66.069  1.00  0.00    -0.646 OA 
BRANCH   5   7
HETATM    7  C   UNL     1     -10.263  12.484  67.425  1.00  0.00    -0.213 C  
BRANCH   7   8
HETATM    8  N   UNL     1     -10.336  13.853  67.970  1.00  0.00    -0.239 NA 
HETATM    9  C   UNL     1      -9.744  14.922  67.308  1.00  0.00    -0.228 C  
HETATM   10  C   UNL     1      -9.738  16.191  67.745  1.00  0.00    -0.229 C  
HETATM   11  I   UNL     1      -8.846  17.701  66.698  1.00  0.00    -0.254 I  
HETATM   12  C   UNL     1     -10.415  16.479  69.059  1.00  0.00    -0.303 C  
HETATM   13  C   UNL     1     -11.039  15.314  69.770  1.00  0.00    -0.282 C  
HETATM   14  O   UNL     1     -10.456  17.617  69.524  1.00  0.00    -0.172 OA 
HETATM   15  I   UNL     1     -11.970  15.588  71.571  1.00  0.00    -0.648 I  
HETATM   16  C   UNL     1     -10.956  14.108  69.186  1.00  0.00    -0.251 C  
ENDBRANCH   7   8
ENDBRANCH   5   7
ENDBRANCH   4   5
ENDBRANCH   3   4
ENDBRANCH   2   3
TORSDOF 5
ENDMDL
MODEL       53
REMARK 921   NORMALIZED FREE ENERGY PREDICTED BY IDOCK:   -4.36 KCAL/MOL
REMARK 922        TOTAL FREE ENERGY PREDICTED BY IDOCK:   -5.94 KCAL/MOL
REMARK 923 INTER-LIGAND FREE ENERGY PREDICTED BY IDOCK:   -5.65 KCAL/MOL
REMARK 924 INTRA-LIGAND FREE ENERGY PREDICTED BY IDOCK:   -0.29 KCAL/MOL
REMARK 927      BINDING AFFINITY PREDICTED BY RF-SCORE:    0.00 PKD
ROOT
HETATM    1  C   UNL     1      -5.985  20.364  66.608  1.00  0.00    -0.215 C  
HETATM    2  C   UNL     1      -7.364  20.606  67.205  1.00  0.00    -0.389 C  
ENDROOT
BRANCH   2   3
HETATM    3  C   UNL     1      -8.418  19.823  66.431  1.00  0.00    -0.359 C  
BRANCH   3   4
HETATM    4  O   UNL     1      -8.758  18.596  67.092  1.00  0.00    -0.265 OA 
BRANCH   4   5
HETATM    5  C   UNL     1      -8.912  17.503  66.286  1.00  0.00    -0.191 C  
HETATM    6  O   UNL     1      -8.015  16.741  65.947  1.00  0.00    -0.378 OA 
BRANCH   5   7
HETATM    7  C   UNL     1     -10.377  17.324  65.917  1.00  0.00    -0.278 C  
BRANCH   7   8
HETATM    8  N   UNL     1     -10.859  15.956  66.188  1.00  0.00    -0.260 NA 
HETATM    9  C   UNL     1     -11.101  15.524  67.486  1.00  0.00    -0.305 C  
HETATM   10  C   UNL     1     -11.512  14.292  67.824  1.00  0.00    -0.329 C  
HETATM   11  I   UNL     1     -11.847  13.747  69.764  1.00  0.00    -0.323 I  
HETATM   12  C   UNL     1     -11.721  13.297  66.713  1.00  0.00    -0.385 C  
HETATM   13  C   UNL     1     -11.444  13.773  65.316  1.00  0.00    -0.312 C  
HETATM   14  O   UNL     1     -12.101  12.150  66.941  1.00  0.00    -0.600 OA 
HETATM   15  I   UNL     1     -11.677  12.500  63.733  1.00  0.00    -0.657 I  
HETATM   16  C   UNL     1     -11.042  15.044  65.157  1.00  0.00    -0.401 C  
ENDBRANCH   7   8
ENDBRANCH   5   7
ENDBRANCH   4   5
ENDBRANCH   3   4
ENDBRANCH   2   3
TORSDOF 5
ENDMDL
MODEL       54
REMARK 921   NORMALIZED FREE ENERGY PREDICTED BY IDOCK:   -4.35 KCAL/MOL
REMARK 922        TOTAL FREE ENERGY PREDICTED BY IDOCK:   -5.94 KCAL/MOL
REMARK 923 INTER-LIGAND FREE ENERGY PREDICTED BY IDOCK:   -5.65 KCAL/MOL
REMARK 924 INTRA-LIGAND FREE ENERGY PREDICTED BY IDOCK:   -0.29 KCAL/MOL
REMARK 927      BINDING AFFINITY PREDICTED BY RF-SCORE:    0.00 PKD
ROOT
HETATM    1  C   UNL     1     -11.593  12.884  64.085  1.00  0.00    -0.456 C  
HETATM    2  C   UNL     1     -12.366  14.187  64.236  1.00  0.00    -0.398 C  
ENDROOT
BRANCH   2   3
HETATM    3  C   UNL     1     -11.459  15.275  64.798  1.00  0.00    -0.363 C  
BRANCH   3   4
HETATM    4  O   UNL     1     -10.204  14.740  65.242  1.00  0.00    -0.358 OA 
BRANCH   4   5
HETATM    5  C   UNL     1      -9.702  15.269  66.399  1.00  0.00    -0.285 C  
HETATM    6  O   UNL     1      -8.515  15.318  66.698  1.00  0.00    -0.259 OA 
BRANCH   5   7
HETATM    7  C   UNL     1     -10.825  15.854  67.240  1.00  0.00    -0.279 C  
BRANCH   7   8
HETATM    8  N   UNL     1     -11.322  14.904  68.252  1.00  0.00    -0.296 NA 
HETATM    9  C   UNL     1     -11.965  15.349  69.401  1.00  0.00    -0.327 C  
HETATM   10  C   UNL     1     -12.422  14.558  70.384  1.00  0.00    -0.347 C  
HETATM   11  I   UNL     1     -13.363  15.304  72.037  1.00  0.00    -0.695 I  
HETATM   12  C   UNL     1     -12.215  13.073  70.237  1.00  0.00    -0.296 C  
HETATM   13  C   UNL     1     -11.507  12.607  68.998  1.00  0.00    -0.303 C  
HETATM   14  O   UNL     1     -12.609  12.282  71.093  1.00  0.00    -0.364 OA 
HETATM   15  I   UNL     1     -11.156  10.613  68.706  1.00  0.00    -0.363 I  
HETATM   16  C   UNL     1     -11.119  13.537  68.112  1.00  0.00    -0.257 C  
ENDBRANCH   7   8
ENDBRANCH   5   7
ENDBRANCH   4   5
ENDBRANCH   3   4
ENDBRANCH   2   3
TORSDOF 5
ENDMDL
MODEL       55
REMARK 921   NORMALIZED FREE ENERGY PREDICTED BY IDOCK:   -4.33 KCAL/MOL
REMARK 922        TOTAL FREE ENERGY PREDICTED BY IDOCK:   -5.91 KCAL/MOL
REMARK 923 INTER-LIGAND FREE ENERGY PREDICTED BY IDOCK:   -5.64 KCAL/MOL
REMARK 924 INTRA-LIGAND FREE ENERGY PREDICTED BY IDOCK:   -0.27 KCAL/MOL
REMARK 927      BINDING AFFINITY PREDICTED BY RF-SCORE:    0.00 PKD
ROOT
HETATM    1  C   UNL     1     -12.769  11.892  63.532  1.00  0.00    -0.530 C  
HETATM    2  C   UNL     1     -11.979  13.181  63.709  1.00  0.00    -0.572 C  
ENDROOT
BRANCH   2   3
HETATM    3  C   UNL     1     -11.442  13.279  65.132  1.00  0.00    -0.295 C  
BRANCH   3   4
HETATM    4  O   UNL     1     -11.949  12.224  65.962  1.00  0.00    -0.570 OA 
BRANCH   4   5
HETATM    5  C   UNL     1     -11.057  11.669  66.837  1.00  0.00    -0.308 C  
HETATM    6  O   UNL     1      -9.914  11.326  66.561  1.00  0.00    -0.202 OA 
BRANCH   5   7
HETATM    7  C   UNL     1     -11.662  11.597  68.230  1.00  0.00    -0.304 C  
BRANCH   7   8
HETATM    8  N   UNL     1     -11.565  12.881  68.951  1.00  0.00    -0.294 NA 
HETATM    9  C   UNL     1     -12.512  13.244  69.901  1.00  0.00    -0.054 C  
HETATM   10  C   UNL     1     -12.516  14.402  70.581  1.00  0.00    -0.350 C  
HETATM   11  I   UNL     1     -13.949  14.848  71.966  1.00  0.00    -0.741 I  
HETATM   12  C   UNL     1     -11.416  15.387  70.287  1.00  0.00    -0.316 C  
HETATM   13  C   UNL     1     -10.407  14.987  69.250  1.00  0.00    -0.246 C  
HETATM   14  O   UNL     1     -11.348  16.467  70.871  1.00  0.00    -0.373 OA 
HETATM   15  I   UNL     1      -8.881  16.258  68.759  1.00  0.00    -0.230 I  
HETATM   16  C   UNL     1     -10.551  13.787  68.667  1.00  0.00    -0.253 C  
ENDBRANCH   7   8
ENDBRANCH   5   7
ENDBRANCH   4   5
ENDBRANCH   3   4
ENDBRANCH   2   3
TORSDOF 5
ENDMDL
MODEL       56
REMARK 921   NORMALIZED FREE ENERGY PREDICTED BY IDOCK:   -4.33 KCAL/MOL
REMARK 922        TOTAL FREE ENERGY PREDICTED BY IDOCK:   -5.91 KCAL/MOL
REMARK 923 INTER-LIGAND FREE ENERGY PREDICTED BY IDOCK:   -5.60 KCAL/MOL
REMARK 924 INTRA-LIGAND FREE ENERGY PREDICTED BY IDOCK:   -0.31 KCAL/MOL
REMARK 927      BINDING AFFINITY PREDICTED BY RF-SCORE:    0.00 PKD
ROOT
HETATM    1  C   UNL     1     -12.286  12.274  63.372  1.00  0.00    -0.630 C  
HETATM    2  C   UNL     1     -12.061  13.404  64.366  1.00  0.00    -0.468 C  
ENDROOT
BRANCH   2   3
HETATM    3  C   UNL     1     -12.091  12.866  65.791  1.00  0.00    -0.457 C  
BRANCH   3   4
HETATM    4  O   UNL     1     -12.111  13.927  66.757  1.00  0.00    -0.423 OA 
BRANCH   4   5
HETATM    5  C   UNL     1     -11.878  13.562  68.054  1.00  0.00    -0.365 C  
HETATM    6  O   UNL     1     -11.650  12.421  68.438  1.00  0.00    -0.280 OA 
BRANCH   5   7
HETATM    7  C   UNL     1     -11.872  14.789  68.952  1.00  0.00    -0.296 C  
BRANCH   7   8
HETATM    8  N   UNL     1     -10.691  15.643  68.727  1.00  0.00    -0.239 NA 
HETATM    9  C   UNL     1      -9.419  15.222  69.096  1.00  0.00    -0.236 C  
HETATM   10  C   UNL     1      -8.297  15.945  68.954  1.00  0.00    -0.226 C  
HETATM   11  I   UNL     1      -6.465  15.238  69.521  1.00  0.00    -0.176 I  
HETATM   12  C   UNL     1      -8.424  17.321  68.358  1.00  0.00    -0.254 C  
HETATM   13  C   UNL     1      -9.805  17.769  67.975  1.00  0.00    -0.317 C  
HETATM   14  O   UNL     1      -7.442  18.043  68.191  1.00  0.00    -0.233 OA 
HETATM   15  I   UNL     1     -10.097  19.628  67.174  1.00  0.00    -0.651 I  
HETATM   16  C   UNL     1     -10.820  16.915  68.183  1.00  0.00    -0.351 C  
ENDBRANCH   7   8
ENDBRANCH   5   7
ENDBRANCH   4   5
ENDBRANCH   3   4
ENDBRANCH   2   3
TORSDOF 5
ENDMDL
MODEL       57
REMARK 921   NORMALIZED FREE ENERGY PREDICTED BY IDOCK:   -4.31 KCAL/MOL
REMARK 922        TOTAL FREE ENERGY PREDICTED BY IDOCK:   -5.88 KCAL/MOL
REMARK 923 INTER-LIGAND FREE ENERGY PREDICTED BY IDOCK:   -5.53 KCAL/MOL
REMARK 924 INTRA-LIGAND FREE ENERGY PREDICTED BY IDOCK:   -0.35 KCAL/MOL
REMARK 927      BINDING AFFINITY PREDICTED BY RF-SCORE:    0.00 PKD
ROOT
HETATM    1  C   UNL     1     -12.554  15.794  74.263  1.00  0.00    -0.734 C  
HETATM    2  C   UNL     1     -13.532  15.883  73.100  1.00  0.00    -0.650 C  
ENDROOT
BRANCH   2   3
HETATM    3  C   UNL     1     -13.463  14.617  72.255  1.00  0.00    -0.408 C  
BRANCH   3   4
HETATM    4  O   UNL     1     -13.362  14.918  70.856  1.00  0.00    -0.375 OA 
BRANCH   4   5
HETATM    5  C   UNL     1     -12.103  14.884  70.325  1.00  0.00    -0.325 C  
HETATM    6  O   UNL     1     -11.106  15.383  70.833  1.00  0.00    -0.324 OA 
BRANCH   5   7
HETATM    7  C   UNL     1     -12.098  14.076  69.037  1.00  0.00    -0.323 C  
BRANCH   7   8
HETATM    8  N   UNL     1     -11.475  12.750  69.210  1.00  0.00    -0.288 NA 
HETATM    9  C   UNL     1     -11.990  11.827  70.113  1.00  0.00    -0.339 C  
HETATM   10  C   UNL     1     -11.471  10.613  70.354  1.00  0.00    -0.334 C  
HETATM   11  I   UNL     1     -12.303   9.318  71.698  1.00  0.00    -0.493 I  
HETATM   12  C   UNL     1     -10.231  10.221  69.595  1.00  0.00    -0.235 C  
HETATM   13  C   UNL     1      -9.677  11.232  68.633  1.00  0.00    -0.195 C  
HETATM   14  O   UNL     1      -9.699   9.124  69.757  1.00  0.00    -0.167 OA 
HETATM   15  I   UNL     1      -7.985  10.812  67.563  1.00  0.00    -0.117 I  
HETATM   16  C   UNL     1     -10.326  12.401  68.511  1.00  0.00    -0.221 C  
ENDBRANCH   7   8
ENDBRANCH   5   7
ENDBRANCH   4   5
ENDBRANCH   3   4
ENDBRANCH   2   3
TORSDOF 5
ENDMDL
MODEL       58
REMARK 921   NORMALIZED FREE ENERGY PREDICTED BY IDOCK:   -4.30 KCAL/MOL
REMARK 922        TOTAL FREE ENERGY PREDICTED BY IDOCK:   -5.88 KCAL/MOL
REMARK 923 INTER-LIGAND FREE ENERGY PREDICTED BY IDOCK:   -5.47 KCAL/MOL
REMARK 924 INTRA-LIGAND FREE ENERGY PREDICTED BY IDOCK:   -0.41 KCAL/MOL
REMARK 927      BINDING AFFINITY PREDICTED BY RF-SCORE:    0.00 PKD
ROOT
HETATM    1  C   UNL     1     -12.459  13.409  65.599  1.00  0.00    -0.519 C  
HETATM    2  C   UNL     1     -11.967  13.967  66.927  1.00  0.00    -0.479 C  
ENDROOT
BRANCH   2   3
HETATM    3  C   UNL     1     -11.771  12.840  67.933  1.00  0.00    -0.357 C  
BRANCH   3   4
HETATM    4  O   UNL     1     -11.888  11.551  67.313  1.00  0.00    -0.609 OA 
BRANCH   4   5
HETATM    5  C   UNL     1     -10.941  10.629  67.664  1.00  0.00    -0.310 C  
HETATM    6  O   UNL     1     -10.672   9.615  67.031  1.00  0.00    -0.230 OA 
BRANCH   5   7
HETATM    7  C   UNL     1     -10.216  11.074  68.924  1.00  0.00    -0.203 C  
BRANCH   7   8
HETATM    8  N   UNL     1     -10.456  10.165  70.061  1.00  0.00    -0.277 NA 
HETATM    9  C   UNL     1      -9.412   9.466  70.655  1.00  0.00    -0.262 C  
HETATM   10  C   UNL     1      -9.545   8.599  71.671  1.00  0.00    -0.274 C  
HETATM   11  I   UNL     1      -7.948   7.621  72.486  1.00  0.00    -0.181 I  
HETATM   12  C   UNL     1     -10.932   8.358  72.204  1.00  0.00    -0.341 C  
HETATM   13  C   UNL     1     -12.053   9.109  71.546  1.00  0.00    -0.351 C  
HETATM   14  O   UNL     1     -11.135   7.582  73.137  1.00  0.00    -0.383 OA 
HETATM   15  I   UNL     1     -13.979   8.842  72.178  1.00  0.00    -0.397 I  
HETATM   16  C   UNL     1     -11.741   9.942  70.541  1.00  0.00    -0.295 C  
ENDBRANCH   7   8
ENDBRANCH   5   7
ENDBRANCH   4   5
ENDBRANCH   3   4
ENDBRANCH   2   3
TORSDOF 5
ENDMDL
MODEL       59
REMARK 921   NORMALIZED FREE ENERGY PREDICTED BY IDOCK:   -4.28 KCAL/MOL
REMARK 922        TOTAL FREE ENERGY PREDICTED BY IDOCK:   -5.84 KCAL/MOL
REMARK 923 INTER-LIGAND FREE ENERGY PREDICTED BY IDOCK:   -5.60 KCAL/MOL
REMARK 924 INTRA-LIGAND FREE ENERGY PREDICTED BY IDOCK:   -0.24 KCAL/MOL
REMARK 927      BINDING AFFINITY PREDICTED BY RF-SCORE:    0.00 PKD
ROOT
HETATM    1  C   UNL     1      -5.663  20.456  63.459  1.00  0.00    -0.302 C  
HETATM    2  C   UNL     1      -5.774  19.098  64.136  1.00  0.00    -0.317 C  
ENDROOT
BRANCH   2   3
HETATM    3  C   UNL     1      -6.474  19.235  65.482  1.00  0.00    -0.264 C  
BRANCH   3   4
HETATM    4  O   UNL     1      -7.628  18.387  65.567  1.00  0.00    -0.510 OA 
BRANCH   4   5
HETATM    5  C   UNL     1      -8.237  18.325  66.790  1.00  0.00    -0.253 C  
HETATM    6  O   UNL     1      -7.660  18.345  67.870  1.00  0.00    -0.237 OA 
BRANCH   5   7
HETATM    7  C   UNL     1      -9.748  18.293  66.623  1.00  0.00    -0.339 C  
BRANCH   7   8
HETATM    8  N   UNL     1     -10.324  16.980  66.970  1.00  0.00    -0.309 NA 
HETATM    9  C   UNL     1     -10.504  15.998  66.003  1.00  0.00    -0.345 C  
HETATM   10  C   UNL     1     -11.044  14.789  66.225  1.00  0.00    -0.341 C  
HETATM   11  I   UNL     1     -11.264  13.404  64.740  1.00  0.00    -0.445 I  
HETATM   12  C   UNL     1     -11.500  14.475  67.625  1.00  0.00    -0.353 C  
HETATM   13  C   UNL     1     -11.312  15.549  68.656  1.00  0.00    -0.344 C  
HETATM   14  O   UNL     1     -12.001  13.388  67.909  1.00  0.00    -0.351 OA 
HETATM   15  I   UNL     1     -11.912  15.237  70.586  1.00  0.00    -0.541 I  
HETATM   16  C   UNL     1     -10.748  16.702  68.263  1.00  0.00    -0.351 C  
ENDBRANCH   7   8
ENDBRANCH   5   7
ENDBRANCH   4   5
ENDBRANCH   3   4
ENDBRANCH   2   3
TORSDOF 5
ENDMDL
MODEL       60
REMARK 921   NORMALIZED FREE ENERGY PREDICTED BY IDOCK:   -4.27 KCAL/MOL
REMARK 922        TOTAL FREE ENERGY PREDICTED BY IDOCK:   -5.83 KCAL/MOL
REMARK 923 INTER-LIGAND FREE ENERGY PREDICTED BY IDOCK:   -5.73 KCAL/MOL
REMARK 924 INTRA-LIGAND FREE ENERGY PREDICTED BY IDOCK:   -0.10 KCAL/MOL
REMARK 927      BINDING AFFINITY PREDICTED BY RF-SCORE:    0.00 PKD
ROOT
HETATM    1  C   UNL     1     -10.613  11.803  63.565  1.00  0.00    -0.499 C  
HETATM    2  C   UNL     1     -12.128  11.904  63.667  1.00  0.00    -0.580 C  
ENDROOT
BRANCH   2   3
HETATM    3  C   UNL     1     -12.520  13.062  64.576  1.00  0.00    -0.363 C  
BRANCH   3   4
HETATM    4  O   UNL     1     -12.318  14.330  63.935  1.00  0.00    -0.697 OA 
BRANCH   4   5
HETATM    5  C   UNL     1     -11.678  15.282  64.679  1.00  0.00    -0.308 C  
HETATM    6  O   UNL     1     -11.365  16.398  64.282  1.00  0.00    -0.892 OA 
BRANCH   5   7
HETATM    7  C   UNL     1     -11.467  14.786  66.101  1.00  0.00    -0.311 C  
BRANCH   7   8
HETATM    8  N   UNL     1     -10.446  15.568  66.822  1.00  0.00    -0.290 NA 
HETATM    9  C   UNL     1     -10.687  16.881  67.208  1.00  0.00    -0.208 C  
HETATM   10  C   UNL     1      -9.806  17.672  67.840  1.00  0.00    -0.300 C  
HETATM   11  I   UNL     1     -10.253  19.593  68.374  1.00  0.00    -0.249 I  
HETATM   12  C   UNL     1      -8.449  17.098  68.149  1.00  0.00    -0.227 C  
HETATM   13  C   UNL     1      -8.197  15.683  67.716  1.00  0.00    -0.145 C  
HETATM   14  O   UNL     1      -7.590  17.758  68.730  1.00  0.00    -0.273 OA 
HETATM   15  I   UNL     1      -6.382  14.809  68.068  1.00  0.00    -0.168 I  
HETATM   16  C   UNL     1      -9.194  15.032  67.095  1.00  0.00    -0.216 C  
ENDBRANCH   7   8
ENDBRANCH   5   7
ENDBRANCH   4   5
ENDBRANCH   3   4
ENDBRANCH   2   3
TORSDOF 5
ENDMDL
MODEL       61
REMARK 921   NORMALIZED FREE ENERGY PREDICTED BY IDOCK:   -4.27 KCAL/MOL
REMARK 922        TOTAL FREE ENERGY PREDICTED BY IDOCK:   -5.83 KCAL/MOL
REMARK 923 INTER-LIGAND FREE ENERGY PREDICTED BY IDOCK:   -5.40 KCAL/MOL
REMARK 924 INTRA-LIGAND FREE ENERGY PREDICTED BY IDOCK:   -0.43 KCAL/MOL
REMARK 927      BINDING AFFINITY PREDICTED BY RF-SCORE:    0.00 PKD
ROOT
HETATM    1  C   UNL     1     -14.407  15.132  71.844  1.00  0.00    -0.693 C  
HETATM    2  C   UNL     1     -13.113  15.099  72.644  1.00  0.00    -0.517 C  
ENDROOT
BRANCH   2   3
HETATM    3  C   UNL     1     -12.042  15.929  71.948  1.00  0.00    -0.498 C  
BRANCH   3   4
HETATM    4  O   UNL     1     -12.260  15.995  70.532  1.00  0.00    -0.335 OA 
BRANCH   4   5
HETATM    5  C   UNL     1     -11.179  15.712  69.745  1.00  0.00    -0.321 C  
HETATM    6  O   UNL     1     -10.017  15.996  70.009  1.00  0.00    -0.172 OA 
BRANCH   5   7
HETATM    7  C   UNL     1     -11.613  14.927  68.517  1.00  0.00    -0.323 C  
BRANCH   7   8
HETATM    8  N   UNL     1     -11.339  13.484  68.648  1.00  0.00    -0.268 NA 
HETATM    9  C   UNL     1     -10.513  12.825  67.744  1.00  0.00    -0.223 C  
HETATM   10  C   UNL     1     -10.233  11.512  67.772  1.00  0.00    -0.182 C  
HETATM   11  I   UNL     1      -9.000  10.631  66.403  1.00  0.00    -0.204 I  
HETATM   12  C   UNL     1     -10.869  10.687  68.858  1.00  0.00    -0.231 C  
HETATM   13  C   UNL     1     -11.769  11.408  69.819  1.00  0.00    -0.344 C  
HETATM   14  O   UNL     1     -10.659   9.479  68.954  1.00  0.00    -0.215 OA 
HETATM   15  I   UNL     1     -12.700  10.380  71.323  1.00  0.00    -0.586 I  
HETATM   16  C   UNL     1     -11.937  12.728  69.649  1.00  0.00    -0.288 C  
ENDBRANCH   7   8
ENDBRANCH   5   7
ENDBRANCH   4   5
ENDBRANCH   3   4
ENDBRANCH   2   3
TORSDOF 5
ENDMDL
MODEL       62
REMARK 921   NORMALIZED FREE ENERGY PREDICTED BY IDOCK:   -4.26 KCAL/MOL
REMARK 922        TOTAL FREE ENERGY PREDICTED BY IDOCK:   -5.82 KCAL/MOL
REMARK 923 INTER-LIGAND FREE ENERGY PREDICTED BY IDOCK:   -5.33 KCAL/MOL
REMARK 924 INTRA-LIGAND FREE ENERGY PREDICTED BY IDOCK:   -0.49 KCAL/MOL
REMARK 927      BINDING AFFINITY PREDICTED BY RF-SCORE:    0.00 PKD
ROOT
HETATM    1  C   UNL     1     -13.717  13.545  72.291  1.00  0.00    -0.700 C  
HETATM    2  C   UNL     1     -12.845  14.791  72.353  1.00  0.00    -0.432 C  
ENDROOT
BRANCH   2   3
HETATM    3  C   UNL     1     -12.599  15.333  70.951  1.00  0.00    -0.412 C  
BRANCH   3   4
HETATM    4  O   UNL     1     -11.216  15.238  70.581  1.00  0.00    -0.288 OA 
BRANCH   4   5
HETATM    5  C   UNL     1     -10.963  14.984  69.262  1.00  0.00    -0.264 C  
HETATM    6  O   UNL     1      -9.963  15.341  68.651  1.00  0.00    -0.205 OA 
BRANCH   5   7
HETATM    7  C   UNL     1     -12.074  14.130  68.669  1.00  0.00    -0.285 C  
BRANCH   7   8
HETATM    8  N   UNL     1     -11.683  12.714  68.539  1.00  0.00    -0.314 NA 
HETATM    9  C   UNL     1     -11.816  11.832  69.606  1.00  0.00    -0.339 C  
HETATM   10  C   UNL     1     -11.460  10.538  69.584  1.00  0.00    -0.282 C  
HETATM   11  I   UNL     1     -11.698   9.314  71.202  1.00  0.00    -0.451 I  
HETATM   12  C   UNL     1     -10.864  10.000  68.310  1.00  0.00    -0.241 C  
HETATM   13  C   UNL     1     -10.714  10.966  67.171  1.00  0.00    -0.270 C  
HETATM   14  O   UNL     1     -10.517   8.824  68.210  1.00  0.00    -0.215 OA 
HETATM   15  I   UNL     1      -9.898  10.347  65.400  1.00  0.00    -0.350 I  
HETATM   16  C   UNL     1     -11.127  12.229  67.363  1.00  0.00    -0.282 C  
ENDBRANCH   7   8
ENDBRANCH   5   7
ENDBRANCH   4   5
ENDBRANCH   3   4
ENDBRANCH   2   3
TORSDOF 5
ENDMDL
MODEL       63
REMARK 921   NORMALIZED FREE ENERGY PREDICTED BY IDOCK:   -4.25 KCAL/MOL
REMARK 922        TOTAL FREE ENERGY PREDICTED BY IDOCK:   -5.81 KCAL/MOL
REMARK 923 INTER-LIGAND FREE ENERGY PREDICTED BY IDOCK:   -5.34 KCAL/MOL
REMARK 924 INTRA-LIGAND FREE ENERGY PREDICTED BY IDOCK:   -0.48 KCAL/MOL
REMARK 927      BINDING AFFINITY PREDICTED BY RF-SCORE:    0.00 PKD
ROOT
HETATM    1  C   UNL     1     -12.856  10.126  71.677  1.00  0.00    -0.559 C  
HETATM    2  C   UNL     1     -12.013   8.914  72.047  1.00  0.00    -0.439 C  
ENDROOT
BRANCH   2   3
HETATM    3  C   UNL     1     -11.054   8.573  70.912  1.00  0.00    -0.255 C  
BRANCH   3   4
HETATM    4  O   UNL     1      -9.988   9.528  70.816  1.00  0.00    -0.278 OA 
BRANCH   4   5
HETATM    5  C   UNL     1      -9.603   9.872  69.550  1.00  0.00    -0.225 C  
HETATM    6  O   UNL     1      -8.457  10.134  69.204  1.00  0.00    -0.133 OA 
BRANCH   5   7
HETATM    7  C   UNL     1     -10.794   9.818  68.606  1.00  0.00    -0.188 C  
BRANCH   7   8
HETATM    8  N   UNL     1     -11.149  11.147  68.073  1.00  0.00    -0.252 NA 
HETATM    9  C   UNL     1     -11.267  11.364  66.706  1.00  0.00    -0.252 C  
HETATM   10  C   UNL     1     -11.556  12.545  66.135  1.00  0.00    -0.395 C  
HETATM   11  I   UNL     1     -11.716  12.768  64.111  1.00  0.00    -0.607 I  
HETATM   12  C   UNL     1     -11.760  13.727  67.045  1.00  0.00    -0.390 C  
HETATM   13  C   UNL     1     -11.617  13.482  68.519  1.00  0.00    -0.333 C  
HETATM   14  O   UNL     1     -12.033  14.841  66.599  1.00  0.00    -0.314 OA 
HETATM   15  I   UNL     1     -11.854  15.022  69.844  1.00  0.00    -0.427 I  
HETATM   16  C   UNL     1     -11.327  12.234  68.920  1.00  0.00    -0.287 C  
ENDBRANCH   7   8
ENDBRANCH   5   7
ENDBRANCH   4   5
ENDBRANCH   3   4
ENDBRANCH   2   3
TORSDOF 5
ENDMDL
MODEL       64
REMARK 921   NORMALIZED FREE ENERGY PREDICTED BY IDOCK:   -4.23 KCAL/MOL
REMARK 922        TOTAL FREE ENERGY PREDICTED BY IDOCK:   -5.79 KCAL/MOL
REMARK 923 INTER-LIGAND FREE ENERGY PREDICTED BY IDOCK:   -5.49 KCAL/MOL
REMARK 924 INTRA-LIGAND FREE ENERGY PREDICTED BY IDOCK:   -0.29 KCAL/MOL
REMARK 927      BINDING AFFINITY PREDICTED BY RF-SCORE:    0.00 PKD
ROOT
HETATM    1  C   UNL     1     -12.344  12.110  63.460  1.00  0.00    -0.682 C  
HETATM    2  C   UNL     1     -12.391  13.359  64.328  1.00  0.00    -0.396 C  
ENDROOT
BRANCH   2   3
HETATM    3  C   UNL     1     -12.106  13.002  65.781  1.00  0.00    -0.454 C  
BRANCH   3   4
HETATM    4  O   UNL     1     -12.209  14.148  66.638  1.00  0.00    -0.448 OA 
BRANCH   4   5
HETATM    5  C   UNL     1     -11.921  13.939  67.958  1.00  0.00    -0.355 C  
HETATM    6  O   UNL     1     -11.606  12.863  68.451  1.00  0.00    -0.289 OA 
BRANCH   5   7
HETATM    7  C   UNL     1     -11.981  15.251  68.724  1.00  0.00    -0.251 C  
BRANCH   7   8
HETATM    8  N   UNL     1     -10.774  16.075  68.519  1.00  0.00    -0.271 NA 
HETATM    9  C   UNL     1     -10.851  17.321  67.908  1.00  0.00    -0.283 C  
HETATM   10  C   UNL     1      -9.804  18.122  67.657  1.00  0.00    -0.312 C  
HETATM   11  I   UNL     1     -10.015  19.944  66.758  1.00  0.00    -0.636 I  
HETATM   12  C   UNL     1      -8.439  17.631  68.060  1.00  0.00    -0.244 C  
HETATM   13  C   UNL     1      -8.368  16.278  68.707  1.00  0.00    -0.235 C  
HETATM   14  O   UNL     1      -7.430  18.309  67.868  1.00  0.00    -0.224 OA 
HETATM   15  I   UNL     1      -6.562  15.506  69.277  1.00  0.00    -0.183 I  
HETATM   16  C   UNL     1      -9.518  15.610  68.887  1.00  0.00    -0.228 C  
ENDBRANCH   7   8
ENDBRANCH   5   7
ENDBRANCH   4   5
ENDBRANCH   3   4
ENDBRANCH   2   3
TORSDOF 5
ENDMDL
MODEL       65
REMARK 921   NORMALIZED FREE ENERGY PREDICTED BY IDOCK:   -4.22 KCAL/MOL
REMARK 922        TOTAL FREE ENERGY PREDICTED BY IDOCK:   -5.77 KCAL/MOL
REMARK 923 INTER-LIGAND FREE ENERGY PREDICTED BY IDOCK:   -5.49 KCAL/MOL
REMARK 924 INTRA-LIGAND FREE ENERGY PREDICTED BY IDOCK:   -0.27 KCAL/MOL
REMARK 927      BINDING AFFINITY PREDICTED BY RF-SCORE:    0.00 PKD
ROOT
HETATM    1  C   UNL     1     -12.371  15.906  74.478  1.00  0.00    -0.752 C  
HETATM    2  C   UNL     1     -12.120  16.406  73.062  1.00  0.00    -0.577 C  
ENDROOT
BRANCH   2   3
HETATM    3  C   UNL     1     -11.836  15.234  72.131  1.00  0.00    -0.439 C  
BRANCH   3   4
HETATM    4  O   UNL     1     -12.432  14.021  72.611  1.00  0.00    -0.146 OA 
BRANCH   4   5
HETATM    5  C   UNL     1     -13.576  13.623  71.977  1.00  0.00    -0.495 C  
HETATM    6  O   UNL     1     -14.321  14.354  71.336  1.00  0.00    -0.364 OA 
BRANCH   5   7
HETATM    7  C   UNL     1     -13.762  12.121  72.123  1.00  0.00    -0.047 C  
BRANCH   7   8
HETATM    8  N   UNL     1     -12.780  11.354  71.333  1.00  0.00    -0.403 NA 
HETATM    9  C   UNL     1     -12.336  11.813  70.099  1.00  0.00    -0.195 C  
HETATM   10  C   UNL     1     -11.468  11.169  69.304  1.00  0.00    -0.294 C  
HETATM   11  I   UNL     1     -10.867  11.926  67.504  1.00  0.00    -0.351 I  
HETATM   12  C   UNL     1     -10.940   9.841  69.780  1.00  0.00    -0.256 C  
HETATM   13  C   UNL     1     -11.437   9.351  71.109  1.00  0.00    -0.352 C  
HETATM   14  O   UNL     1     -10.138   9.192  69.111  1.00  0.00    -0.182 OA 
HETATM   15  I   UNL     1     -10.799   7.552  71.843  1.00  0.00    -0.331 I  
HETATM   16  C   UNL     1     -12.304  10.127  71.777  1.00  0.00    -0.310 C  
ENDBRANCH   7   8
ENDBRANCH   5   7
ENDBRANCH   4   5
ENDBRANCH   3   4
ENDBRANCH   2   3
TORSDOF 5
ENDMDL
MODEL       66
REMARK 921   NORMALIZED FREE ENERGY PREDICTED BY IDOCK:   -4.19 KCAL/MOL
REMARK 922        TOTAL FREE ENERGY PREDICTED BY IDOCK:   -5.73 KCAL/MOL
REMARK 923 INTER-LIGAND FREE ENERGY PREDICTED BY IDOCK:   -5.53 KCAL/MOL
REMARK 924 INTRA-LIGAND FREE ENERGY PREDICTED BY IDOCK:   -0.20 KCAL/MOL
REMARK 927      BINDING AFFINITY PREDICTED BY RF-SCORE:    0.00 PKD
ROOT
HETATM    1  C   UNL     1     -12.689   7.709  71.417  1.00  0.00    -0.357 C  
HETATM    2  C   UNL     1     -13.016   9.044  72.071  1.00  0.00    -0.470 C  
ENDROOT
BRANCH   2   3
HETATM    3  C   UNL     1     -12.661  10.191  71.134  1.00  0.00    -0.386 C  
BRANCH   3   4
HETATM    4  O   UNL     1     -11.380   9.994  70.518  1.00  0.00    -0.284 OA 
BRANCH   4   5
HETATM    5  C   UNL     1     -11.013  10.925  69.587  1.00  0.00    -0.252 C  
HETATM    6  O   UNL     1      -9.937  10.956  69.002  1.00  0.00    -0.205 OA 
BRANCH   5   7
HETATM    7  C   UNL     1     -12.161  11.888  69.325  1.00  0.00    -0.210 C  
BRANCH   7   8
HETATM    8  N   UNL     1     -11.847  12.859  68.259  1.00  0.00    -0.342 NA 
HETATM    9  C   UNL     1     -11.896  12.495  66.919  1.00  0.00    -0.334 C  
HETATM   10  C   UNL     1     -11.599  13.303  65.890  1.00  0.00    -0.347 C  
HETATM   11  I   UNL     1     -11.706  12.681  63.947  1.00  0.00    -0.662 I  
HETATM   12  C   UNL     1     -11.170  14.711  66.210  1.00  0.00    -0.340 C  
HETATM   13  C   UNL     1     -11.109  15.087  67.662  1.00  0.00    -0.316 C  
HETATM   14  O   UNL     1     -10.886  15.513  65.322  1.00  0.00    -0.366 OA 
HETATM   15  I   UNL     1     -10.521  16.968  68.211  1.00  0.00    -0.357 I  
HETATM   16  C   UNL     1     -11.445  14.153  68.565  1.00  0.00    -0.300 C  
ENDBRANCH   7   8
ENDBRANCH   5   7
ENDBRANCH   4   5
ENDBRANCH   3   4
ENDBRANCH   2   3
TORSDOF 5
ENDMDL
MODEL       67
REMARK 921   NORMALIZED FREE ENERGY PREDICTED BY IDOCK:   -4.17 KCAL/MOL
REMARK 922        TOTAL FREE ENERGY PREDICTED BY IDOCK:   -5.71 KCAL/MOL
REMARK 923 INTER-LIGAND FREE ENERGY PREDICTED BY IDOCK:   -5.30 KCAL/MOL
REMARK 924 INTRA-LIGAND FREE ENERGY PREDICTED BY IDOCK:   -0.40 KCAL/MOL
REMARK 927      BINDING AFFINITY PREDICTED BY RF-SCORE:    0.00 PKD
ROOT
HETATM    1  C   UNL     1     -12.501  13.404  65.559  1.00  0.00    -0.534 C  
HETATM    2  C   UNL     1     -12.008  13.894  66.913  1.00  0.00    -0.467 C  
ENDROOT
BRANCH   2   3
HETATM    3  C   UNL     1     -11.881  12.726  67.883  1.00  0.00    -0.339 C  
BRANCH   3   4
HETATM    4  O   UNL     1     -11.800  11.471  67.192  1.00  0.00    -0.595 OA 
BRANCH   4   5
HETATM    5  C   UNL     1     -10.818  10.618  67.610  1.00  0.00    -0.292 C  
HETATM    6  O   UNL     1     -10.401   9.654  66.979  1.00  0.00    -0.234 OA 
BRANCH   5   7
HETATM    7  C   UNL     1     -10.262  11.073  68.950  1.00  0.00    -0.203 C  
BRANCH   7   8
HETATM    8  N   UNL     1     -10.499  10.086  70.021  1.00  0.00    -0.273 NA 
HETATM    9  C   UNL     1     -11.782   9.830  70.490  1.00  0.00    -0.268 C  
HETATM   10  C   UNL     1     -12.085   8.973  71.477  1.00  0.00    -0.340 C  
HETATM   11  I   UNL     1     -14.005   8.656  72.096  1.00  0.00    -0.396 I  
HETATM   12  C   UNL     1     -10.947   8.236  72.134  1.00  0.00    -0.326 C  
HETATM   13  C   UNL     1      -9.565   8.532  71.627  1.00  0.00    -0.249 C  
HETATM   14  O   UNL     1     -11.143   7.430  73.042  1.00  0.00    -0.342 OA 
HETATM   15  I   UNL     1      -7.945   7.602  72.460  1.00  0.00    -0.181 I  
HETATM   16  C   UNL     1      -9.443   9.418  70.626  1.00  0.00    -0.262 C  
ENDBRANCH   7   8
ENDBRANCH   5   7
ENDBRANCH   4   5
ENDBRANCH   3   4
ENDBRANCH   2   3
TORSDOF 5
ENDMDL
MODEL       68
REMARK 921   NORMALIZED FREE ENERGY PREDICTED BY IDOCK:   -4.17 KCAL/MOL
REMARK 922        TOTAL FREE ENERGY PREDICTED BY IDOCK:   -5.70 KCAL/MOL
REMARK 923 INTER-LIGAND FREE ENERGY PREDICTED BY IDOCK:   -5.36 KCAL/MOL
REMARK 924 INTRA-LIGAND FREE ENERGY PREDICTED BY IDOCK:   -0.34 KCAL/MOL
REMARK 927      BINDING AFFINITY PREDICTED BY RF-SCORE:    0.00 PKD
ROOT
HETATM    1  C   UNL     1     -12.205  12.535  63.351  1.00  0.00    -0.613 C  
HETATM    2  C   UNL     1     -12.142  12.600  64.871  1.00  0.00    -0.494 C  
ENDROOT
BRANCH   2   3
HETATM    3  C   UNL     1     -12.380  14.027  65.347  1.00  0.00    -0.478 C  
BRANCH   3   4
HETATM    4  O   UNL     1     -12.657  14.077  66.754  1.00  0.00    -0.311 OA 
BRANCH   4   5
HETATM    5  C   UNL     1     -11.629  14.493  67.553  1.00  0.00    -0.381 C  
HETATM    6  O   UNL     1     -10.687  15.188  67.191  1.00  0.00    -0.296 OA 
BRANCH   5   7
HETATM    7  C   UNL     1     -11.853  14.029  68.984  1.00  0.00    -0.354 C  
BRANCH   7   8
HETATM    8  N   UNL     1     -11.518  12.604  69.170  1.00  0.00    -0.288 NA 
HETATM    9  C   UNL     1     -10.602  11.968  68.339  1.00  0.00    -0.217 C  
HETATM   10  C   UNL     1     -10.261  10.672  68.419  1.00  0.00    -0.173 C  
HETATM   11  I   UNL     1      -8.898   9.824  67.156  1.00  0.00    -0.150 I  
HETATM   12  C   UNL     1     -10.926   9.840  69.483  1.00  0.00    -0.227 C  
HETATM   13  C   UNL     1     -11.922  10.537  70.365  1.00  0.00    -0.335 C  
HETATM   14  O   UNL     1     -10.663   8.647  69.624  1.00  0.00    -0.229 OA 
HETATM   15  I   UNL     1     -12.898   9.497  71.831  1.00  0.00    -0.512 I  
HETATM   16  C   UNL     1     -12.142  11.843  70.149  1.00  0.00    -0.302 C  
ENDBRANCH   7   8
ENDBRANCH   5   7
ENDBRANCH   4   5
ENDBRANCH   3   4
ENDBRANCH   2   3
TORSDOF 5
ENDMDL
MODEL       69
REMARK 921   NORMALIZED FREE ENERGY PREDICTED BY IDOCK:   -4.14 KCAL/MOL
REMARK 922        TOTAL FREE ENERGY PREDICTED BY IDOCK:   -5.67 KCAL/MOL
REMARK 923 INTER-LIGAND FREE ENERGY PREDICTED BY IDOCK:   -5.35 KCAL/MOL
REMARK 924 INTRA-LIGAND FREE ENERGY PREDICTED BY IDOCK:   -0.31 KCAL/MOL
REMARK 927      BINDING AFFINITY PREDICTED BY RF-SCORE:    0.00 PKD
ROOT
HETATM    1  C   UNL     1     -10.810  19.481  66.963  1.00  0.00    -0.542 C  
HETATM    2  C   UNL     1      -9.641  20.449  67.080  1.00  0.00    -0.587 C  
ENDROOT
BRANCH   2   3
HETATM    3  C   UNL     1      -8.331  19.680  67.212  1.00  0.00    -0.302 C  
BRANCH   3   4
HETATM    4  O   UNL     1      -8.314  18.861  68.389  1.00  0.00    -0.322 OA 
BRANCH   4   5
HETATM    5  C   UNL     1      -7.712  17.640  68.261  1.00  0.00    -0.253 C  
HETATM    6  O   UNL     1      -7.009  17.105  69.110  1.00  0.00    -0.232 OA 
BRANCH   5   7
HETATM    7  C   UNL     1      -8.094  17.002  66.935  1.00  0.00    -0.219 C  
BRANCH   7   8
HETATM    8  N   UNL     1      -9.185  16.019  67.079  1.00  0.00    -0.206 NA 
HETATM    9  C   UNL     1      -9.518  15.160  66.039  1.00  0.00    -0.323 C  
HETATM   10  C   UNL     1     -10.512  14.257  66.074  1.00  0.00    -0.301 C  
HETATM   11  I   UNL     1     -10.926  13.030  64.494  1.00  0.00    -0.468 I  
HETATM   12  C   UNL     1     -11.334  14.174  67.332  1.00  0.00    -0.327 C  
HETATM   13  C   UNL     1     -10.971  15.116  68.443  1.00  0.00    -0.271 C  
HETATM   14  O   UNL     1     -12.258  13.370  67.443  1.00  0.00    -0.326 OA 
HETATM   15  I   UNL     1     -12.035  15.102  70.190  1.00  0.00    -0.453 I  
HETATM   16  C   UNL     1      -9.943  15.955  68.241  1.00  0.00    -0.222 C  
ENDBRANCH   7   8
ENDBRANCH   5   7
ENDBRANCH   4   5
ENDBRANCH   3   4
ENDBRANCH   2   3
TORSDOF 5
ENDMDL
MODEL       70
REMARK 921   NORMALIZED FREE ENERGY PREDICTED BY IDOCK:   -4.14 KCAL/MOL
REMARK 922        TOTAL FREE ENERGY PREDICTED BY IDOCK:   -5.66 KCAL/MOL
REMARK 923 INTER-LIGAND FREE ENERGY PREDICTED BY IDOCK:   -5.39 KCAL/MOL
REMARK 924 INTRA-LIGAND FREE ENERGY PREDICTED BY IDOCK:   -0.28 KCAL/MOL
REMARK 927      BINDING AFFINITY PREDICTED BY RF-SCORE:    0.00 PKD
ROOT
HETATM    1  C   UNL     1     -11.509   9.755  71.080  1.00  0.00    -0.472 C  
HETATM    2  C   UNL     1     -12.369  11.010  71.031  1.00  0.00    -0.490 C  
ENDROOT
BRANCH   2   3
HETATM    3  C   UNL     1     -11.974  11.873  69.840  1.00  0.00    -0.325 C  
BRANCH   3   4
HETATM    4  O   UNL     1     -12.063  13.272  70.146  1.00  0.00    -0.336 OA 
BRANCH   4   5
HETATM    5  C   UNL     1     -12.019  14.124  69.078  1.00  0.00    -0.340 C  
HETATM    6  O   UNL     1     -12.078  13.788  67.901  1.00  0.00    -0.365 OA 
BRANCH   5   7
HETATM    7  C   UNL     1     -11.953  15.565  69.558  1.00  0.00    -0.350 C  
BRANCH   7   8
HETATM    8  N   UNL     1     -10.707  16.238  69.142  1.00  0.00    -0.282 NA 
HETATM    9  C   UNL     1     -10.739  17.445  68.453  1.00  0.00    -0.301 C  
HETATM   10  C   UNL     1      -9.659  18.109  68.013  1.00  0.00    -0.300 C  
HETATM   11  I   UNL     1      -9.803  19.884  67.013  1.00  0.00    -0.643 I  
HETATM   12  C   UNL     1      -8.309  17.498  68.278  1.00  0.00    -0.265 C  
HETATM   13  C   UNL     1      -8.289  16.188  69.012  1.00  0.00    -0.247 C  
HETATM   14  O   UNL     1      -7.272  18.048  67.911  1.00  0.00    -0.213 OA 
HETATM   15  I   UNL     1      -6.510  15.259  69.408  1.00  0.00    -0.178 I  
HETATM   16  C   UNL     1      -9.467  15.662  69.384  1.00  0.00    -0.279 C  
ENDBRANCH   7   8
ENDBRANCH   5   7
ENDBRANCH   4   5
ENDBRANCH   3   4
ENDBRANCH   2   3
TORSDOF 5
ENDMDL
MODEL       71
REMARK 921   NORMALIZED FREE ENERGY PREDICTED BY IDOCK:   -4.12 KCAL/MOL
REMARK 922        TOTAL FREE ENERGY PREDICTED BY IDOCK:   -5.63 KCAL/MOL
REMARK 923 INTER-LIGAND FREE ENERGY PREDICTED BY IDOCK:   -5.39 KCAL/MOL
REMARK 924 INTRA-LIGAND FREE ENERGY PREDICTED BY IDOCK:   -0.24 KCAL/MOL
REMARK 927      BINDING AFFINITY PREDICTED BY RF-SCORE:    0.00 PKD
ROOT
HETATM    1  C   UNL     1     -11.937   9.537  71.359  1.00  0.00    -0.464 C  
HETATM    2  C   UNL     1     -12.647  10.880  71.277  1.00  0.00    -0.526 C  
ENDROOT
BRANCH   2   3
HETATM    3  C   UNL     1     -12.133  11.676  70.084  1.00  0.00    -0.333 C  
BRANCH   3   4
HETATM    4  O   UNL     1     -12.233  13.090  70.307  1.00  0.00    -0.339 OA 
BRANCH   4   5
HETATM    5  C   UNL     1     -11.954  13.888  69.233  1.00  0.00    -0.357 C  
HETATM    6  O   UNL     1     -11.807  13.499  68.081  1.00  0.00    -0.339 OA 
BRANCH   5   7
HETATM    7  C   UNL     1     -11.916  15.347  69.658  1.00  0.00    -0.343 C  
BRANCH   7   8
HETATM    8  N   UNL     1     -10.745  16.060  69.115  1.00  0.00    -0.251 NA 
HETATM    9  C   UNL     1      -9.451  15.647  69.413  1.00  0.00    -0.279 C  
HETATM   10  C   UNL     1      -8.332  16.252  68.987  1.00  0.00    -0.239 C  
HETATM   11  I   UNL     1      -6.469  15.568  69.472  1.00  0.00    -0.165 I  
HETATM   12  C   UNL     1      -8.486  17.478  68.126  1.00  0.00    -0.254 C  
HETATM   13  C   UNL     1      -9.888  17.920  67.821  1.00  0.00    -0.300 C  
HETATM   14  O   UNL     1      -7.509  18.085  67.691  1.00  0.00    -0.208 OA 
HETATM   15  I   UNL     1     -10.214  19.584  66.676  1.00  0.00    -0.681 I  
HETATM   16  C   UNL     1     -10.897  17.194  68.328  1.00  0.00    -0.314 C  
ENDBRANCH   7   8
ENDBRANCH   5   7
ENDBRANCH   4   5
ENDBRANCH   3   4
ENDBRANCH   2   3
TORSDOF 5
ENDMDL
MODEL       72
REMARK 921   NORMALIZED FREE ENERGY PREDICTED BY IDOCK:   -4.11 KCAL/MOL
REMARK 922        TOTAL FREE ENERGY PREDICTED BY IDOCK:   -5.62 KCAL/MOL
REMARK 923 INTER-LIGAND FREE ENERGY PREDICTED BY IDOCK:   -5.17 KCAL/MOL
REMARK 924 INTRA-LIGAND FREE ENERGY PREDICTED BY IDOCK:   -0.45 KCAL/MOL
REMARK 927      BINDING AFFINITY PREDICTED BY RF-SCORE:    0.00 PKD
ROOT
HETATM    1  C   UNL     1      -7.780  15.366  69.334  1.00  0.00    -0.227 C  
HETATM    2  C   UNL     1      -6.805  16.035  68.377  1.00  0.00    -0.124 C  
ENDROOT
BRANCH   2   3
HETATM    3  C   UNL     1      -7.006  17.545  68.388  1.00  0.00    -0.211 C  
BRANCH   3   4
HETATM    4  O   UNL     1      -8.397  17.894  68.328  1.00  0.00    -0.267 OA 
BRANCH   4   5
HETATM    5  C   UNL     1      -8.940  17.980  67.077  1.00  0.00    -0.258 C  
HETATM    6  O   UNL     1      -8.304  18.094  66.035  1.00  0.00    -0.491 OA 
BRANCH   5   7
HETATM    7  C   UNL     1     -10.453  17.845  67.149  1.00  0.00    -0.353 C  
BRANCH   7   8
HETATM    8  N   UNL     1     -10.874  16.564  67.747  1.00  0.00    -0.332 NA 
HETATM    9  C   UNL     1     -10.934  15.402  66.986  1.00  0.00    -0.306 C  
HETATM   10  C   UNL     1     -11.332  14.204  67.440  1.00  0.00    -0.327 C  
HETATM   11  I   UNL     1     -11.383  12.547  66.247  1.00  0.00    -0.445 I  
HETATM   12  C   UNL     1     -11.754  14.110  68.883  1.00  0.00    -0.334 C  
HETATM   13  C   UNL     1     -11.696  15.374  69.690  1.00  0.00    -0.338 C  
HETATM   14  O   UNL     1     -12.127  13.046  69.375  1.00  0.00    -0.282 OA 
HETATM   15  I   UNL     1     -12.265  15.365  71.655  1.00  0.00    -0.635 I  
HETATM   16  C   UNL     1     -11.269  16.488  69.076  1.00  0.00    -0.238 C  
ENDBRANCH   7   8
ENDBRANCH   5   7
ENDBRANCH   4   5
ENDBRANCH   3   4
ENDBRANCH   2   3
TORSDOF 5
ENDMDL
MODEL       73
REMARK 921   NORMALIZED FREE ENERGY PREDICTED BY IDOCK:   -4.07 KCAL/MOL
REMARK 922        TOTAL FREE ENERGY PREDICTED BY IDOCK:   -5.57 KCAL/MOL
REMARK 923 INTER-LIGAND FREE ENERGY PREDICTED BY IDOCK:   -5.36 KCAL/MOL
REMARK 924 INTRA-LIGAND FREE ENERGY PREDICTED BY IDOCK:   -0.22 KCAL/MOL
REMARK 927      BINDING AFFINITY PREDICTED BY RF-SCORE:    0.00 PKD
ROOT
HETATM    1  C   UNL     1     -11.929  12.874  63.335  1.00  0.00    -0.612 C  
HETATM    2  C   UNL     1     -12.106  14.128  64.180  1.00  0.00    -0.437 C  
ENDROOT
BRANCH   2   3
HETATM    3  C   UNL     1     -12.773  13.781  65.505  1.00  0.00    -0.488 C  
BRANCH   3   4
HETATM    4  O   UNL     1     -12.172  14.485  66.601  1.00  0.00    -0.379 OA 
BRANCH   4   5
HETATM    5  C   UNL     1     -11.412  13.732  67.452  1.00  0.00    -0.345 C  
HETATM    6  O   UNL     1     -10.741  14.171  68.378  1.00  0.00    -0.243 OA 
BRANCH   5   7
HETATM    7  C   UNL     1     -11.569  12.254  67.130  1.00  0.00    -0.353 C  
BRANCH   7   8
HETATM    8  N   UNL     1     -11.138  11.389  68.244  1.00  0.00    -0.223 NA 
HETATM    9  C   UNL     1     -12.030  11.000  69.237  1.00  0.00    -0.339 C  
HETATM   10  C   UNL     1     -11.717  10.240  70.298  1.00  0.00    -0.306 C  
HETATM   11  I   UNL     1     -13.099   9.712  71.707  1.00  0.00    -0.544 I  
HETATM   12  C   UNL     1     -10.290   9.779  70.430  1.00  0.00    -0.293 C  
HETATM   13  C   UNL     1      -9.335  10.217  69.357  1.00  0.00    -0.219 C  
HETATM   14  O   UNL     1      -9.926   9.076  71.371  1.00  0.00    -0.276 OA 
HETATM   15  I   UNL     1      -7.367   9.664  69.447  1.00  0.00    -0.119 I  
HETATM   16  C   UNL     1      -9.818  10.975  68.361  1.00  0.00    -0.182 C  
ENDBRANCH   7   8
ENDBRANCH   5   7
ENDBRANCH   4   5
ENDBRANCH   3   4
ENDBRANCH   2   3
TORSDOF 5
ENDMDL
MODEL       74
REMARK 921   NORMALIZED FREE ENERGY PREDICTED BY IDOCK:   -4.05 KCAL/MOL
REMARK 922        TOTAL FREE ENERGY PREDICTED BY IDOCK:   -5.55 KCAL/MOL
REMARK 923 INTER-LIGAND FREE ENERGY PREDICTED BY IDOCK:   -5.32 KCAL/MOL
REMARK 924 INTRA-LIGAND FREE ENERGY PREDICTED BY IDOCK:   -0.23 KCAL/MOL
REMARK 927      BINDING AFFINITY PREDICTED BY RF-SCORE:    0.00 PKD
ROOT
HETATM    1  C   UNL     1     -10.424  16.701  66.655  1.00  0.00    -0.258 C  
HETATM    2  C   UNL     1      -9.943  15.711  65.604  1.00  0.00    -0.388 C  
ENDROOT
BRANCH   2   3
HETATM    3  C   UNL     1     -11.130  15.131  64.845  1.00  0.00    -0.414 C  
BRANCH   3   4
HETATM    4  O   UNL     1     -11.849  14.174  65.636  1.00  0.00    -0.351 OA 
BRANCH   4   5
HETATM    5  C   UNL     1     -12.011  12.937  65.079  1.00  0.00    -0.405 C  
HETATM    6  O   UNL     1     -13.046  12.518  64.573  1.00  0.00    -0.816 OA 
BRANCH   5   7
HETATM    7  C   UNL     1     -10.700  12.168  65.114  1.00  0.00    -0.292 C  
BRANCH   7   8
HETATM    8  N   UNL     1     -10.662  11.172  66.201  1.00  0.00    -0.252 NA 
HETATM    9  C   UNL     1     -11.237  11.437  67.438  1.00  0.00    -0.305 C  
HETATM   10  C   UNL     1     -11.224  10.602  68.489  1.00  0.00    -0.282 C  
HETATM   11  I   UNL     1     -12.103  11.076  70.270  1.00  0.00    -0.456 I  
HETATM   12  C   UNL     1     -10.526   9.279  68.319  1.00  0.00    -0.215 C  
HETATM   13  C   UNL     1      -9.898   9.010  66.982  1.00  0.00    -0.209 C  
HETATM   14  O   UNL     1     -10.475   8.458  69.233  1.00  0.00    -0.220 OA 
HETATM   15  I   UNL     1      -8.907   7.252  66.648  1.00  0.00    -0.186 I  
HETATM   16  C   UNL     1     -10.009   9.957  66.037  1.00  0.00    -0.268 C  
ENDBRANCH   7   8
ENDBRANCH   5   7
ENDBRANCH   4   5
ENDBRANCH   3   4
ENDBRANCH   2   3
TORSDOF 5
ENDMDL
MODEL       75
REMARK 921   NORMALIZED FREE ENERGY PREDICTED BY IDOCK:   -4.05 KCAL/MOL
REMARK 922        TOTAL FREE ENERGY PREDICTED BY IDOCK:   -5.55 KCAL/MOL
REMARK 923 INTER-LIGAND FREE ENERGY PREDICTED BY IDOCK:   -5.20 KCAL/MOL
REMARK 924 INTRA-LIGAND FREE ENERGY PREDICTED BY IDOCK:   -0.35 KCAL/MOL
REMARK 927      BINDING AFFINITY PREDICTED BY RF-SCORE:    0.00 PKD
ROOT
HETATM    1  C   UNL     1      -7.156  14.978  69.544  1.00  0.00    -0.192 C  
HETATM    2  C   UNL     1      -7.553  15.433  68.147  1.00  0.00    -0.118 C  
ENDROOT
BRANCH   2   3
HETATM    3  C   UNL     1      -8.332  16.741  68.221  1.00  0.00    -0.213 C  
BRANCH   3   4
HETATM    4  O   UNL     1      -9.436  16.649  69.132  1.00  0.00    -0.252 OA 
BRANCH   4   5
HETATM    5  C   UNL     1     -10.672  16.899  68.604  1.00  0.00    -0.345 C  
HETATM    6  O   UNL     1     -10.910  17.697  67.706  1.00  0.00    -0.367 OA 
BRANCH   5   7
HETATM    7  C   UNL     1     -11.711  15.992  69.246  1.00  0.00    -0.298 C  
BRANCH   7   8
HETATM    8  N   UNL     1     -11.702  14.634  68.670  1.00  0.00    -0.322 NA 
HETATM    9  C   UNL     1     -11.704  14.437  67.294  1.00  0.00    -0.404 C  
HETATM   10  C   UNL     1     -11.725  13.241  66.687  1.00  0.00    -0.377 C  
HETATM   11  I   UNL     1     -11.719  13.049  64.654  1.00  0.00    -0.516 I  
HETATM   12  C   UNL     1     -11.757  12.015  67.562  1.00  0.00    -0.280 C  
HETATM   13  C   UNL     1     -11.768  12.242  69.046  1.00  0.00    -0.324 C  
HETATM   14  O   UNL     1     -11.773  10.883  67.082  1.00  0.00    -0.393 OA 
HETATM   15  I   UNL     1     -11.831  10.649  70.328  1.00  0.00    -0.475 I  
HETATM   16  C   UNL     1     -11.740  13.510  69.485  1.00  0.00    -0.322 C  
ENDBRANCH   7   8
ENDBRANCH   5   7
ENDBRANCH   4   5
ENDBRANCH   3   4
ENDBRANCH   2   3
TORSDOF 5
ENDMDL
MODEL       76
REMARK 921   NORMALIZED FREE ENERGY PREDICTED BY IDOCK:   -4.03 KCAL/MOL
REMARK 922        TOTAL FREE ENERGY PREDICTED BY IDOCK:   -5.53 KCAL/MOL
REMARK 923 INTER-LIGAND FREE ENERGY PREDICTED BY IDOCK:   -5.00 KCAL/MOL
REMARK 924 INTRA-LIGAND FREE ENERGY PREDICTED BY IDOCK:   -0.52 KCAL/MOL
REMARK 927      BINDING AFFINITY PREDICTED BY RF-SCORE:    0.00 PKD
ROOT
HETATM    1  C   UNL     1      -7.735  15.149  69.400  1.00  0.00    -0.213 C  
HETATM    2  C   UNL     1      -6.559  15.584  68.538  1.00  0.00    -0.109 C  
ENDROOT
BRANCH   2   3
HETATM    3  C   UNL     1      -6.905  16.857  67.777  1.00  0.00    -0.141 C  
BRANCH   3   4
HETATM    4  O   UNL     1      -8.261  17.263  68.013  1.00  0.00    -0.210 OA 
BRANCH   4   5
HETATM    5  C   UNL     1      -9.066  17.336  66.912  1.00  0.00    -0.236 C  
HETATM    6  O   UNL     1      -8.682  17.284  65.749  1.00  0.00    -0.531 OA 
BRANCH   5   7
HETATM    7  C   UNL     1     -10.525  17.423  67.331  1.00  0.00    -0.336 C  
BRANCH   7   8
HETATM    8  N   UNL     1     -10.957  16.245  68.107  1.00  0.00    -0.343 NA 
HETATM    9  C   UNL     1     -11.327  16.360  69.441  1.00  0.00    -0.213 C  
HETATM   10  C   UNL     1     -11.704  15.339  70.227  1.00  0.00    -0.308 C  
HETATM   11  I   UNL     1     -12.239  15.606  72.181  1.00  0.00    -0.696 I  
HETATM   12  C   UNL     1     -11.719  13.961  69.621  1.00  0.00    -0.311 C  
HETATM   13  C   UNL     1     -11.305  13.849  68.183  1.00  0.00    -0.295 C  
HETATM   14  O   UNL     1     -12.057  12.976  70.275  1.00  0.00    -0.348 OA 
HETATM   15  I   UNL     1     -11.270  12.022  67.264  1.00  0.00    -0.404 I  
HETATM   16  C   UNL     1     -10.960  14.976  67.541  1.00  0.00    -0.307 C  
ENDBRANCH   7   8
ENDBRANCH   5   7
ENDBRANCH   4   5
ENDBRANCH   3   4
ENDBRANCH   2   3
TORSDOF 5
ENDMDL
MODEL       77
REMARK 921   NORMALIZED FREE ENERGY PREDICTED BY IDOCK:   -4.03 KCAL/MOL
REMARK 922        TOTAL FREE ENERGY PREDICTED BY IDOCK:   -5.52 KCAL/MOL
REMARK 923 INTER-LIGAND FREE ENERGY PREDICTED BY IDOCK:   -5.21 KCAL/MOL
REMARK 924 INTRA-LIGAND FREE ENERGY PREDICTED BY IDOCK:   -0.31 KCAL/MOL
REMARK 927      BINDING AFFINITY PREDICTED BY RF-SCORE:    0.00 PKD
ROOT
HETATM    1  C   UNL     1     -12.378  15.898  74.480  1.00  0.00    -0.752 C  
HETATM    2  C   UNL     1     -12.077  16.403  73.076  1.00  0.00    -0.577 C  
ENDROOT
BRANCH   2   3
HETATM    3  C   UNL     1     -11.783  15.232  72.146  1.00  0.00    -0.448 C  
BRANCH   3   4
HETATM    4  O   UNL     1     -12.416  14.026  72.598  1.00  0.00    -0.146 OA 
BRANCH   4   5
HETATM    5  C   UNL     1     -13.550  13.657  71.929  1.00  0.00    -0.427 C  
HETATM    6  O   UNL     1     -14.268  14.411  71.284  1.00  0.00    -0.327 OA 
BRANCH   5   7
HETATM    7  C   UNL     1     -13.762  12.155  72.042  1.00  0.00    -0.006 C  
BRANCH   7   8
HETATM    8  N   UNL     1     -12.773  11.389  71.260  1.00  0.00    -0.415 NA 
HETATM    9  C   UNL     1     -12.151  10.266  71.792  1.00  0.00    -0.100 C  
HETATM   10  C   UNL     1     -11.222   9.529  71.164  1.00  0.00    -0.376 C  
HETATM   11  I   UNL     1     -10.366   7.886  72.025  1.00  0.00    -0.361 I  
HETATM   12  C   UNL     1     -10.814   9.955  69.778  1.00  0.00    -0.269 C  
HETATM   13  C   UNL     1     -11.483  11.178  69.220  1.00  0.00    -0.294 C  
HETATM   14  O   UNL     1      -9.973   9.329  69.136  1.00  0.00    -0.169 OA 
HETATM   15  I   UNL     1     -10.991  11.857  67.355  1.00  0.00    -0.385 I  
HETATM   16  C   UNL     1     -12.397  11.795  69.986  1.00  0.00    -0.160 C  
ENDBRANCH   7   8
ENDBRANCH   5   7
ENDBRANCH   4   5
ENDBRANCH   3   4
ENDBRANCH   2   3
TORSDOF 5
ENDMDL
MODEL       78
REMARK 921   NORMALIZED FREE ENERGY PREDICTED BY IDOCK:   -4.00 KCAL/MOL
REMARK 922        TOTAL FREE ENERGY PREDICTED BY IDOCK:   -5.49 KCAL/MOL
REMARK 923 INTER-LIGAND FREE ENERGY PREDICTED BY IDOCK:   -4.96 KCAL/MOL
REMARK 924 INTRA-LIGAND FREE ENERGY PREDICTED BY IDOCK:   -0.52 KCAL/MOL
REMARK 927      BINDING AFFINITY PREDICTED BY RF-SCORE:    0.00 PKD
ROOT
HETATM    1  C   UNL     1     -11.930  13.828  69.150  1.00  0.00    -0.403 C  
HETATM    2  C   UNL     1     -12.253  14.957  70.119  1.00  0.00    -0.387 C  
ENDROOT
BRANCH   2   3
HETATM    3  C   UNL     1     -11.354  16.157  69.848  1.00  0.00    -0.317 C  
BRANCH   3   4
HETATM    4  O   UNL     1     -11.358  16.519  68.460  1.00  0.00    -0.356 OA 
BRANCH   4   5
HETATM    5  C   UNL     1     -10.175  16.984  67.958  1.00  0.00    -0.319 C  
HETATM    6  O   UNL     1      -9.302  17.546  68.609  1.00  0.00    -0.280 OA 
BRANCH   5   7
HETATM    7  C   UNL     1     -10.060  16.645  66.481  1.00  0.00    -0.305 C  
BRANCH   7   8
HETATM    8  N   UNL     1     -10.054  15.189  66.238  1.00  0.00    -0.268 NA 
HETATM    9  C   UNL     1      -9.162  14.355  66.902  1.00  0.00    -0.254 C  
HETATM   10  C   UNL     1      -9.068  13.028  66.722  1.00  0.00    -0.210 C  
HETATM   11  I   UNL     1      -7.727  11.880  67.750  1.00  0.00    -0.177 I  
HETATM   12  C   UNL     1      -9.993  12.394  65.717  1.00  0.00    -0.254 C  
HETATM   13  C   UNL     1     -10.942  13.308  64.998  1.00  0.00    -0.313 C  
HETATM   14  O   UNL     1      -9.972  11.184  65.499  1.00  0.00    -0.225 OA 
HETATM   15  I   UNL     1     -12.231  12.556  63.599  1.00  0.00    -0.517 I  
HETATM   16  C   UNL     1     -10.905  14.615  65.304  1.00  0.00    -0.377 C  
ENDBRANCH   7   8
ENDBRANCH   5   7
ENDBRANCH   4   5
ENDBRANCH   3   4
ENDBRANCH   2   3
TORSDOF 5
ENDMDL
MODEL       79
REMARK 921   NORMALIZED FREE ENERGY PREDICTED BY IDOCK:   -3.99 KCAL/MOL
REMARK 922        TOTAL FREE ENERGY PREDICTED BY IDOCK:   -5.48 KCAL/MOL
REMARK 923 INTER-LIGAND FREE ENERGY PREDICTED BY IDOCK:   -5.61 KCAL/MOL
REMARK 924 INTRA-LIGAND FREE ENERGY PREDICTED BY IDOCK:    0.13 KCAL/MOL
REMARK 927      BINDING AFFINITY PREDICTED BY RF-SCORE:    0.00 PKD
ROOT
HETATM    1  C   UNL     1     -10.205   7.618  72.941  1.00  0.00    -0.356 C  
HETATM    2  C   UNL     1     -11.438   6.877  72.444  1.00  0.00    -0.297 C  
ENDROOT
BRANCH   2   3
HETATM    3  C   UNL     1     -11.936   7.496  71.144  1.00  0.00    -0.308 C  
BRANCH   3   4
HETATM    4  O   UNL     1     -13.058   8.362  71.365  1.00  0.00    -0.299 OA 
BRANCH   4   5
HETATM    5  C   UNL     1     -12.796   9.704  71.333  1.00  0.00    -0.379 C  
HETATM    6  O   UNL     1     -13.396  10.558  71.973  1.00  0.00    -0.434 OA 
BRANCH   5   7
HETATM    7  C   UNL     1     -11.600   9.984  70.436  1.00  0.00    -0.302 C  
BRANCH   7   8
HETATM    8  N   UNL     1     -11.714  11.278  69.738  1.00  0.00    -0.317 NA 
HETATM    9  C   UNL     1     -11.603  11.360  68.355  1.00  0.00    -0.315 C  
HETATM   10  C   UNL     1     -11.666  12.496  67.642  1.00  0.00    -0.361 C  
HETATM   11  I   UNL     1     -11.497  12.519  65.607  1.00  0.00    -0.451 I  
HETATM   12  C   UNL     1     -11.863  13.783  68.399  1.00  0.00    -0.376 C  
HETATM   13  C   UNL     1     -11.969  13.682  69.893  1.00  0.00    -0.348 C  
HETATM   14  O   UNL     1     -11.935  14.865  67.818  1.00  0.00    -0.321 OA 
HETATM   15  I   UNL     1     -12.219  15.370  71.021  1.00  0.00    -0.585 I  
HETATM   16  C   UNL     1     -11.889  12.461  70.444  1.00  0.00    -0.161 C  
ENDBRANCH   7   8
ENDBRANCH   5   7
ENDBRANCH   4   5
ENDBRANCH   3   4
ENDBRANCH   2   3
TORSDOF 5
ENDMDL
MODEL       80
REMARK 921   NORMALIZED FREE ENERGY PREDICTED BY IDOCK:   -3.98 KCAL/MOL
REMARK 922        TOTAL FREE ENERGY PREDICTED BY IDOCK:   -5.46 KCAL/MOL
REMARK 923 INTER-LIGAND FREE ENERGY PREDICTED BY IDOCK:   -5.33 KCAL/MOL
REMARK 924 INTRA-LIGAND FREE ENERGY PREDICTED BY IDOCK:   -0.12 KCAL/MOL
REMARK 927      BINDING AFFINITY PREDICTED BY RF-SCORE:    0.00 PKD
ROOT
HETATM    1  C   UNL     1      -9.481   8.940  66.265  1.00  0.00    -0.304 C  
HETATM    2  C   UNL     1     -10.475   9.372  67.334  1.00  0.00    -0.343 C  
ENDROOT
BRANCH   2   3
HETATM    3  C   UNL     1     -10.065   8.814  68.691  1.00  0.00    -0.189 C  
BRANCH   3   4
HETATM    4  O   UNL     1      -9.977   9.848  69.683  1.00  0.00    -0.204 OA 
BRANCH   4   5
HETATM    5  C   UNL     1     -10.793   9.706  70.770  1.00  0.00    -0.330 C  
HETATM    6  O   UNL     1     -10.451   9.262  71.859  1.00  0.00    -0.305 OA 
BRANCH   5   7
HETATM    7  C   UNL     1     -12.181  10.245  70.459  1.00  0.00    -0.301 C  
BRANCH   7   8
HETATM    8  N   UNL     1     -12.179  11.702  70.230  1.00  0.00    -0.332 NA 
HETATM    9  C   UNL     1     -12.576  12.586  71.226  1.00  0.00    -0.231 C  
HETATM   10  C   UNL     1     -12.633  13.920  71.094  1.00  0.00    -0.370 C  
HETATM   11  I   UNL     1     -13.225  15.143  72.620  1.00  0.00    -0.708 I  
HETATM   12  C   UNL     1     -12.243  14.507  69.763  1.00  0.00    -0.312 C  
HETATM   13  C   UNL     1     -11.828  13.540  68.692  1.00  0.00    -0.369 C  
HETATM   14  O   UNL     1     -12.263  15.720  69.565  1.00  0.00    -0.325 OA 
HETATM   15  I   UNL     1     -11.297  14.226  66.840  1.00  0.00    -0.405 I  
HETATM   16  C   UNL     1     -11.825  12.233  68.996  1.00  0.00    -0.305 C  
ENDBRANCH   7   8
ENDBRANCH   5   7
ENDBRANCH   4   5
ENDBRANCH   3   4
ENDBRANCH   2   3
TORSDOF 5
ENDMDL
MODEL       81
REMARK 921   NORMALIZED FREE ENERGY PREDICTED BY IDOCK:   -3.97 KCAL/MOL
REMARK 922        TOTAL FREE ENERGY PREDICTED BY IDOCK:   -5.45 KCAL/MOL
REMARK 923 INTER-LIGAND FREE ENERGY PREDICTED BY IDOCK:   -5.05 KCAL/MOL
REMARK 924 INTRA-LIGAND FREE ENERGY PREDICTED BY IDOCK:   -0.39 KCAL/MOL
REMARK 927      BINDING AFFINITY PREDICTED BY RF-SCORE:    0.00 PKD
ROOT
HETATM    1  C   UNL     1      -9.579   9.997  64.752  1.00  0.00    -0.374 C  
HETATM    2  C   UNL     1      -8.553  10.699  65.630  1.00  0.00    -0.187 C  
ENDROOT
BRANCH   2   3
HETATM    3  C   UNL     1      -9.163  11.945  66.261  1.00  0.00    -0.214 C  
BRANCH   3   4
HETATM    4  O   UNL     1      -9.737  11.662  67.545  1.00  0.00    -0.175 OA 
BRANCH   4   5
HETATM    5  C   UNL     1     -11.092  11.487  67.570  1.00  0.00    -0.272 C  
HETATM    6  O   UNL     1     -11.668  10.468  67.932  1.00  0.00    -0.453 OA 
BRANCH   5   7
HETATM    7  C   UNL     1     -11.796  12.768  67.148  1.00  0.00    -0.350 C  
BRANCH   7   8
HETATM    8  N   UNL     1     -11.751  13.804  68.197  1.00  0.00    -0.338 NA 
HETATM    9  C   UNL     1     -11.037  14.983  68.012  1.00  0.00    -0.300 C  
HETATM   10  C   UNL     1     -10.920  15.963  68.921  1.00  0.00    -0.290 C  
HETATM   11  I   UNL     1      -9.853  17.666  68.556  1.00  0.00    -0.353 I  
HETATM   12  C   UNL     1     -11.606  15.770  70.247  1.00  0.00    -0.365 C  
HETATM   13  C   UNL     1     -12.362  14.487  70.439  1.00  0.00    -0.338 C  
HETATM   14  O   UNL     1     -11.549  16.624  71.130  1.00  0.00    -0.219 OA 
HETATM   15  I   UNL     1     -13.316  14.113  72.209  1.00  0.00    -0.675 I  
HETATM   16  C   UNL     1     -12.380  13.614  69.420  1.00  0.00    -0.153 C  
ENDBRANCH   7   8
ENDBRANCH   5   7
ENDBRANCH   4   5
ENDBRANCH   3   4
ENDBRANCH   2   3
TORSDOF 5
ENDMDL
MODEL       82
REMARK 921   NORMALIZED FREE ENERGY PREDICTED BY IDOCK:   -3.96 KCAL/MOL
REMARK 922        TOTAL FREE ENERGY PREDICTED BY IDOCK:   -5.43 KCAL/MOL
REMARK 923 INTER-LIGAND FREE ENERGY PREDICTED BY IDOCK:   -5.11 KCAL/MOL
REMARK 924 INTRA-LIGAND FREE ENERGY PREDICTED BY IDOCK:   -0.31 KCAL/MOL
REMARK 927      BINDING AFFINITY PREDICTED BY RF-SCORE:    0.00 PKD
ROOT
HETATM    1  C   UNL     1      -9.415   6.826  72.657  1.00  0.00    -0.152 C  
HETATM    2  C   UNL     1      -9.725   8.315  72.596  1.00  0.00    -0.357 C  
ENDROOT
BRANCH   2   3
HETATM    3  C   UNL     1     -10.635   8.616  71.412  1.00  0.00    -0.264 C  
BRANCH   3   4
HETATM    4  O   UNL     1     -11.122   9.965  71.448  1.00  0.00    -0.325 OA 
BRANCH   4   5
HETATM    5  C   UNL     1     -12.479  10.114  71.383  1.00  0.00    -0.423 C  
HETATM    6  O   UNL     1     -13.275   9.735  72.234  1.00  0.00    -0.437 OA 
BRANCH   5   7
HETATM    7  C   UNL     1     -12.863  10.883  70.128  1.00  0.00    -0.082 C  
BRANCH   7   8
HETATM    8  N   UNL     1     -12.403  12.284  70.166  1.00  0.00    -0.193 NA 
HETATM    9  C   UNL     1     -11.616  12.809  69.148  1.00  0.00    -0.319 C  
HETATM   10  C   UNL     1     -11.131  14.060  69.116  1.00  0.00    -0.259 C  
HETATM   11  I   UNL     1      -9.985  14.747  67.571  1.00  0.00    -0.220 I  
HETATM   12  C   UNL     1     -11.457  14.964  70.276  1.00  0.00    -0.271 C  
HETATM   13  C   UNL     1     -12.296  14.381  71.375  1.00  0.00    -0.360 C  
HETATM   14  O   UNL     1     -11.053  16.125  70.318  1.00  0.00    -0.348 OA 
HETATM   15  I   UNL     1     -12.782  15.514  73.007  1.00  0.00    -0.796 I  
HETATM   16  C   UNL     1     -12.702  13.108  71.244  1.00  0.00    -0.306 C  
ENDBRANCH   7   8
ENDBRANCH   5   7
ENDBRANCH   4   5
ENDBRANCH   3   4
ENDBRANCH   2   3
TORSDOF 5
ENDMDL
MODEL       83
REMARK 921   NORMALIZED FREE ENERGY PREDICTED BY IDOCK:   -3.95 KCAL/MOL
REMARK 922        TOTAL FREE ENERGY PREDICTED BY IDOCK:   -5.42 KCAL/MOL
REMARK 923 INTER-LIGAND FREE ENERGY PREDICTED BY IDOCK:   -5.23 KCAL/MOL
REMARK 924 INTRA-LIGAND FREE ENERGY PREDICTED BY IDOCK:   -0.19 KCAL/MOL
REMARK 927      BINDING AFFINITY PREDICTED BY RF-SCORE:    0.00 PKD
ROOT
HETATM    1  C   UNL     1     -13.564   9.078  72.196  1.00  0.00    -0.523 C  
HETATM    2  C   UNL     1     -12.892  10.300  71.586  1.00  0.00    -0.568 C  
ENDROOT
BRANCH   2   3
HETATM    3  C   UNL     1     -11.474   9.957  71.146  1.00  0.00    -0.383 C  
BRANCH   3   4
HETATM    4  O   UNL     1     -11.136  10.596  69.906  1.00  0.00    -0.270 OA 
BRANCH   4   5
HETATM    5  C   UNL     1     -10.079  10.060  69.225  1.00  0.00    -0.213 C  
HETATM    6  O   UNL     1      -8.906  10.127  69.571  1.00  0.00    -0.185 OA 
BRANCH   5   7
HETATM    7  C   UNL     1     -10.572   9.303  68.001  1.00  0.00    -0.208 C  
BRANCH   7   8
HETATM    8  N   UNL     1     -10.503  10.118  66.773  1.00  0.00    -0.224 NA 
HETATM    9  C   UNL     1     -11.207  11.312  66.663  1.00  0.00    -0.177 C  
HETATM   10  C   UNL     1     -11.224  12.099  65.576  1.00  0.00    -0.334 C  
HETATM   11  I   UNL     1     -12.285  13.843  65.509  1.00  0.00    -0.525 I  
HETATM   12  C   UNL     1     -10.428  11.651  64.379  1.00  0.00    -0.322 C  
HETATM   13  C   UNL     1      -9.683  10.354  64.506  1.00  0.00    -0.330 C  
HETATM   14  O   UNL     1     -10.389  12.319  63.347  1.00  0.00    -0.432 OA 
HETATM   15  I   UNL     1      -8.585   9.642  62.934  1.00  0.00    -0.244 I  
HETATM   16  C   UNL     1      -9.773   9.693  65.671  1.00  0.00    -0.293 C  
ENDBRANCH   7   8
ENDBRANCH   5   7
ENDBRANCH   4   5
ENDBRANCH   3   4
ENDBRANCH   2   3
TORSDOF 5
ENDMDL
MODEL       84
REMARK 921   NORMALIZED FREE ENERGY PREDICTED BY IDOCK:   -3.94 KCAL/MOL
REMARK 922        TOTAL FREE ENERGY PREDICTED BY IDOCK:   -5.40 KCAL/MOL
REMARK 923 INTER-LIGAND FREE ENERGY PREDICTED BY IDOCK:   -5.07 KCAL/MOL
REMARK 924 INTRA-LIGAND FREE ENERGY PREDICTED BY IDOCK:   -0.33 KCAL/MOL
REMARK 927      BINDING AFFINITY PREDICTED BY RF-SCORE:    0.00 PKD
ROOT
HETATM    1  C   UNL     1     -10.821  10.761  69.681  1.00  0.00    -0.294 C  
HETATM    2  C   UNL     1     -11.952  11.333  68.838  1.00  0.00    -0.378 C  
ENDROOT
BRANCH   2   3
HETATM    3  C   UNL     1     -11.553  12.691  68.274  1.00  0.00    -0.332 C  
BRANCH   3   4
HETATM    4  O   UNL     1     -11.107  12.590  66.914  1.00  0.00    -0.255 OA 
BRANCH   4   5
HETATM    5  C   UNL     1     -11.511  13.590  66.075  1.00  0.00    -0.325 C  
HETATM    6  O   UNL     1     -12.669  13.959  65.918  1.00  0.00    -0.489 OA 
BRANCH   5   7
HETATM    7  C   UNL     1     -10.307  14.233  65.406  1.00  0.00    -0.370 C  
BRANCH   7   8
HETATM    8  N   UNL     1      -9.697  15.285  66.241  1.00  0.00    -0.277 NA 
HETATM    9  C   UNL     1      -8.692  14.984  67.153  1.00  0.00    -0.220 C  
HETATM   10  C   UNL     1      -8.102  15.870  67.970  1.00  0.00    -0.141 C  
HETATM   11  I   UNL     1      -6.626  15.336  69.277  1.00  0.00    -0.181 I  
HETATM   12  C   UNL     1      -8.571  17.300  67.903  1.00  0.00    -0.223 C  
HETATM   13  C   UNL     1      -9.666  17.609  66.923  1.00  0.00    -0.292 C  
HETATM   14  O   UNL     1      -8.077  18.172  68.616  1.00  0.00    -0.307 OA 
HETATM   15  I   UNL     1     -10.391  19.515  66.761  1.00  0.00    -0.646 I  
HETATM   16  C   UNL     1     -10.141  16.599  66.177  1.00  0.00    -0.345 C  
ENDBRANCH   7   8
ENDBRANCH   5   7
ENDBRANCH   4   5
ENDBRANCH   3   4
ENDBRANCH   2   3
TORSDOF 5
ENDMDL
MODEL       85
REMARK 921   NORMALIZED FREE ENERGY PREDICTED BY IDOCK:   -3.92 KCAL/MOL
REMARK 922        TOTAL FREE ENERGY PREDICTED BY IDOCK:   -5.39 KCAL/MOL
REMARK 923 INTER-LIGAND FREE ENERGY PREDICTED BY IDOCK:   -5.03 KCAL/MOL
REMARK 924 INTRA-LIGAND FREE ENERGY PREDICTED BY IDOCK:   -0.35 KCAL/MOL
REMARK 927      BINDING AFFINITY PREDICTED BY RF-SCORE:    0.00 PKD
ROOT
HETATM    1  C   UNL     1      -8.687  19.415  67.794  1.00  0.00    -0.352 C  
HETATM    2  C   UNL     1     -10.097  19.809  67.380  1.00  0.00    -0.555 C  
ENDROOT
BRANCH   2   3
HETATM    3  C   UNL     1     -10.380  19.339  65.958  1.00  0.00    -0.475 C  
BRANCH   3   4
HETATM    4  O   UNL     1      -9.859  18.023  65.723  1.00  0.00    -0.539 OA 
BRANCH   4   5
HETATM    5  C   UNL     1     -10.785  17.043  65.501  1.00  0.00    -0.138 C  
HETATM    6  O   UNL     1     -11.298  16.785  64.418  1.00  0.00    -1.089 OA 
BRANCH   5   7
HETATM    7  C   UNL     1     -11.044  16.264  66.781  1.00  0.00     0.081 C  
BRANCH   7   8
HETATM    8  N   UNL     1     -10.158  15.092  66.913  1.00  0.00    -0.245 NA 
HETATM    9  C   UNL     1      -9.028  15.133  67.720  1.00  0.00    -0.178 C  
HETATM   10  C   UNL     1      -8.154  14.126  67.875  1.00  0.00    -0.154 C  
HETATM   11  I   UNL     1      -6.520  14.277  69.091  1.00  0.00    -0.128 I  
HETATM   12  C   UNL     1      -8.413  12.855  67.110  1.00  0.00    -0.179 C  
HETATM   13  C   UNL     1      -9.630  12.828  66.232  1.00  0.00    -0.242 C  
HETATM   14  O   UNL     1      -7.661  11.886  67.203  1.00  0.00    -0.151 OA 
HETATM   15  I   UNL     1     -10.066  11.159  65.133  1.00  0.00    -0.383 I  
HETATM   16  C   UNL     1     -10.401  13.927  66.197  1.00  0.00    -0.301 C  
ENDBRANCH   7   8
ENDBRANCH   5   7
ENDBRANCH   4   5
ENDBRANCH   3   4
ENDBRANCH   2   3
TORSDOF 5
ENDMDL
MODEL       86
REMARK 921   NORMALIZED FREE ENERGY PREDICTED BY IDOCK:   -3.90 KCAL/MOL
REMARK 922        TOTAL FREE ENERGY PREDICTED BY IDOCK:   -5.36 KCAL/MOL
REMARK 923 INTER-LIGAND FREE ENERGY PREDICTED BY IDOCK:   -5.05 KCAL/MOL
REMARK 924 INTRA-LIGAND FREE ENERGY PREDICTED BY IDOCK:   -0.31 KCAL/MOL
REMARK 927      BINDING AFFINITY PREDICTED BY RF-SCORE:    0.00 PKD
ROOT
HETATM    1  C   UNL     1     -10.890   6.595  67.072  1.00  0.00    -0.467 C  
HETATM    2  C   UNL     1     -10.792   6.444  68.583  1.00  0.00    -0.379 C  
ENDROOT
BRANCH   2   3
HETATM    3  C   UNL     1     -10.327   7.750  69.215  1.00  0.00    -0.219 C  
BRANCH   3   4
HETATM    4  O   UNL     1     -11.025   8.880  68.670  1.00  0.00    -0.055 OA 
BRANCH   4   5
HETATM    5  C   UNL     1     -10.566  10.109  69.051  1.00  0.00    -0.223 C  
HETATM    6  O   UNL     1      -9.396  10.386  69.288  1.00  0.00    -0.195 OA 
BRANCH   5   7
HETATM    7  C   UNL     1     -11.709  11.112  69.076  1.00  0.00    -0.339 C  
BRANCH   7   8
HETATM    8  N   UNL     1     -11.539  12.181  68.073  1.00  0.00    -0.330 NA 
HETATM    9  C   UNL     1     -11.247  13.484  68.455  1.00  0.00    -0.278 C  
HETATM   10  C   UNL     1     -11.104  14.521  67.614  1.00  0.00    -0.304 C  
HETATM   11  I   UNL     1     -10.667  16.405  68.269  1.00  0.00    -0.337 I  
HETATM   12  C   UNL     1     -11.283  14.254  66.143  1.00  0.00    -0.331 C  
HETATM   13  C   UNL     1     -11.612  12.844  65.745  1.00  0.00    -0.368 C  
HETATM   14  O   UNL     1     -11.164  15.149  65.309  1.00  0.00    -0.350 OA 
HETATM   15  I   UNL     1     -11.895  12.373  63.774  1.00  0.00    -0.672 I  
HETATM   16  C   UNL     1     -11.714  11.927  66.719  1.00  0.00    -0.202 C  
ENDBRANCH   7   8
ENDBRANCH   5   7
ENDBRANCH   4   5
ENDBRANCH   3   4
ENDBRANCH   2   3
TORSDOF 5
ENDMDL
MODEL       87
REMARK 921   NORMALIZED FREE ENERGY PREDICTED BY IDOCK:   -3.90 KCAL/MOL
REMARK 922        TOTAL FREE ENERGY PREDICTED BY IDOCK:   -5.35 KCAL/MOL
REMARK 923 INTER-LIGAND FREE ENERGY PREDICTED BY IDOCK:   -4.85 KCAL/MOL
REMARK 924 INTRA-LIGAND FREE ENERGY PREDICTED BY IDOCK:   -0.50 KCAL/MOL
REMARK 927      BINDING AFFINITY PREDICTED BY RF-SCORE:    0.00 PKD
ROOT
HETATM    1  C   UNL     1      -9.733   9.957  64.851  1.00  0.00    -0.332 C  
HETATM    2  C   UNL     1      -9.761  11.305  64.144  1.00  0.00    -0.298 C  
ENDROOT
BRANCH   2   3
HETATM    3  C   UNL     1     -11.195  11.803  64.015  1.00  0.00    -0.385 C  
BRANCH   3   4
HETATM    4  O   UNL     1     -11.258  13.236  63.991  1.00  0.00    -0.381 OA 
BRANCH   4   5
HETATM    5  C   UNL     1     -11.992  13.821  64.984  1.00  0.00    -0.383 C  
HETATM    6  O   UNL     1     -13.212  13.768  65.088  1.00  0.00    -0.757 OA 
BRANCH   5   7
HETATM    7  C   UNL     1     -11.073  14.495  65.991  1.00  0.00    -0.329 C  
BRANCH   7   8
HETATM    8  N   UNL     1     -10.456  13.530  66.921  1.00  0.00    -0.269 NA 
HETATM    9  C   UNL     1      -9.093  13.262  66.877  1.00  0.00    -0.232 C  
HETATM   10  C   UNL     1      -8.456  12.381  67.664  1.00  0.00    -0.169 C  
HETATM   11  I   UNL     1      -6.443  12.056  67.532  1.00  0.00    -0.154 I  
HETATM   12  C   UNL     1      -9.280  11.617  68.666  1.00  0.00    -0.108 C  
HETATM   13  C   UNL     1     -10.753  11.907  68.694  1.00  0.00    -0.235 C  
HETATM   14  O   UNL     1      -8.769  10.796  69.426  1.00  0.00    -0.095 OA 
HETATM   15  I   UNL     1     -11.971  10.914  70.004  1.00  0.00    -0.452 I  
HETATM   16  C   UNL     1     -11.226  12.825  67.837  1.00  0.00    -0.274 C  
ENDBRANCH   7   8
ENDBRANCH   5   7
ENDBRANCH   4   5
ENDBRANCH   3   4
ENDBRANCH   2   3
TORSDOF 5
ENDMDL
MODEL       88
REMARK 921   NORMALIZED FREE ENERGY PREDICTED BY IDOCK:   -3.90 KCAL/MOL
REMARK 922        TOTAL FREE ENERGY PREDICTED BY IDOCK:   -5.35 KCAL/MOL
REMARK 923 INTER-LIGAND FREE ENERGY PREDICTED BY IDOCK:   -4.97 KCAL/MOL
REMARK 924 INTRA-LIGAND FREE ENERGY PREDICTED BY IDOCK:   -0.38 KCAL/MOL
REMARK 927      BINDING AFFINITY PREDICTED BY RF-SCORE:    0.00 PKD
ROOT
HETATM    1  C   UNL     1     -12.792  13.813  65.466  1.00  0.00    -0.464 C  
HETATM    2  C   UNL     1     -11.913  14.088  66.677  1.00  0.00    -0.473 C  
ENDROOT
BRANCH   2   3
HETATM    3  C   UNL     1     -11.756  12.824  67.514  1.00  0.00    -0.364 C  
BRANCH   3   4
HETATM    4  O   UNL     1     -11.865  11.641  66.710  1.00  0.00    -0.557 OA 
BRANCH   4   5
HETATM    5  C   UNL     1     -10.686  11.092  66.288  1.00  0.00    -0.240 C  
HETATM    6  O   UNL     1     -10.362  10.922  65.119  1.00  0.00    -0.279 OA 
BRANCH   5   7
HETATM    7  C   UNL     1      -9.795  10.781  67.481  1.00  0.00    -0.172 C  
BRANCH   7   8
HETATM    8  N   UNL     1     -10.145   9.500  68.124  1.00  0.00    -0.173 NA 
HETATM    9  C   UNL     1     -10.092   8.304  67.417  1.00  0.00    -0.233 C  
HETATM   10  C   UNL     1     -10.420   7.101  67.914  1.00  0.00    -0.212 C  
HETATM   11  I   UNL     1     -10.303   5.393  66.800  1.00  0.00    -0.283 I  
HETATM   12  C   UNL     1     -10.891   7.041  69.343  1.00  0.00    -0.227 C  
HETATM   13  C   UNL     1     -10.957   8.342  70.090  1.00  0.00    -0.222 C  
HETATM   14  O   UNL     1     -11.205   5.976  69.871  1.00  0.00    -0.386 OA 
HETATM   15  I   UNL     1     -11.601   8.379  72.031  1.00  0.00    -0.466 I  
HETATM   16  C   UNL     1     -10.586   9.456  69.440  1.00  0.00    -0.221 C  
ENDBRANCH   7   8
ENDBRANCH   5   7
ENDBRANCH   4   5
ENDBRANCH   3   4
ENDBRANCH   2   3
TORSDOF 5
ENDMDL
MODEL       89
REMARK 921   NORMALIZED FREE ENERGY PREDICTED BY IDOCK:   -3.88 KCAL/MOL
REMARK 922        TOTAL FREE ENERGY PREDICTED BY IDOCK:   -5.33 KCAL/MOL
REMARK 923 INTER-LIGAND FREE ENERGY PREDICTED BY IDOCK:   -5.34 KCAL/MOL
REMARK 924 INTRA-LIGAND FREE ENERGY PREDICTED BY IDOCK:    0.01 KCAL/MOL
REMARK 927      BINDING AFFINITY PREDICTED BY RF-SCORE:    0.00 PKD
ROOT
HETATM    1  C   UNL     1     -10.114   7.528  73.313  1.00  0.00    -0.386 C  
HETATM    2  C   UNL     1     -11.246   6.777  72.627  1.00  0.00    -0.291 C  
ENDROOT
BRANCH   2   3
HETATM    3  C   UNL     1     -11.575   7.427  71.288  1.00  0.00    -0.280 C  
BRANCH   3   4
HETATM    4  O   UNL     1     -12.835   8.112  71.328  1.00  0.00    -0.280 OA 
BRANCH   4   5
HETATM    5  C   UNL     1     -12.774   9.477  71.372  1.00  0.00    -0.358 C  
HETATM    6  O   UNL     1     -13.621  10.208  71.870  1.00  0.00    -0.337 OA 
BRANCH   5   7
HETATM    7  C   UNL     1     -11.465   9.964  70.770  1.00  0.00    -0.354 C  
BRANCH   7   8
HETATM    8  N   UNL     1     -11.629  11.220  70.012  1.00  0.00    -0.317 NA 
HETATM    9  C   UNL     1     -12.044  12.388  70.640  1.00  0.00    -0.225 C  
HETATM   10  C   UNL     1     -12.246  13.563  70.025  1.00  0.00    -0.312 C  
HETATM   11  I   UNL     1     -12.852  15.233  71.033  1.00  0.00    -0.525 I  
HETATM   12  C   UNL     1     -12.014  13.621  68.538  1.00  0.00    -0.361 C  
HETATM   13  C   UNL     1     -11.579  12.349  67.870  1.00  0.00    -0.356 C  
HETATM   14  O   UNL     1     -12.173  14.662  67.903  1.00  0.00    -0.241 OA 
HETATM   15  I   UNL     1     -11.253  12.308  65.851  1.00  0.00    -0.418 I  
HETATM   16  C   UNL     1     -11.420  11.261  68.640  1.00  0.00    -0.297 C  
ENDBRANCH   7   8
ENDBRANCH   5   7
ENDBRANCH   4   5
ENDBRANCH   3   4
ENDBRANCH   2   3
TORSDOF 5
ENDMDL
MODEL       90
REMARK 921   NORMALIZED FREE ENERGY PREDICTED BY IDOCK:   -3.87 KCAL/MOL
REMARK 922        TOTAL FREE ENERGY PREDICTED BY IDOCK:   -5.32 KCAL/MOL
REMARK 923 INTER-LIGAND FREE ENERGY PREDICTED BY IDOCK:   -4.99 KCAL/MOL
REMARK 924 INTRA-LIGAND FREE ENERGY PREDICTED BY IDOCK:   -0.33 KCAL/MOL
REMARK 927      BINDING AFFINITY PREDICTED BY RF-SCORE:    0.00 PKD
ROOT
HETATM    1  C   UNL     1      -8.855  19.560  67.716  1.00  0.00    -0.370 C  
HETATM    2  C   UNL     1     -10.346  19.573  67.408  1.00  0.00    -0.572 C  
ENDROOT
BRANCH   2   3
HETATM    3  C   UNL     1     -10.594  19.098  65.982  1.00  0.00    -0.442 C  
BRANCH   3   4
HETATM    4  O   UNL     1      -9.918  17.861  65.710  1.00  0.00    -0.551 OA 
BRANCH   4   5
HETATM    5  C   UNL     1     -10.712  16.815  65.331  1.00  0.00    -0.189 C  
HETATM    6  O   UNL     1     -11.110  16.605  64.192  1.00  0.00    -1.005 OA 
BRANCH   5   7
HETATM    7  C   UNL     1     -10.980  15.902  66.517  1.00  0.00    -0.121 C  
BRANCH   7   8
HETATM    8  N   UNL     1     -10.039  14.768  66.576  1.00  0.00    -0.264 NA 
HETATM    9  C   UNL     1     -10.326  13.563  65.945  1.00  0.00    -0.299 C  
HETATM   10  C   UNL     1      -9.542  12.474  65.971  1.00  0.00    -0.202 C  
HETATM   11  I   UNL     1     -10.045  10.745  65.007  1.00  0.00    -0.337 I  
HETATM   12  C   UNL     1      -8.256  12.559  66.750  1.00  0.00     0.008 C  
HETATM   13  C   UNL     1      -7.964  13.861  67.437  1.00  0.00    -0.170 C  
HETATM   14  O   UNL     1      -7.482  11.605  66.817  1.00  0.00    -0.142 OA 
HETATM   15  I   UNL     1      -6.254  14.080  68.537  1.00  0.00    -0.135 I  
HETATM   16  C   UNL     1      -8.858  14.853  67.303  1.00  0.00    -0.201 C  
ENDBRANCH   7   8
ENDBRANCH   5   7
ENDBRANCH   4   5
ENDBRANCH   3   4
ENDBRANCH   2   3
TORSDOF 5
ENDMDL
MODEL       91
REMARK 921   NORMALIZED FREE ENERGY PREDICTED BY IDOCK:   -3.85 KCAL/MOL
REMARK 922        TOTAL FREE ENERGY PREDICTED BY IDOCK:   -5.28 KCAL/MOL
REMARK 923 INTER-LIGAND FREE ENERGY PREDICTED BY IDOCK:   -4.96 KCAL/MOL
REMARK 924 INTRA-LIGAND FREE ENERGY PREDICTED BY IDOCK:   -0.32 KCAL/MOL
REMARK 927      BINDING AFFINITY PREDICTED BY RF-SCORE:    0.00 PKD
ROOT
HETATM    1  C   UNL     1      -8.563   9.254  64.039  1.00  0.00    -0.204 C  
HETATM    2  C   UNL     1      -9.300  10.557  63.765  1.00  0.00    -0.319 C  
ENDROOT
BRANCH   2   3
HETATM    3  C   UNL     1     -10.380  10.783  64.816  1.00  0.00    -0.310 C  
BRANCH   3   4
HETATM    4  O   UNL     1      -9.951  10.355  66.117  1.00  0.00    -0.211 OA 
BRANCH   4   5
HETATM    5  C   UNL     1      -9.965  11.308  67.096  1.00  0.00    -0.192 C  
HETATM    6  O   UNL     1      -9.005  11.629  67.787  1.00  0.00    -0.159 OA 
BRANCH   5   7
HETATM    7  C   UNL     1     -11.333  11.970  67.166  1.00  0.00    -0.333 C  
BRANCH   7   8
HETATM    8  N   UNL     1     -11.832  12.082  68.550  1.00  0.00    -0.338 NA 
HETATM    9  C   UNL     1     -11.959  13.320  69.169  1.00  0.00    -0.296 C  
HETATM   10  C   UNL     1     -12.377  13.511  70.430  1.00  0.00    -0.327 C  
HETATM   11  I   UNL     1     -12.539  15.373  71.255  1.00  0.00    -0.594 I  
HETATM   12  C   UNL     1     -12.726  12.291  71.241  1.00  0.00    -0.251 C  
HETATM   13  C   UNL     1     -12.571  10.960  70.565  1.00  0.00    -0.324 C  
HETATM   14  O   UNL     1     -13.120  12.384  72.403  1.00  0.00    -0.328 OA 
HETATM   15  I   UNL     1     -12.999   9.237  71.580  1.00  0.00    -0.516 I  
HETATM   16  C   UNL     1     -12.144  10.951  69.293  1.00  0.00    -0.261 C  
ENDBRANCH   7   8
ENDBRANCH   5   7
ENDBRANCH   4   5
ENDBRANCH   3   4
ENDBRANCH   2   3
TORSDOF 5
ENDMDL
MODEL       92
REMARK 921   NORMALIZED FREE ENERGY PREDICTED BY IDOCK:   -3.84 KCAL/MOL
REMARK 922        TOTAL FREE ENERGY PREDICTED BY IDOCK:   -5.27 KCAL/MOL
REMARK 923 INTER-LIGAND FREE ENERGY PREDICTED BY IDOCK:   -4.89 KCAL/MOL
REMARK 924 INTRA-LIGAND FREE ENERGY PREDICTED BY IDOCK:   -0.39 KCAL/MOL
REMARK 927      BINDING AFFINITY PREDICTED BY RF-SCORE:    0.00 PKD
ROOT
HETATM    1  C   UNL     1     -12.741  13.209  71.611  1.00  0.00    -0.320 C  
HETATM    2  C   UNL     1     -12.413  14.661  71.932  1.00  0.00    -0.412 C  
ENDROOT
BRANCH   2   3
HETATM    3  C   UNL     1     -11.625  15.288  70.789  1.00  0.00    -0.333 C  
BRANCH   3   4
HETATM    4  O   UNL     1     -12.285  15.104  69.528  1.00  0.00    -0.292 OA 
BRANCH   4   5
HETATM    5  C   UNL     1     -11.479  15.108  68.423  1.00  0.00    -0.332 C  
HETATM    6  O   UNL     1     -10.356  15.595  68.368  1.00  0.00    -0.225 OA 
BRANCH   5   7
HETATM    7  C   UNL     1     -12.148  14.358  67.282  1.00  0.00    -0.323 C  
BRANCH   7   8
HETATM    8  N   UNL     1     -11.561  13.022  67.068  1.00  0.00    -0.340 NA 
HETATM    9  C   UNL     1     -11.402  12.131  68.123  1.00  0.00    -0.293 C  
HETATM   10  C   UNL     1     -10.852  10.910  68.024  1.00  0.00    -0.245 C  
HETATM   11  I   UNL     1     -10.665   9.664  69.632  1.00  0.00    -0.283 I  
HETATM   12  C   UNL     1     -10.363  10.474  66.668  1.00  0.00    -0.237 C  
HETATM   13  C   UNL     1     -10.529  11.451  65.541  1.00  0.00    -0.268 C  
HETATM   14  O   UNL     1      -9.852   9.369  66.495  1.00  0.00    -0.217 OA 
HETATM   15  I   UNL     1      -9.881  10.970  63.661  1.00  0.00    -0.467 I  
HETATM   16  C   UNL     1     -11.105  12.632  65.816  1.00  0.00    -0.297 C  
ENDBRANCH   7   8
ENDBRANCH   5   7
ENDBRANCH   4   5
ENDBRANCH   3   4
ENDBRANCH   2   3
TORSDOF 5
ENDMDL
MODEL       93
REMARK 921   NORMALIZED FREE ENERGY PREDICTED BY IDOCK:   -3.84 KCAL/MOL
REMARK 922        TOTAL FREE ENERGY PREDICTED BY IDOCK:   -5.27 KCAL/MOL
REMARK 923 INTER-LIGAND FREE ENERGY PREDICTED BY IDOCK:   -4.86 KCAL/MOL
REMARK 924 INTRA-LIGAND FREE ENERGY PREDICTED BY IDOCK:   -0.42 KCAL/MOL
REMARK 927      BINDING AFFINITY PREDICTED BY RF-SCORE:    0.00 PKD
ROOT
HETATM    1  C   UNL     1      -8.309   9.152  66.000  1.00  0.00    -0.125 C  
HETATM    2  C   UNL     1      -9.359  10.117  66.530  1.00  0.00    -0.200 C  
ENDROOT
BRANCH   2   3
HETATM    3  C   UNL     1     -10.094   9.500  67.713  1.00  0.00    -0.198 C  
BRANCH   3   4
HETATM    4  O   UNL     1      -9.907  10.266  68.912  1.00  0.00    -0.176 OA 
BRANCH   4   5
HETATM    5  C   UNL     1     -11.003  10.395  69.718  1.00  0.00    -0.293 C  
HETATM    6  O   UNL     1     -11.069  10.036  70.887  1.00  0.00    -0.328 OA 
BRANCH   5   7
HETATM    7  C   UNL     1     -12.119  11.115  68.976  1.00  0.00    -0.246 C  
BRANCH   7   8
HETATM    8  N   UNL     1     -11.891  12.570  68.896  1.00  0.00    -0.311 NA 
HETATM    9  C   UNL     1     -11.435  13.162  67.724  1.00  0.00    -0.313 C  
HETATM   10  C   UNL     1     -11.174  14.470  67.572  1.00  0.00    -0.321 C  
HETATM   11  I   UNL     1     -10.511  15.252  65.805  1.00  0.00    -0.459 I  
HETATM   12  C   UNL     1     -11.383  15.366  68.764  1.00  0.00    -0.320 C  
HETATM   13  C   UNL     1     -11.864  14.712  70.028  1.00  0.00    -0.308 C  
HETATM   14  O   UNL     1     -11.171  16.575  68.704  1.00  0.00    -0.353 OA 
HETATM   15  I   UNL     1     -12.163  15.831  71.713  1.00  0.00    -0.574 I  
HETATM   16  C   UNL     1     -12.079  13.387  70.003  1.00  0.00    -0.334 C  
ENDBRANCH   7   8
ENDBRANCH   5   7
ENDBRANCH   4   5
ENDBRANCH   3   4
ENDBRANCH   2   3
TORSDOF 5
ENDMDL
MODEL       94
REMARK 921   NORMALIZED FREE ENERGY PREDICTED BY IDOCK:   -3.84 KCAL/MOL
REMARK 922        TOTAL FREE ENERGY PREDICTED BY IDOCK:   -5.27 KCAL/MOL
REMARK 923 INTER-LIGAND FREE ENERGY PREDICTED BY IDOCK:   -5.02 KCAL/MOL
REMARK 924 INTRA-LIGAND FREE ENERGY PREDICTED BY IDOCK:   -0.25 KCAL/MOL
REMARK 927      BINDING AFFINITY PREDICTED BY RF-SCORE:    0.00 PKD
ROOT
HETATM    1  C   UNL     1     -11.312   6.687  72.673  1.00  0.00    -0.262 C  
HETATM    2  C   UNL     1     -12.079   7.129  71.435  1.00  0.00    -0.381 C  
ENDROOT
BRANCH   2   3
HETATM    3  C   UNL     1     -11.208   8.029  70.568  1.00  0.00    -0.250 C  
BRANCH   3   4
HETATM    4  O   UNL     1     -11.754   9.352  70.462  1.00  0.00    -0.262 OA 
BRANCH   4   5
HETATM    5  C   UNL     1     -10.993  10.263  69.785  1.00  0.00    -0.289 C  
HETATM    6  O   UNL     1      -9.769  10.318  69.805  1.00  0.00    -0.220 OA 
BRANCH   5   7
HETATM    7  C   UNL     1     -11.879  11.165  68.941  1.00  0.00    -0.337 C  
BRANCH   7   8
HETATM    8  N   UNL     1     -11.731  12.589  69.298  1.00  0.00    -0.309 NA 
HETATM    9  C   UNL     1     -10.887  13.425  68.576  1.00  0.00    -0.265 C  
HETATM   10  C   UNL     1     -10.671  14.722  68.848  1.00  0.00    -0.252 C  
HETATM   11  I   UNL     1      -9.414  15.877  67.726  1.00  0.00    -0.218 I  
HETATM   12  C   UNL     1     -11.391  15.316  70.030  1.00  0.00    -0.290 C  
HETATM   13  C   UNL     1     -12.289  14.399  70.808  1.00  0.00    -0.347 C  
HETATM   14  O   UNL     1     -11.249  16.498  70.340  1.00  0.00    -0.336 OA 
HETATM   15  I   UNL     1     -13.301  15.096  72.443  1.00  0.00    -0.724 I  
HETATM   16  C   UNL     1     -12.393  13.126  70.394  1.00  0.00    -0.279 C  
ENDBRANCH   7   8
ENDBRANCH   5   7
ENDBRANCH   4   5
ENDBRANCH   3   4
ENDBRANCH   2   3
TORSDOF 5
ENDMDL
MODEL       95
REMARK 921   NORMALIZED FREE ENERGY PREDICTED BY IDOCK:   -3.83 KCAL/MOL
REMARK 922        TOTAL FREE ENERGY PREDICTED BY IDOCK:   -5.27 KCAL/MOL
REMARK 923 INTER-LIGAND FREE ENERGY PREDICTED BY IDOCK:   -4.94 KCAL/MOL
REMARK 924 INTRA-LIGAND FREE ENERGY PREDICTED BY IDOCK:   -0.33 KCAL/MOL
REMARK 927      BINDING AFFINITY PREDICTED BY RF-SCORE:    0.00 PKD
ROOT
HETATM    1  C   UNL     1      -6.158  21.177  67.541  1.00  0.00    -0.420 C  
HETATM    2  C   UNL     1      -7.284  20.154  67.602  1.00  0.00    -0.325 C  
ENDROOT
BRANCH   2   3
HETATM    3  C   UNL     1      -8.145  20.243  66.348  1.00  0.00    -0.190 C  
BRANCH   3   4
HETATM    4  O   UNL     1      -9.532  20.421  66.670  1.00  0.00    -0.360 OA 
BRANCH   4   5
HETATM    5  C   UNL     1     -10.217  19.291  67.020  1.00  0.00    -0.398 C  
HETATM    6  O   UNL     1     -10.616  19.025  68.147  1.00  0.00    -0.354 OA 
BRANCH   5   7
HETATM    7  C   UNL     1     -10.477  18.433  65.791  1.00  0.00    -0.227 C  
BRANCH   7   8
HETATM    8  N   UNL     1     -10.155  17.012  66.021  1.00  0.00    -0.453 NA 
HETATM    9  C   UNL     1      -8.960  16.635  66.624  1.00  0.00    -0.255 C  
HETATM   10  C   UNL     1      -8.575  15.368  66.845  1.00  0.00    -0.259 C  
HETATM   11  I   UNL     1      -6.799  14.910  67.744  1.00  0.00    -0.154 I  
HETATM   12  C   UNL     1      -9.503  14.270  66.399  1.00  0.00    -0.275 C  
HETATM   13  C   UNL     1     -10.784  14.690  65.738  1.00  0.00    -0.315 C  
HETATM   14  O   UNL     1      -9.223  13.084  66.570  1.00  0.00    -0.240 OA 
HETATM   15  I   UNL     1     -12.109  13.279  65.077  1.00  0.00    -0.541 I  
HETATM   16  C   UNL     1     -11.013  16.005  65.600  1.00  0.00    -0.171 C  
ENDBRANCH   7   8
ENDBRANCH   5   7
ENDBRANCH   4   5
ENDBRANCH   3   4
ENDBRANCH   2   3
TORSDOF 5
ENDMDL
MODEL       96
REMARK 921   NORMALIZED FREE ENERGY PREDICTED BY IDOCK:   -3.80 KCAL/MOL
REMARK 922        TOTAL FREE ENERGY PREDICTED BY IDOCK:   -5.23 KCAL/MOL
REMARK 923 INTER-LIGAND FREE ENERGY PREDICTED BY IDOCK:   -5.15 KCAL/MOL
REMARK 924 INTRA-LIGAND FREE ENERGY PREDICTED BY IDOCK:   -0.08 KCAL/MOL
REMARK 927      BINDING AFFINITY PREDICTED BY RF-SCORE:    0.00 PKD
ROOT
HETATM    1  C   UNL     1     -13.077   7.438  71.552  1.00  0.00    -0.424 C  
HETATM    2  C   UNL     1     -13.297   8.721  72.339  1.00  0.00    -0.442 C  
ENDROOT
BRANCH   2   3
HETATM    3  C   UNL     1     -13.235   9.927  71.410  1.00  0.00    -0.400 C  
BRANCH   3   4
HETATM    4  O   UNL     1     -11.922  10.104  70.860  1.00  0.00    -0.308 OA 
BRANCH   4   5
HETATM    5  C   UNL     1     -11.796  11.082  69.913  1.00  0.00    -0.353 C  
HETATM    6  O   UNL     1     -12.196  12.234  70.026  1.00  0.00    -0.271 OA 
BRANCH   5   7
HETATM    7  C   UNL     1     -11.022  10.555  68.714  1.00  0.00    -0.251 C  
BRANCH   7   8
HETATM    8  N   UNL     1     -10.724  11.614  67.730  1.00  0.00    -0.196 NA 
HETATM    9  C   UNL     1      -9.789  12.605  68.004  1.00  0.00    -0.218 C  
HETATM   10  C   UNL     1      -9.478  13.619  67.181  1.00  0.00    -0.244 C  
HETATM   11  I   UNL     1      -8.082  15.029  67.667  1.00  0.00    -0.241 I  
HETATM   12  C   UNL     1     -10.202  13.694  65.863  1.00  0.00    -0.311 C  
HETATM   13  C   UNL     1     -11.218  12.625  65.585  1.00  0.00    -0.309 C  
HETATM   14  O   UNL     1      -9.969  14.590  65.053  1.00  0.00    -0.341 OA 
HETATM   15  I   UNL     1     -12.274  12.641  63.834  1.00  0.00    -0.579 I  
HETATM   16  C   UNL     1     -11.403  11.680  66.521  1.00  0.00    -0.263 C  
ENDBRANCH   7   8
ENDBRANCH   5   7
ENDBRANCH   4   5
ENDBRANCH   3   4
ENDBRANCH   2   3
TORSDOF 5
ENDMDL
MODEL       97
REMARK 921   NORMALIZED FREE ENERGY PREDICTED BY IDOCK:   -3.80 KCAL/MOL
REMARK 922        TOTAL FREE ENERGY PREDICTED BY IDOCK:   -5.22 KCAL/MOL
REMARK 923 INTER-LIGAND FREE ENERGY PREDICTED BY IDOCK:   -4.98 KCAL/MOL
REMARK 924 INTRA-LIGAND FREE ENERGY PREDICTED BY IDOCK:   -0.25 KCAL/MOL
REMARK 927      BINDING AFFINITY PREDICTED BY RF-SCORE:    0.00 PKD
ROOT
HETATM    1  C   UNL     1     -12.530  15.609  73.464  1.00  0.00    -0.669 C  
HETATM    2  C   UNL     1     -13.887  15.837  72.814  1.00  0.00    -0.600 C  
ENDROOT
BRANCH   2   3
HETATM    3  C   UNL     1     -14.023  14.980  71.562  1.00  0.00    -0.501 C  
BRANCH   3   4
HETATM    4  O   UNL     1     -13.126  15.408  70.527  1.00  0.00    -0.385 OA 
BRANCH   4   5
HETATM    5  C   UNL     1     -12.338  14.437  69.977  1.00  0.00    -0.336 C  
HETATM    6  O   UNL     1     -12.077  13.358  70.497  1.00  0.00    -0.349 OA 
BRANCH   5   7
HETATM    7  C   UNL     1     -11.879  14.855  68.589  1.00  0.00    -0.300 C  
BRANCH   7   8
HETATM    8  N   UNL     1     -10.680  14.117  68.148  1.00  0.00    -0.240 NA 
HETATM    9  C   UNL     1      -9.441  14.345  68.736  1.00  0.00    -0.161 C  
HETATM   10  C   UNL     1      -8.297  13.742  68.379  1.00  0.00    -0.152 C  
HETATM   11  I   UNL     1      -6.520  14.137  69.306  1.00  0.00    -0.116 I  
HETATM   12  C   UNL     1      -8.355  12.748  67.249  1.00  0.00    -0.187 C  
HETATM   13  C   UNL     1      -9.697  12.520  66.615  1.00  0.00    -0.242 C  
HETATM   14  O   UNL     1      -7.351  12.150  66.867  1.00  0.00    -0.111 OA 
HETATM   15  I   UNL     1      -9.888  11.205  65.060  1.00  0.00    -0.371 I  
HETATM   16  C   UNL     1     -10.743  13.208  67.100  1.00  0.00    -0.255 C  
ENDBRANCH   7   8
ENDBRANCH   5   7
ENDBRANCH   4   5
ENDBRANCH   3   4
ENDBRANCH   2   3
TORSDOF 5
ENDMDL
MODEL       98
REMARK 921   NORMALIZED FREE ENERGY PREDICTED BY IDOCK:   -3.79 KCAL/MOL
REMARK 922        TOTAL FREE ENERGY PREDICTED BY IDOCK:   -5.22 KCAL/MOL
REMARK 923 INTER-LIGAND FREE ENERGY PREDICTED BY IDOCK:   -4.83 KCAL/MOL
REMARK 924 INTRA-LIGAND FREE ENERGY PREDICTED BY IDOCK:   -0.39 KCAL/MOL
REMARK 927      BINDING AFFINITY PREDICTED BY RF-SCORE:    0.00 PKD
ROOT
HETATM    1  C   UNL     1     -12.578  12.114  63.422  1.00  0.00    -0.584 C  
HETATM    2  C   UNL     1     -12.257  13.541  63.844  1.00  0.00    -0.458 C  
ENDROOT
BRANCH   2   3
HETATM    3  C   UNL     1     -12.469  13.706  65.344  1.00  0.00    -0.499 C  
BRANCH   3   4
HETATM    4  O   UNL     1     -11.324  14.292  65.979  1.00  0.00    -0.322 OA 
BRANCH   4   5
HETATM    5  C   UNL     1     -10.771  13.572  67.001  1.00  0.00    -0.277 C  
HETATM    6  O   UNL     1      -9.747  13.870  67.604  1.00  0.00    -0.217 OA 
BRANCH   5   7
HETATM    7  C   UNL     1     -11.647  12.374  67.335  1.00  0.00    -0.365 C  
BRANCH   7   8
HETATM    8  N   UNL     1     -10.983  11.092  67.032  1.00  0.00    -0.288 NA 
HETATM    9  C   UNL     1     -11.013  10.037  67.936  1.00  0.00    -0.252 C  
HETATM   10  C   UNL     1     -10.413   8.850  67.754  1.00  0.00    -0.239 C  
HETATM   11  I   UNL     1     -10.518   7.352  69.140  1.00  0.00    -0.155 I  
HETATM   12  C   UNL     1      -9.641   8.646  66.478  1.00  0.00    -0.237 C  
HETATM   13  C   UNL     1      -9.606   9.798  65.516  1.00  0.00    -0.282 C  
HETATM   14  O   UNL     1      -9.069   7.585  66.236  1.00  0.00    -0.163 OA 
HETATM   15  I   UNL     1      -8.571   9.638  63.759  1.00  0.00    -0.234 I  
HETATM   16  C   UNL     1     -10.266  10.917  65.855  1.00  0.00    -0.257 C  
ENDBRANCH   7   8
ENDBRANCH   5   7
ENDBRANCH   4   5
ENDBRANCH   3   4
ENDBRANCH   2   3
TORSDOF 5
ENDMDL
MODEL       99
REMARK 921   NORMALIZED FREE ENERGY PREDICTED BY IDOCK:   -3.78 KCAL/MOL
REMARK 922        TOTAL FREE ENERGY PREDICTED BY IDOCK:   -5.20 KCAL/MOL
REMARK 923 INTER-LIGAND FREE ENERGY PREDICTED BY IDOCK:   -4.70 KCAL/MOL
REMARK 924 INTRA-LIGAND FREE ENERGY PREDICTED BY IDOCK:   -0.50 KCAL/MOL
REMARK 927      BINDING AFFINITY PREDICTED BY RF-SCORE:    0.00 PKD
ROOT
HETATM    1  C   UNL     1      -8.930  10.428  66.259  1.00  0.00    -0.172 C  
HETATM    2  C   UNL     1      -7.911  10.768  67.338  1.00  0.00    -0.112 C  
ENDROOT
BRANCH   2   3
HETATM    3  C   UNL     1      -8.496  10.499  68.719  1.00  0.00    -0.141 C  
BRANCH   3   4
HETATM    4  O   UNL     1      -9.726   9.766  68.639  1.00  0.00    -0.150 OA 
BRANCH   4   5
HETATM    5  C   UNL     1     -10.619   9.980  69.652  1.00  0.00    -0.252 C  
HETATM    6  O   UNL     1     -10.410   9.758  70.839  1.00  0.00    -0.286 OA 
BRANCH   5   7
HETATM    7  C   UNL     1     -11.895  10.601  69.106  1.00  0.00    -0.215 C  
BRANCH   7   8
HETATM    8  N   UNL     1     -11.770  12.058  68.909  1.00  0.00    -0.308 NA 
HETATM    9  C   UNL     1     -11.955  12.944  69.964  1.00  0.00    -0.309 C  
HETATM   10  C   UNL     1     -11.889  14.281  69.868  1.00  0.00    -0.322 C  
HETATM   11  I   UNL     1     -12.170  15.505  71.479  1.00  0.00    -0.641 I  
HETATM   12  C   UNL     1     -11.599  14.869  68.513  1.00  0.00    -0.323 C  
HETATM   13  C   UNL     1     -11.414  13.902  67.379  1.00  0.00    -0.348 C  
HETATM   14  O   UNL     1     -11.518  16.085  68.344  1.00  0.00    -0.369 OA 
HETATM   15  I   UNL     1     -11.035  14.593  65.492  1.00  0.00    -0.420 I  
HETATM   16  C   UNL     1     -11.510  12.592  67.653  1.00  0.00    -0.334 C  
ENDBRANCH   7   8
ENDBRANCH   5   7
ENDBRANCH   4   5
ENDBRANCH   3   4
ENDBRANCH   2   3
TORSDOF 5
ENDMDL
MODEL      100
REMARK 921   NORMALIZED FREE ENERGY PREDICTED BY IDOCK:   -3.77 KCAL/MOL
REMARK 922        TOTAL FREE ENERGY PREDICTED BY IDOCK:   -5.18 KCAL/MOL
REMARK 923 INTER-LIGAND FREE ENERGY PREDICTED BY IDOCK:   -4.90 KCAL/MOL
REMARK 924 INTRA-LIGAND FREE ENERGY PREDICTED BY IDOCK:   -0.28 KCAL/MOL
REMARK 927      BINDING AFFINITY PREDICTED BY RF-SCORE:    0.00 PKD
ROOT
HETATM    1  C   UNL     1     -11.991   7.018  72.141  1.00  0.00    -0.299 C  
HETATM    2  C   UNL     1     -12.220   8.490  71.833  1.00  0.00    -0.411 C  
ENDROOT
BRANCH   2   3
HETATM    3  C   UNL     1     -10.905   9.161  71.456  1.00  0.00    -0.366 C  
BRANCH   3   4
HETATM    4  O   UNL     1     -11.035   9.952  70.266  1.00  0.00    -0.262 OA 
BRANCH   4   5
HETATM    5  C   UNL     1      -9.995   9.882  69.382  1.00  0.00    -0.212 C  
HETATM    6  O   UNL     1      -8.862  10.299  69.588  1.00  0.00    -0.175 OA 
BRANCH   5   7
HETATM    7  C   UNL     1     -10.425   9.148  68.122  1.00  0.00    -0.211 C  
BRANCH   7   8
HETATM    8  N   UNL     1     -10.463  10.034  66.943  1.00  0.00    -0.233 NA 
HETATM    9  C   UNL     1      -9.807   9.692  65.766  1.00  0.00    -0.302 C  
HETATM   10  C   UNL     1      -9.766  10.449  64.659  1.00  0.00    -0.329 C  
HETATM   11  I   UNL     1      -8.779   9.860  62.970  1.00  0.00    -0.294 I  
HETATM   12  C   UNL     1     -10.478  11.775  64.694  1.00  0.00    -0.299 C  
HETATM   13  C   UNL     1     -11.172  12.139  65.975  1.00  0.00    -0.336 C  
HETATM   14  O   UNL     1     -10.490  12.524  63.719  1.00  0.00    -0.416 OA 
HETATM   15  I   UNL     1     -12.154  13.925  66.140  1.00  0.00    -0.462 I  
HETATM   16  C   UNL     1     -11.116  11.259  66.988  1.00  0.00    -0.293 C  
ENDBRANCH   7   8
ENDBRANCH   5   7
ENDBRANCH   4   5
ENDBRANCH   3   4
ENDBRANCH   2   3
TORSDOF 5
ENDMDL
MODEL      101
REMARK 921   NORMALIZED FREE ENERGY PREDICTED BY IDOCK:   -3.76 KCAL/MOL
REMARK 922        TOTAL FREE ENERGY PREDICTED BY IDOCK:   -5.17 KCAL/MOL
REMARK 923 INTER-LIGAND FREE ENERGY PREDICTED BY IDOCK:   -4.97 KCAL/MOL
REMARK 924 INTRA-LIGAND FREE ENERGY PREDICTED BY IDOCK:   -0.21 KCAL/MOL
REMARK 927      BINDING AFFINITY PREDICTED BY RF-SCORE:    0.00 PKD
ROOT
HETATM    1  C   UNL     1     -12.498  11.977  63.578  1.00  0.00    -0.654 C  
HETATM    2  C   UNL     1     -12.113  13.326  64.170  1.00  0.00    -0.494 C  
ENDROOT
BRANCH   2   3
HETATM    3  C   UNL     1     -11.152  13.134  65.337  1.00  0.00    -0.278 C  
BRANCH   3   4
HETATM    4  O   UNL     1     -11.821  13.268  66.600  1.00  0.00    -0.360 OA 
BRANCH   4   5
HETATM    5  C   UNL     1     -11.041  13.105  67.711  1.00  0.00    -0.262 C  
HETATM    6  O   UNL     1      -9.900  13.530  67.844  1.00  0.00    -0.221 OA 
BRANCH   5   7
HETATM    7  C   UNL     1     -11.818  12.374  68.795  1.00  0.00    -0.311 C  
BRANCH   7   8
HETATM    8  N   UNL     1     -11.388  10.971  68.944  1.00  0.00    -0.254 NA 
HETATM    9  C   UNL     1     -11.628  10.268  70.119  1.00  0.00    -0.299 C  
HETATM   10  C   UNL     1     -11.248   9.002  70.350  1.00  0.00    -0.241 C  
HETATM   11  I   UNL     1     -11.652   8.045  72.109  1.00  0.00    -0.478 I  
HETATM   12  C   UNL     1     -10.494   8.289  69.258  1.00  0.00    -0.210 C  
HETATM   13  C   UNL     1     -10.230   9.065  67.999  1.00  0.00    -0.212 C  
HETATM   14  O   UNL     1     -10.116   7.127  69.391  1.00  0.00    -0.169 OA 
HETATM   15  I   UNL     1      -9.199   8.201  66.459  1.00  0.00    -0.259 I  
HETATM   16  C   UNL     1     -10.687  10.325  67.934  1.00  0.00    -0.264 C  
ENDBRANCH   7   8
ENDBRANCH   5   7
ENDBRANCH   4   5
ENDBRANCH   3   4
ENDBRANCH   2   3
TORSDOF 5
ENDMDL
MODEL      102
REMARK 921   NORMALIZED FREE ENERGY PREDICTED BY IDOCK:   -3.73 KCAL/MOL
REMARK 922        TOTAL FREE ENERGY PREDICTED BY IDOCK:   -5.14 KCAL/MOL
REMARK 923 INTER-LIGAND FREE ENERGY PREDICTED BY IDOCK:   -4.61 KCAL/MOL
REMARK 924 INTRA-LIGAND FREE ENERGY PREDICTED BY IDOCK:   -0.53 KCAL/MOL
REMARK 927      BINDING AFFINITY PREDICTED BY RF-SCORE:    0.00 PKD
ROOT
HETATM    1  C   UNL     1      -7.007  16.275  69.228  1.00  0.00    -0.217 C  
HETATM    2  C   UNL     1      -7.415  17.134  68.040  1.00  0.00    -0.197 C  
ENDROOT
BRANCH   2   3
HETATM    3  C   UNL     1      -8.464  18.155  68.463  1.00  0.00    -0.299 C  
BRANCH   3   4
HETATM    4  O   UNL     1      -9.695  17.522  68.844  1.00  0.00    -0.296 OA 
BRANCH   4   5
HETATM    5  C   UNL     1     -10.581  17.277  67.832  1.00  0.00    -0.384 C  
HETATM    6  O   UNL     1     -10.658  17.913  66.788  1.00  0.00    -0.328 OA 
BRANCH   5   7
HETATM    7  C   UNL     1     -11.420  16.050  68.155  1.00  0.00    -0.250 C  
BRANCH   7   8
HETATM    8  N   UNL     1     -10.916  14.835  67.489  1.00  0.00    -0.294 NA 
HETATM    9  C   UNL     1      -9.762  14.199  67.932  1.00  0.00    -0.224 C  
HETATM   10  C   UNL     1      -9.219  13.108  67.369  1.00  0.00    -0.213 C  
HETATM   11  I   UNL     1      -7.520  12.238  68.095  1.00  0.00    -0.145 I  
HETATM   12  C   UNL     1      -9.906  12.533  66.159  1.00  0.00    -0.258 C  
HETATM   13  C   UNL     1     -11.144  13.236  65.683  1.00  0.00    -0.282 C  
HETATM   14  O   UNL     1      -9.472  11.532  65.589  1.00  0.00    -0.223 OA 
HETATM   15  I   UNL     1     -12.146  12.551  64.037  1.00  0.00    -0.627 I  
HETATM   16  C   UNL     1     -11.552  14.316  66.368  1.00  0.00    -0.372 C  
ENDBRANCH   7   8
ENDBRANCH   5   7
ENDBRANCH   4   5
ENDBRANCH   3   4
ENDBRANCH   2   3
TORSDOF 5
ENDMDL
MODEL      103
REMARK 921   NORMALIZED FREE ENERGY PREDICTED BY IDOCK:   -3.73 KCAL/MOL
REMARK 922        TOTAL FREE ENERGY PREDICTED BY IDOCK:   -5.13 KCAL/MOL
REMARK 923 INTER-LIGAND FREE ENERGY PREDICTED BY IDOCK:   -4.72 KCAL/MOL
REMARK 924 INTRA-LIGAND FREE ENERGY PREDICTED BY IDOCK:   -0.42 KCAL/MOL
REMARK 927      BINDING AFFINITY PREDICTED BY RF-SCORE:    0.00 PKD
ROOT
HETATM    1  C   UNL     1      -7.608  11.802  68.298  1.00  0.00    -0.122 C  
HETATM    2  C   UNL     1      -8.247  12.487  67.099  1.00  0.00    -0.168 C  
ENDROOT
BRANCH   2   3
HETATM    3  C   UNL     1      -9.030  11.477  66.269  1.00  0.00    -0.196 C  
BRANCH   3   4
HETATM    4  O   UNL     1     -10.095  12.103  65.539  1.00  0.00    -0.241 OA 
BRANCH   4   5
HETATM    5  C   UNL     1     -11.301  12.173  66.178  1.00  0.00    -0.361 C  
HETATM    6  O   UNL     1     -11.736  11.337  66.961  1.00  0.00    -0.503 OA 
BRANCH   5   7
HETATM    7  C   UNL     1     -12.005  13.475  65.831  1.00  0.00    -0.406 C  
BRANCH   7   8
HETATM    8  N   UNL     1     -11.605  14.583  66.720  1.00  0.00    -0.369 NA 
HETATM    9  C   UNL     1     -10.763  15.594  66.272  1.00  0.00    -0.295 C  
HETATM   10  C   UNL     1     -10.327  16.620  67.019  1.00  0.00    -0.301 C  
HETATM   11  I   UNL     1      -9.093  18.066  66.271  1.00  0.00     0.060 I  
HETATM   12  C   UNL     1     -10.776  16.678  68.454  1.00  0.00    -0.353 C  
HETATM   13  C   UNL     1     -11.675  15.573  68.929  1.00  0.00    -0.370 C  
HETATM   14  O   UNL     1     -10.424  17.590  69.201  1.00  0.00    -0.347 OA 
HETATM   15  I   UNL     1     -12.330  15.543  70.866  1.00  0.00    -0.487 I  
HETATM   16  C   UNL     1     -12.018  14.623  68.045  1.00  0.00    -0.257 C  
ENDBRANCH   7   8
ENDBRANCH   5   7
ENDBRANCH   4   5
ENDBRANCH   3   4
ENDBRANCH   2   3
TORSDOF 5
ENDMDL
MODEL      104
REMARK 921   NORMALIZED FREE ENERGY PREDICTED BY IDOCK:   -3.72 KCAL/MOL
REMARK 922        TOTAL FREE ENERGY PREDICTED BY IDOCK:   -5.12 KCAL/MOL
REMARK 923 INTER-LIGAND FREE ENERGY PREDICTED BY IDOCK:   -4.63 KCAL/MOL
REMARK 924 INTRA-LIGAND FREE ENERGY PREDICTED BY IDOCK:   -0.49 KCAL/MOL
REMARK 927      BINDING AFFINITY PREDICTED BY RF-SCORE:    0.00 PKD
ROOT
HETATM    1  C   UNL     1     -11.929  13.323  69.225  1.00  0.00    -0.354 C  
HETATM    2  C   UNL     1     -12.525  14.388  70.135  1.00  0.00    -0.395 C  
ENDROOT
BRANCH   2   3
HETATM    3  C   UNL     1     -11.826  15.723  69.911  1.00  0.00    -0.344 C  
BRANCH   3   4
HETATM    4  O   UNL     1     -11.489  15.919  68.530  1.00  0.00    -0.367 OA 
BRANCH   4   5
HETATM    5  C   UNL     1     -10.226  16.379  68.280  1.00  0.00    -0.255 C  
HETATM    6  O   UNL     1      -9.460  16.836  69.120  1.00  0.00    -0.243 OA 
BRANCH   5   7
HETATM    7  C   UNL     1      -9.875  16.180  66.814  1.00  0.00    -0.245 C  
BRANCH   7   8
HETATM    8  N   UNL     1      -9.868  14.756  66.427  1.00  0.00    -0.266 NA 
HETATM    9  C   UNL     1     -10.708  14.280  65.427  1.00  0.00    -0.343 C  
HETATM   10  C   UNL     1     -10.788  13.000  65.033  1.00  0.00    -0.308 C  
HETATM   11  I   UNL     1     -12.051  12.393  63.547  1.00  0.00    -0.454 I  
HETATM   12  C   UNL     1      -9.907  11.999  65.732  1.00  0.00    -0.242 C  
HETATM   13  C   UNL     1      -9.014  12.524  66.819  1.00  0.00    -0.198 C  
HETATM   14  O   UNL     1      -9.918  10.808  65.425  1.00  0.00    -0.238 OA 
HETATM   15  I   UNL     1      -7.789  11.249  67.847  1.00  0.00    -0.138 I  
HETATM   16  C   UNL     1      -9.058  13.839  67.083  1.00  0.00    -0.239 C  
ENDBRANCH   7   8
ENDBRANCH   5   7
ENDBRANCH   4   5
ENDBRANCH   3   4
ENDBRANCH   2   3
TORSDOF 5
ENDMDL
MODEL      105
REMARK 921   NORMALIZED FREE ENERGY PREDICTED BY IDOCK:   -3.69 KCAL/MOL
REMARK 922        TOTAL FREE ENERGY PREDICTED BY IDOCK:   -5.09 KCAL/MOL
REMARK 923 INTER-LIGAND FREE ENERGY PREDICTED BY IDOCK:   -4.73 KCAL/MOL
REMARK 924 INTRA-LIGAND FREE ENERGY PREDICTED BY IDOCK:   -0.36 KCAL/MOL
REMARK 927      BINDING AFFINITY PREDICTED BY RF-SCORE:    0.00 PKD
ROOT
HETATM    1  C   UNL     1      -6.134  15.015  67.758  1.00  0.00    -0.154 C  
HETATM    2  C   UNL     1      -7.460  15.579  67.268  1.00  0.00    -0.258 C  
ENDROOT
BRANCH   2   3
HETATM    3  C   UNL     1      -8.488  14.463  67.128  1.00  0.00    -0.208 C  
BRANCH   3   4
HETATM    4  O   UNL     1      -9.828  14.974  67.130  1.00  0.00    -0.229 OA 
BRANCH   4   5
HETATM    5  C   UNL     1     -10.649  14.508  66.141  1.00  0.00    -0.306 C  
HETATM    6  O   UNL     1     -10.411  14.558  64.940  1.00  0.00    -0.418 OA 
BRANCH   5   7
HETATM    7  C   UNL     1     -11.880  13.850  66.746  1.00  0.00    -0.424 C  
BRANCH   7   8
HETATM    8  N   UNL     1     -11.583  12.522  67.316  1.00  0.00    -0.348 NA 
HETATM    9  C   UNL     1     -12.020  12.173  68.588  1.00  0.00    -0.237 C  
HETATM   10  C   UNL     1     -11.772  11.001  69.193  1.00  0.00    -0.333 C  
HETATM   11  I   UNL     1     -12.463  10.572  71.067  1.00  0.00    -0.550 I  
HETATM   12  C   UNL     1     -10.949   9.988  68.441  1.00  0.00    -0.217 C  
HETATM   13  C   UNL     1     -10.472  10.383  67.074  1.00  0.00    -0.251 C  
HETATM   14  O   UNL     1     -10.682   8.890  68.926  1.00  0.00    -0.197 OA 
HETATM   15  I   UNL     1      -9.330   9.092  65.972  1.00  0.00    -0.311 I  
HETATM   16  C   UNL     1     -10.816  11.598  66.618  1.00  0.00    -0.283 C  
ENDBRANCH   7   8
ENDBRANCH   5   7
ENDBRANCH   4   5
ENDBRANCH   3   4
ENDBRANCH   2   3
TORSDOF 5
ENDMDL
MODEL      106
REMARK 921   NORMALIZED FREE ENERGY PREDICTED BY IDOCK:   -3.69 KCAL/MOL
REMARK 922        TOTAL FREE ENERGY PREDICTED BY IDOCK:   -5.08 KCAL/MOL
REMARK 923 INTER-LIGAND FREE ENERGY PREDICTED BY IDOCK:   -4.71 KCAL/MOL
REMARK 924 INTRA-LIGAND FREE ENERGY PREDICTED BY IDOCK:   -0.37 KCAL/MOL
REMARK 927      BINDING AFFINITY PREDICTED BY RF-SCORE:    0.00 PKD
ROOT
HETATM    1  C   UNL     1     -13.168  11.148  71.933  1.00  0.00    -0.488 C  
HETATM    2  C   UNL     1     -13.444   9.688  71.604  1.00  0.00    -0.455 C  
ENDROOT
BRANCH   2   3
HETATM    3  C   UNL     1     -12.219   8.837  71.915  1.00  0.00    -0.361 C  
BRANCH   3   4
HETATM    4  O   UNL     1     -11.706   8.196  70.739  1.00  0.00    -0.276 OA 
BRANCH   4   5
HETATM    5  C   UNL     1     -10.456   8.581  70.342  1.00  0.00    -0.207 C  
HETATM    6  O   UNL     1      -9.563   8.964  71.089  1.00  0.00    -0.221 OA 
BRANCH   5   7
HETATM    7  C   UNL     1     -10.302   8.402  68.840  1.00  0.00    -0.215 C  
BRANCH   7   8
HETATM    8  N   UNL     1     -10.457   9.671  68.105  1.00  0.00    -0.210 NA 
HETATM    9  C   UNL     1     -10.906  10.820  68.744  1.00  0.00    -0.221 C  
HETATM   10  C   UNL     1     -11.103  12.007  68.148  1.00  0.00    -0.245 C  
HETATM   11  I   UNL     1     -11.762  13.647  69.173  1.00  0.00    -0.391 I  
HETATM   12  C   UNL     1     -10.825  12.100  66.671  1.00  0.00    -0.268 C  
HETATM   13  C   UNL     1     -10.352  10.848  65.990  1.00  0.00    -0.245 C  
HETATM   14  O   UNL     1     -10.976  13.153  66.054  1.00  0.00    -0.277 OA 
HETATM   15  I   UNL     1      -9.962  10.856  63.983  1.00  0.00    -0.400 I  
HETATM   16  C   UNL     1     -10.205   9.745  66.741  1.00  0.00    -0.233 C  
ENDBRANCH   7   8
ENDBRANCH   5   7
ENDBRANCH   4   5
ENDBRANCH   3   4
ENDBRANCH   2   3
TORSDOF 5
ENDMDL
MODEL      107
REMARK 921   NORMALIZED FREE ENERGY PREDICTED BY IDOCK:   -3.69 KCAL/MOL
REMARK 922        TOTAL FREE ENERGY PREDICTED BY IDOCK:   -5.08 KCAL/MOL
REMARK 923 INTER-LIGAND FREE ENERGY PREDICTED BY IDOCK:   -4.68 KCAL/MOL
REMARK 924 INTRA-LIGAND FREE ENERGY PREDICTED BY IDOCK:   -0.40 KCAL/MOL
REMARK 927      BINDING AFFINITY PREDICTED BY RF-SCORE:    0.00 PKD
ROOT
HETATM    1  C   UNL     1     -10.464   5.895  69.035  1.00  0.00    -0.332 C  
HETATM    2  C   UNL     1     -10.836   6.382  67.642  1.00  0.00    -0.425 C  
ENDROOT
BRANCH   2   3
HETATM    3  C   UNL     1     -10.782   7.904  67.584  1.00  0.00    -0.145 C  
BRANCH   3   4
HETATM    4  O   UNL     1      -9.538   8.409  68.091  1.00  0.00    -0.140 OA 
BRANCH   4   5
HETATM    5  C   UNL     1      -9.565   9.685  68.582  1.00  0.00    -0.150 C  
HETATM    6  O   UNL     1      -8.580  10.377  68.808  1.00  0.00    -0.124 OA 
BRANCH   5   7
HETATM    7  C   UNL     1     -11.002  10.154  68.748  1.00  0.00    -0.223 C  
BRANCH   7   8
HETATM    8  N   UNL     1     -11.246  11.454  68.095  1.00  0.00    -0.254 NA 
HETATM    9  C   UNL     1     -11.390  11.549  66.716  1.00  0.00    -0.238 C  
HETATM   10  C   UNL     1     -11.586  12.691  66.038  1.00  0.00    -0.393 C  
HETATM   11  I   UNL     1     -11.794  12.732  64.006  1.00  0.00    -0.636 I  
HETATM   12  C   UNL     1     -11.643  13.970  66.830  1.00  0.00    -0.386 C  
HETATM   13  C   UNL     1     -11.473  13.856  68.317  1.00  0.00    -0.311 C  
HETATM   14  O   UNL     1     -11.824  15.057  66.283  1.00  0.00    -0.195 OA 
HETATM   15  I   UNL     1     -11.515  15.532  69.488  1.00  0.00    -0.430 I  
HETATM   16  C   UNL     1     -11.290  12.630  68.833  1.00  0.00    -0.297 C  
ENDBRANCH   7   8
ENDBRANCH   5   7
ENDBRANCH   4   5
ENDBRANCH   3   4
ENDBRANCH   2   3
TORSDOF 5
ENDMDL
MODEL      108
REMARK 921   NORMALIZED FREE ENERGY PREDICTED BY IDOCK:   -3.68 KCAL/MOL
REMARK 922        TOTAL FREE ENERGY PREDICTED BY IDOCK:   -5.07 KCAL/MOL
REMARK 923 INTER-LIGAND FREE ENERGY PREDICTED BY IDOCK:   -4.69 KCAL/MOL
REMARK 924 INTRA-LIGAND FREE ENERGY PREDICTED BY IDOCK:   -0.38 KCAL/MOL
REMARK 927      BINDING AFFINITY PREDICTED BY RF-SCORE:    0.00 PKD
ROOT
HETATM    1  C   UNL     1      -7.127  15.144  68.643  1.00  0.00    -0.115 C  
HETATM    2  C   UNL     1      -7.668  16.140  67.627  1.00  0.00    -0.161 C  
ENDROOT
BRANCH   2   3
HETATM    3  C   UNL     1      -8.536  15.424  66.599  1.00  0.00    -0.283 C  
BRANCH   3   4
HETATM    4  O   UNL     1      -9.934  15.581  66.885  1.00  0.00    -0.239 OA 
BRANCH   4   5
HETATM    5  C   UNL     1     -10.789  15.341  65.847  1.00  0.00    -0.342 C  
HETATM    6  O   UNL     1     -10.636  15.737  64.697  1.00  0.00    -0.479 OA 
BRANCH   5   7
HETATM    7  C   UNL     1     -11.933  14.449  66.304  1.00  0.00    -0.376 C  
BRANCH   7   8
HETATM    8  N   UNL     1     -11.468  13.117  66.734  1.00  0.00    -0.327 NA 
HETATM    9  C   UNL     1     -10.740  12.300  65.878  1.00  0.00    -0.258 C  
HETATM   10  C   UNL     1     -10.303  11.066  66.176  1.00  0.00    -0.251 C  
HETATM   11  I   UNL     1      -9.231   9.939  64.852  1.00  0.00    -0.302 I  
HETATM   12  C   UNL     1     -10.635  10.520  67.539  1.00  0.00    -0.259 C  
HETATM   13  C   UNL     1     -11.434  11.407  68.449  1.00  0.00    -0.299 C  
HETATM   14  O   UNL     1     -10.267   9.400  67.889  1.00  0.00    -0.186 OA 
HETATM   15  I   UNL     1     -11.957  10.758  70.317  1.00  0.00    -0.489 I  
HETATM   16  C   UNL     1     -11.786  12.618  67.990  1.00  0.00    -0.323 C  
ENDBRANCH   7   8
ENDBRANCH   5   7
ENDBRANCH   4   5
ENDBRANCH   3   4
ENDBRANCH   2   3
TORSDOF 5
ENDMDL
MODEL      109
REMARK 921   NORMALIZED FREE ENERGY PREDICTED BY IDOCK:   -3.66 KCAL/MOL
REMARK 922        TOTAL FREE ENERGY PREDICTED BY IDOCK:   -5.04 KCAL/MOL
REMARK 923 INTER-LIGAND FREE ENERGY PREDICTED BY IDOCK:   -4.76 KCAL/MOL
REMARK 924 INTRA-LIGAND FREE ENERGY PREDICTED BY IDOCK:   -0.28 KCAL/MOL
REMARK 927      BINDING AFFINITY PREDICTED BY RF-SCORE:    0.00 PKD
ROOT
HETATM    1  C   UNL     1     -13.228  11.875  71.854  1.00  0.00    -0.467 C  
HETATM    2  C   UNL     1     -13.873  13.166  72.336  1.00  0.00    -0.583 C  
ENDROOT
BRANCH   2   3
HETATM    3  C   UNL     1     -12.924  14.340  72.128  1.00  0.00    -0.373 C  
BRANCH   3   4
HETATM    4  O   UNL     1     -12.174  14.205  70.912  1.00  0.00    -0.325 OA 
BRANCH   4   5
HETATM    5  C   UNL     1     -11.788  15.372  70.314  1.00  0.00    -0.338 C  
HETATM    6  O   UNL     1     -11.498  16.407  70.902  1.00  0.00    -0.380 OA 
BRANCH   5   7
HETATM    7  C   UNL     1     -11.702  15.187  68.807  1.00  0.00    -0.342 C  
BRANCH   7   8
HETATM    8  N   UNL     1     -10.335  14.863  68.359  1.00  0.00    -0.229 NA 
HETATM    9  C   UNL     1      -9.842  13.566  68.435  1.00  0.00    -0.225 C  
HETATM   10  C   UNL     1      -8.605  13.189  68.078  1.00  0.00    -0.182 C  
HETATM   11  I   UNL     1      -7.970  11.253  68.220  1.00  0.00    -0.152 I  
HETATM   12  C   UNL     1      -7.674  14.254  67.562  1.00  0.00    -0.191 C  
HETATM   13  C   UNL     1      -8.214  15.653  67.496  1.00  0.00    -0.166 C  
HETATM   14  O   UNL     1      -6.526  13.988  67.209  1.00  0.00    -0.286 OA 
HETATM   15  I   UNL     1      -7.029  17.181  66.828  1.00  0.00    -0.312 I  
HETATM   16  C   UNL     1      -9.481  15.854  67.891  1.00  0.00    -0.213 C  
ENDBRANCH   7   8
ENDBRANCH   5   7
ENDBRANCH   4   5
ENDBRANCH   3   4
ENDBRANCH   2   3
TORSDOF 5
ENDMDL
MODEL      110
REMARK 921   NORMALIZED FREE ENERGY PREDICTED BY IDOCK:   -3.66 KCAL/MOL
REMARK 922        TOTAL FREE ENERGY PREDICTED BY IDOCK:   -5.04 KCAL/MOL
REMARK 923 INTER-LIGAND FREE ENERGY PREDICTED BY IDOCK:   -4.69 KCAL/MOL
REMARK 924 INTRA-LIGAND FREE ENERGY PREDICTED BY IDOCK:   -0.35 KCAL/MOL
REMARK 927      BINDING AFFINITY PREDICTED BY RF-SCORE:    0.00 PKD
ROOT
HETATM    1  C   UNL     1      -5.729  19.919  68.114  1.00  0.00    -0.241 C  
HETATM    2  C   UNL     1      -6.704  18.896  67.547  1.00  0.00    -0.208 C  
ENDROOT
BRANCH   2   3
HETATM    3  C   UNL     1      -7.633  19.557  66.537  1.00  0.00    -0.266 C  
BRANCH   3   4
HETATM    4  O   UNL     1      -8.899  19.893  67.122  1.00  0.00    -0.305 OA 
BRANCH   4   5
HETATM    5  C   UNL     1      -9.813  18.879  67.197  1.00  0.00    -0.322 C  
HETATM    6  O   UNL     1     -10.458  18.579  68.194  1.00  0.00    -0.372 OA 
BRANCH   5   7
HETATM    7  C   UNL     1      -9.968  18.210  65.839  1.00  0.00    -0.097 C  
BRANCH   7   8
HETATM    8  N   UNL     1      -9.876  16.741  65.924  1.00  0.00    -0.511 NA 
HETATM    9  C   UNL     1     -10.830  15.926  65.326  1.00  0.00    -0.387 C  
HETATM   10  C   UNL     1     -10.839  14.584  65.378  1.00  0.00    -0.354 C  
HETATM   11  I   UNL     1     -12.282  13.467  64.460  1.00  0.00    -0.399 I  
HETATM   12  C   UNL     1      -9.736  13.909  66.149  1.00  0.00    -0.272 C  
HETATM   13  C   UNL     1      -8.720  14.801  66.801  1.00  0.00    -0.224 C  
HETATM   14  O   UNL     1      -9.673  12.684  66.239  1.00  0.00    -0.253 OA 
HETATM   15  I   UNL     1      -7.190  13.990  67.890  1.00  0.00    -0.215 I  
HETATM   16  C   UNL     1      -8.860  16.127  66.645  1.00  0.00    -0.264 C  
ENDBRANCH   7   8
ENDBRANCH   5   7
ENDBRANCH   4   5
ENDBRANCH   3   4
ENDBRANCH   2   3
TORSDOF 5
ENDMDL
MODEL      111
REMARK 921   NORMALIZED FREE ENERGY PREDICTED BY IDOCK:   -3.65 KCAL/MOL
REMARK 922        TOTAL FREE ENERGY PREDICTED BY IDOCK:   -5.04 KCAL/MOL
REMARK 923 INTER-LIGAND FREE ENERGY PREDICTED BY IDOCK:   -4.75 KCAL/MOL
REMARK 924 INTRA-LIGAND FREE ENERGY PREDICTED BY IDOCK:   -0.29 KCAL/MOL
REMARK 927      BINDING AFFINITY PREDICTED BY RF-SCORE:    0.00 PKD
ROOT
HETATM    1  C   UNL     1      -7.580   7.680  64.936  1.00  0.00    -0.099 C  
HETATM    2  C   UNL     1      -8.638   7.984  65.987  1.00  0.00    -0.162 C  
ENDROOT
BRANCH   2   3
HETATM    3  C   UNL     1      -9.216   9.376  65.766  1.00  0.00    -0.219 C  
BRANCH   3   4
HETATM    4  O   UNL     1     -10.440   9.563  66.491  1.00  0.00    -0.211 OA 
BRANCH   4   5
HETATM    5  C   UNL     1     -10.762  10.854  66.802  1.00  0.00    -0.252 C  
HETATM    6  O   UNL     1     -11.584  11.542  66.209  1.00  0.00    -0.382 OA 
BRANCH   5   7
HETATM    7  C   UNL     1     -10.000  11.302  68.040  1.00  0.00    -0.179 C  
BRANCH   7   8
HETATM    8  N   UNL     1     -10.897  11.605  69.171  1.00  0.00    -0.211 NA 
HETATM    9  C   UNL     1     -11.487  10.588  69.912  1.00  0.00    -0.310 C  
HETATM   10  C   UNL     1     -12.336  10.773  70.935  1.00  0.00    -0.396 C  
HETATM   11  I   UNL     1     -13.151   9.213  71.972  1.00  0.00    -0.571 I  
HETATM   12  C   UNL     1     -12.683  12.190  71.306  1.00  0.00    -0.261 C  
HETATM   13  C   UNL     1     -12.049  13.279  70.490  1.00  0.00    -0.314 C  
HETATM   14  O   UNL     1     -13.449  12.442  72.234  1.00  0.00    -0.541 OA 
HETATM   15  I   UNL     1     -12.465  15.241  70.894  1.00  0.00    -0.564 I  
HETATM   16  C   UNL     1     -11.218  12.916  69.500  1.00  0.00    -0.074 C  
ENDBRANCH   7   8
ENDBRANCH   5   7
ENDBRANCH   4   5
ENDBRANCH   3   4
ENDBRANCH   2   3
TORSDOF 5
ENDMDL
MODEL      112
REMARK 921   NORMALIZED FREE ENERGY PREDICTED BY IDOCK:   -3.65 KCAL/MOL
REMARK 922        TOTAL FREE ENERGY PREDICTED BY IDOCK:   -5.03 KCAL/MOL
REMARK 923 INTER-LIGAND FREE ENERGY PREDICTED BY IDOCK:   -4.52 KCAL/MOL
REMARK 924 INTRA-LIGAND FREE ENERGY PREDICTED BY IDOCK:   -0.50 KCAL/MOL
REMARK 927      BINDING AFFINITY PREDICTED BY RF-SCORE:    0.00 PKD
ROOT
HETATM    1  C   UNL     1      -7.732  12.896  67.698  1.00  0.00    -0.162 C  
HETATM    2  C   UNL     1      -8.063  11.496  67.200  1.00  0.00    -0.159 C  
ENDROOT
BRANCH   2   3
HETATM    3  C   UNL     1      -8.457  10.601  68.368  1.00  0.00    -0.132 C  
BRANCH   3   4
HETATM    4  O   UNL     1      -9.824  10.176  68.272  1.00  0.00    -0.142 OA 
BRANCH   4   5
HETATM    5  C   UNL     1     -10.580  10.330  69.401  1.00  0.00    -0.237 C  
HETATM    6  O   UNL     1     -10.244   9.992  70.529  1.00  0.00    -0.251 OA 
BRANCH   5   7
HETATM    7  C   UNL     1     -11.880  11.046  69.069  1.00  0.00    -0.329 C  
BRANCH   7   8
HETATM    8  N   UNL     1     -11.670  12.215  68.195  1.00  0.00    -0.347 NA 
HETATM    9  C   UNL     1     -11.789  12.110  66.814  1.00  0.00    -0.228 C  
HETATM   10  C   UNL     1     -11.587  13.112  65.945  1.00  0.00    -0.354 C  
HETATM   11  I   UNL     1     -11.793  12.865  63.928  1.00  0.00    -0.606 I  
HETATM   12  C   UNL     1     -11.192  14.453  66.506  1.00  0.00    -0.340 C  
HETATM   13  C   UNL     1     -11.054  14.549  67.998  1.00  0.00    -0.276 C  
HETATM   14  O   UNL     1     -10.994  15.422  65.775  1.00  0.00    -0.330 OA 
HETATM   15  I   UNL     1     -10.503  16.318  68.866  1.00  0.00    -0.341 I  
HETATM   16  C   UNL     1     -11.298  13.445  68.721  1.00  0.00    -0.292 C  
ENDBRANCH   7   8
ENDBRANCH   5   7
ENDBRANCH   4   5
ENDBRANCH   3   4
ENDBRANCH   2   3
TORSDOF 5
ENDMDL
MODEL      113
REMARK 921   NORMALIZED FREE ENERGY PREDICTED BY IDOCK:   -3.63 KCAL/MOL
REMARK 922        TOTAL FREE ENERGY PREDICTED BY IDOCK:   -5.01 KCAL/MOL
REMARK 923 INTER-LIGAND FREE ENERGY PREDICTED BY IDOCK:   -4.80 KCAL/MOL
REMARK 924 INTRA-LIGAND FREE ENERGY PREDICTED BY IDOCK:   -0.21 KCAL/MOL
REMARK 927      BINDING AFFINITY PREDICTED BY RF-SCORE:    0.00 PKD
ROOT
HETATM    1  C   UNL     1     -12.735  15.827  72.817  1.00  0.00    -0.553 C  
HETATM    2  C   UNL     1     -13.660  14.621  72.724  1.00  0.00    -0.538 C  
ENDROOT
BRANCH   2   3
HETATM    3  C   UNL     1     -13.526  13.960  71.358  1.00  0.00    -0.257 C  
BRANCH   3   4
HETATM    4  O   UNL     1     -12.160  13.914  70.923  1.00  0.00    -0.340 OA 
BRANCH   4   5
HETATM    5  C   UNL     1     -11.895  13.094  69.862  1.00  0.00    -0.308 C  
HETATM    6  O   UNL     1     -12.231  11.919  69.773  1.00  0.00    -0.251 OA 
BRANCH   5   7
HETATM    7  C   UNL     1     -11.178  13.867  68.766  1.00  0.00    -0.272 C  
BRANCH   7   8
HETATM    8  N   UNL     1     -10.792  13.006  67.632  1.00  0.00    -0.236 NA 
HETATM    9  C   UNL     1      -9.597  12.296  67.643  1.00  0.00    -0.191 C  
HETATM   10  C   UNL     1      -9.156  11.514  66.646  1.00  0.00    -0.190 C  
HETATM   11  I   UNL     1      -7.385  10.503  66.754  1.00  0.00    -0.133 I  
HETATM   12  C   UNL     1     -10.017  11.402  65.415  1.00  0.00    -0.245 C  
HETATM   13  C   UNL     1     -11.299  12.184  65.410  1.00  0.00    -0.338 C  
HETATM   14  O   UNL     1      -9.684  10.702  64.460  1.00  0.00    -0.253 OA 
HETATM   15  I   UNL     1     -12.535  12.119  63.782  1.00  0.00    -0.326 I  
HETATM   16  C   UNL     1     -11.589  12.915  66.498  1.00  0.00    -0.371 C  
ENDBRANCH   7   8
ENDBRANCH   5   7
ENDBRANCH   4   5
ENDBRANCH   3   4
ENDBRANCH   2   3
TORSDOF 5
ENDMDL
MODEL      114
REMARK 921   NORMALIZED FREE ENERGY PREDICTED BY IDOCK:   -3.62 KCAL/MOL
REMARK 922        TOTAL FREE ENERGY PREDICTED BY IDOCK:   -5.00 KCAL/MOL
REMARK 923 INTER-LIGAND FREE ENERGY PREDICTED BY IDOCK:   -4.63 KCAL/MOL
REMARK 924 INTRA-LIGAND FREE ENERGY PREDICTED BY IDOCK:   -0.37 KCAL/MOL
REMARK 927      BINDING AFFINITY PREDICTED BY RF-SCORE:    0.00 PKD
ROOT
HETATM    1  C   UNL     1     -11.854  12.637  63.456  1.00  0.00    -0.619 C  
HETATM    2  C   UNL     1     -10.466  12.013  63.403  1.00  0.00    -0.474 C  
ENDROOT
BRANCH   2   3
HETATM    3  C   UNL     1     -10.305  10.992  64.522  1.00  0.00    -0.354 C  
BRANCH   3   4
HETATM    4  O   UNL     1      -9.161  11.278  65.339  1.00  0.00    -0.205 OA 
BRANCH   4   5
HETATM    5  C   UNL     1      -9.396  11.389  66.681  1.00  0.00    -0.185 C  
HETATM    6  O   UNL     1      -8.643  11.918  67.490  1.00  0.00    -0.147 OA 
BRANCH   5   7
HETATM    7  C   UNL     1     -10.763  10.819  67.024  1.00  0.00    -0.265 C  
BRANCH   7   8
HETATM    8  N   UNL     1     -10.671   9.543  67.758  1.00  0.00    -0.262 NA 
HETATM    9  C   UNL     1     -10.700   9.510  69.147  1.00  0.00    -0.210 C  
HETATM   10  C   UNL     1     -10.593   8.399  69.894  1.00  0.00    -0.228 C  
HETATM   11  I   UNL     1     -10.652   8.448  71.935  1.00  0.00    -0.434 I  
HETATM   12  C   UNL     1     -10.420   7.089  69.174  1.00  0.00    -0.207 C  
HETATM   13  C   UNL     1     -10.378   7.140  67.674  1.00  0.00    -0.215 C  
HETATM   14  O   UNL     1     -10.320   6.027  69.787  1.00  0.00    -0.189 OA 
HETATM   15  I   UNL     1     -10.128   5.420  66.595  1.00  0.00    -0.315 I  
HETATM   16  C   UNL     1     -10.504   8.339  67.085  1.00  0.00    -0.316 C  
ENDBRANCH   7   8
ENDBRANCH   5   7
ENDBRANCH   4   5
ENDBRANCH   3   4
ENDBRANCH   2   3
TORSDOF 5
ENDMDL
MODEL      115
REMARK 921   NORMALIZED FREE ENERGY PREDICTED BY IDOCK:   -3.62 KCAL/MOL
REMARK 922        TOTAL FREE ENERGY PREDICTED BY IDOCK:   -4.99 KCAL/MOL
REMARK 923 INTER-LIGAND FREE ENERGY PREDICTED BY IDOCK:   -4.88 KCAL/MOL
REMARK 924 INTRA-LIGAND FREE ENERGY PREDICTED BY IDOCK:   -0.11 KCAL/MOL
REMARK 927      BINDING AFFINITY PREDICTED BY RF-SCORE:    0.00 PKD
ROOT
HETATM    1  C   UNL     1     -11.010   3.443  73.386  1.00  0.00    -0.306 C  
HETATM    2  C   UNL     1     -11.489   4.887  73.374  1.00  0.00    -0.306 C  
ENDROOT
BRANCH   2   3
HETATM    3  C   UNL     1     -10.462   5.778  72.687  1.00  0.00    -0.208 C  
BRANCH   3   4
HETATM    4  O   UNL     1     -10.968   7.104  72.474  1.00  0.00    -0.243 OA 
BRANCH   4   5
HETATM    5  C   UNL     1     -11.968   7.222  71.549  1.00  0.00    -0.316 C  
HETATM    6  O   UNL     1     -12.087   6.535  70.542  1.00  0.00    -0.367 OA 
BRANCH   5   7
HETATM    7  C   UNL     1     -12.960   8.291  71.982  1.00  0.00    -0.330 C  
BRANCH   7   8
HETATM    8  N   UNL     1     -12.652   9.611  71.399  1.00  0.00    -0.346 NA 
HETATM    9  C   UNL     1     -11.755   9.738  70.345  1.00  0.00    -0.231 C  
HETATM   10  C   UNL     1     -11.397  10.900  69.775  1.00  0.00    -0.301 C  
HETATM   11  I   UNL     1     -10.072  10.990  68.223  1.00  0.00    -0.229 I  
HETATM   12  C   UNL     1     -12.006  12.163  70.324  1.00  0.00    -0.305 C  
HETATM   13  C   UNL     1     -12.963  12.012  71.470  1.00  0.00    -0.304 C  
HETATM   14  O   UNL     1     -11.732  13.265  69.853  1.00  0.00    -0.297 OA 
HETATM   15  I   UNL     1     -13.834  13.663  72.305  1.00  0.00    -0.374 I  
HETATM   16  C   UNL     1     -13.213  10.771  71.917  1.00  0.00    -0.419 C  
ENDBRANCH   7   8
ENDBRANCH   5   7
ENDBRANCH   4   5
ENDBRANCH   3   4
ENDBRANCH   2   3
TORSDOF 5
ENDMDL
MODEL      116
REMARK 921   NORMALIZED FREE ENERGY PREDICTED BY IDOCK:   -3.62 KCAL/MOL
REMARK 922        TOTAL FREE ENERGY PREDICTED BY IDOCK:   -4.99 KCAL/MOL
REMARK 923 INTER-LIGAND FREE ENERGY PREDICTED BY IDOCK:   -4.75 KCAL/MOL
REMARK 924 INTRA-LIGAND FREE ENERGY PREDICTED BY IDOCK:   -0.24 KCAL/MOL
REMARK 927      BINDING AFFINITY PREDICTED BY RF-SCORE:    0.00 PKD
ROOT
HETATM    1  C   UNL     1      -6.097  18.578  66.623  1.00  0.00    -0.181 C  
HETATM    2  C   UNL     1      -6.876  17.298  66.356  1.00  0.00    -0.300 C  
ENDROOT
BRANCH   2   3
HETATM    3  C   UNL     1      -8.357  17.610  66.176  1.00  0.00    -0.148 C  
BRANCH   3   4
HETATM    4  O   UNL     1      -9.076  16.481  65.660  1.00  0.00    -0.466 OA 
BRANCH   4   5
HETATM    5  C   UNL     1     -10.092  16.008  66.444  1.00  0.00    -0.300 C  
HETATM    6  O   UNL     1     -10.226  16.232  67.641  1.00  0.00    -0.259 OA 
BRANCH   5   7
HETATM    7  C   UNL     1     -11.079  15.214  65.603  1.00  0.00    -0.334 C  
BRANCH   7   8
HETATM    8  N   UNL     1     -10.846  13.759  65.689  1.00  0.00    -0.283 NA 
HETATM    9  C   UNL     1     -11.080  13.064  66.870  1.00  0.00    -0.277 C  
HETATM   10  C   UNL     1     -10.868  11.750  67.045  1.00  0.00    -0.263 C  
HETATM   11  I   UNL     1     -11.248  10.810  68.818  1.00  0.00    -0.374 I  
HETATM   12  C   UNL     1     -10.328  10.969  65.876  1.00  0.00    -0.257 C  
HETATM   13  C   UNL     1     -10.067  11.735  64.611  1.00  0.00    -0.272 C  
HETATM   14  O   UNL     1     -10.112   9.761  65.955  1.00  0.00    -0.276 OA 
HETATM   15  I   UNL     1      -9.315  10.777  62.968  1.00  0.00    -0.412 I  
HETATM   16  C   UNL     1     -10.339  13.049  64.609  1.00  0.00    -0.352 C  
ENDBRANCH   7   8
ENDBRANCH   5   7
ENDBRANCH   4   5
ENDBRANCH   3   4
ENDBRANCH   2   3
TORSDOF 5
ENDMDL
MODEL      117
REMARK 921   NORMALIZED FREE ENERGY PREDICTED BY IDOCK:   -3.61 KCAL/MOL
REMARK 922        TOTAL FREE ENERGY PREDICTED BY IDOCK:   -4.98 KCAL/MOL
REMARK 923 INTER-LIGAND FREE ENERGY PREDICTED BY IDOCK:   -4.80 KCAL/MOL
REMARK 924 INTRA-LIGAND FREE ENERGY PREDICTED BY IDOCK:   -0.18 KCAL/MOL
REMARK 927      BINDING AFFINITY PREDICTED BY RF-SCORE:    0.00 PKD
ROOT
HETATM    1  C   UNL     1     -13.508  14.484  72.626  1.00  0.00    -0.590 C  
HETATM    2  C   UNL     1     -13.377  13.154  71.897  1.00  0.00    -0.546 C  
ENDROOT
BRANCH   2   3
HETATM    3  C   UNL     1     -12.460  13.303  70.689  1.00  0.00    -0.298 C  
BRANCH   3   4
HETATM    4  O   UNL     1     -11.717  12.102  70.436  1.00  0.00    -0.255 OA 
BRANCH   4   5
HETATM    5  C   UNL     1     -11.499  11.798  69.122  1.00  0.00    -0.297 C  
HETATM    6  O   UNL     1     -12.257  12.065  68.198  1.00  0.00    -0.428 OA 
BRANCH   5   7
HETATM    7  C   UNL     1     -10.140  11.135  68.955  1.00  0.00    -0.186 C  
BRANCH   7   8
HETATM    8  N   UNL     1     -10.163   9.707  69.327  1.00  0.00    -0.194 NA 
HETATM    9  C   UNL     1      -9.993   9.307  70.647  1.00  0.00    -0.273 C  
HETATM   10  C   UNL     1      -9.972   8.033  71.069  1.00  0.00    -0.182 C  
HETATM   11  I   UNL     1      -9.722   7.539  73.035  1.00  0.00    -0.365 I  
HETATM   12  C   UNL     1     -10.135   6.953  70.033  1.00  0.00    -0.182 C  
HETATM   13  C   UNL     1     -10.305   7.398  68.610  1.00  0.00    -0.198 C  
HETATM   14  O   UNL     1     -10.132   5.762  70.341  1.00  0.00    -0.186 OA 
HETATM   15  I   UNL     1     -10.517   6.014  67.119  1.00  0.00    -0.418 I  
HETATM   16  C   UNL     1     -10.307   8.717  68.363  1.00  0.00    -0.204 C  
ENDBRANCH   7   8
ENDBRANCH   5   7
ENDBRANCH   4   5
ENDBRANCH   3   4
ENDBRANCH   2   3
TORSDOF 5
ENDMDL
MODEL      118
REMARK 921   NORMALIZED FREE ENERGY PREDICTED BY IDOCK:   -3.60 KCAL/MOL
REMARK 922        TOTAL FREE ENERGY PREDICTED BY IDOCK:   -4.97 KCAL/MOL
REMARK 923 INTER-LIGAND FREE ENERGY PREDICTED BY IDOCK:   -4.53 KCAL/MOL
REMARK 924 INTRA-LIGAND FREE ENERGY PREDICTED BY IDOCK:   -0.44 KCAL/MOL
REMARK 927      BINDING AFFINITY PREDICTED BY RF-SCORE:    0.00 PKD
ROOT
HETATM    1  C   UNL     1      -8.539  18.415  66.402  1.00  0.00    -0.264 C  
HETATM    2  C   UNL     1     -10.010  18.593  66.749  1.00  0.00    -0.381 C  
ENDROOT
BRANCH   2   3
HETATM    3  C   UNL     1     -10.886  18.075  65.614  1.00  0.00     0.076 C  
BRANCH   3   4
HETATM    4  O   UNL     1     -10.303  16.931  64.975  1.00  0.00    -0.596 OA 
BRANCH   4   5
HETATM    5  C   UNL     1     -11.174  15.951  64.589  1.00  0.00    -0.351 C  
HETATM    6  O   UNL     1     -12.135  16.110  63.847  1.00  0.00    -0.956 OA 
BRANCH   5   7
HETATM    7  C   UNL     1     -10.742  14.609  65.160  1.00  0.00    -0.414 C  
BRANCH   7   8
HETATM    8  N   UNL     1     -10.113  14.740  66.488  1.00  0.00    -0.264 NA 
HETATM    9  C   UNL     1     -10.871  15.038  67.614  1.00  0.00    -0.291 C  
HETATM   10  C   UNL     1     -10.380  15.203  68.852  1.00  0.00    -0.243 C  
HETATM   11  I   UNL     1     -11.574  15.635  70.452  1.00  0.00    -0.461 I  
HETATM   12  C   UNL     1      -8.892  15.064  69.036  1.00  0.00    -0.205 C  
HETATM   13  C   UNL     1      -8.083  14.755  67.809  1.00  0.00    -0.152 C  
HETATM   14  O   UNL     1      -8.365  15.197  70.139  1.00  0.00     0.157 OA 
HETATM   15  I   UNL     1      -6.051  14.564  67.940  1.00  0.00    -0.025 I  
HETATM   16  C   UNL     1      -8.739  14.618  66.646  1.00  0.00    -0.163 C  
ENDBRANCH   7   8
ENDBRANCH   5   7
ENDBRANCH   4   5
ENDBRANCH   3   4
ENDBRANCH   2   3
TORSDOF 5
ENDMDL
MODEL      119
REMARK 921   NORMALIZED FREE ENERGY PREDICTED BY IDOCK:   -3.60 KCAL/MOL
REMARK 922        TOTAL FREE ENERGY PREDICTED BY IDOCK:   -4.97 KCAL/MOL
REMARK 923 INTER-LIGAND FREE ENERGY PREDICTED BY IDOCK:   -4.69 KCAL/MOL
REMARK 924 INTRA-LIGAND FREE ENERGY PREDICTED BY IDOCK:   -0.27 KCAL/MOL
REMARK 927      BINDING AFFINITY PREDICTED BY RF-SCORE:    0.00 PKD
ROOT
HETATM    1  C   UNL     1     -14.063  15.505  72.426  1.00  0.00    -0.627 C  
HETATM    2  C   UNL     1     -13.465  14.908  71.159  1.00  0.00    -0.474 C  
ENDROOT
BRANCH   2   3
HETATM    3  C   UNL     1     -12.076  15.482  70.912  1.00  0.00    -0.385 C  
BRANCH   3   4
HETATM    4  O   UNL     1     -11.286  14.618  70.082  1.00  0.00    -0.246 OA 
BRANCH   4   5
HETATM    5  C   UNL     1     -11.615  14.594  68.756  1.00  0.00    -0.317 C  
HETATM    6  O   UNL     1     -11.586  15.559  68.002  1.00  0.00    -0.342 OA 
BRANCH   5   7
HETATM    7  C   UNL     1     -11.961  13.178  68.326  1.00  0.00    -0.291 C  
BRANCH   7   8
HETATM    8  N   UNL     1     -10.828  12.498  67.671  1.00  0.00    -0.219 NA 
HETATM    9  C   UNL     1     -10.824  12.264  66.301  1.00  0.00    -0.278 C  
HETATM   10  C   UNL     1      -9.851  11.630  65.630  1.00  0.00    -0.240 C  
HETATM   11  I   UNL     1      -9.929  11.338  63.610  1.00  0.00    -0.493 I  
HETATM   12  C   UNL     1      -8.674  11.123  66.422  1.00  0.00    -0.177 C  
HETATM   13  C   UNL     1      -8.696  11.369  67.902  1.00  0.00    -0.145 C  
HETATM   14  O   UNL     1      -7.740  10.535  65.879  1.00  0.00    -0.141 OA 
HETATM   15  I   UNL     1      -7.159  10.707  69.077  1.00  0.00    -0.119 I  
HETATM   16  C   UNL     1      -9.751  12.026  68.411  1.00  0.00    -0.199 C  
ENDBRANCH   7   8
ENDBRANCH   5   7
ENDBRANCH   4   5
ENDBRANCH   3   4
ENDBRANCH   2   3
TORSDOF 5
ENDMDL
MODEL      120
REMARK 921   NORMALIZED FREE ENERGY PREDICTED BY IDOCK:   -3.60 KCAL/MOL
REMARK 922        TOTAL FREE ENERGY PREDICTED BY IDOCK:   -4.96 KCAL/MOL
REMARK 923 INTER-LIGAND FREE ENERGY PREDICTED BY IDOCK:   -4.88 KCAL/MOL
REMARK 924 INTRA-LIGAND FREE ENERGY PREDICTED BY IDOCK:   -0.08 KCAL/MOL
REMARK 927      BINDING AFFINITY PREDICTED BY RF-SCORE:    0.00 PKD
ROOT
HETATM    1  C   UNL     1     -12.415  15.614  73.414  1.00  0.00    -0.639 C  
HETATM    2  C   UNL     1     -13.778  15.833  72.774  1.00  0.00    -0.639 C  
ENDROOT
BRANCH   2   3
HETATM    3  C   UNL     1     -13.964  14.888  71.594  1.00  0.00    -0.485 C  
BRANCH   3   4
HETATM    4  O   UNL     1     -12.878  14.985  70.661  1.00  0.00    -0.355 OA 
BRANCH   4   5
HETATM    5  C   UNL     1     -12.367  13.800  70.211  1.00  0.00    -0.337 C  
HETATM    6  O   UNL     1     -12.336  12.754  70.849  1.00  0.00    -0.372 OA 
BRANCH   5   7
HETATM    7  C   UNL     1     -11.898  13.942  68.772  1.00  0.00    -0.361 C  
BRANCH   7   8
HETATM    8  N   UNL     1     -10.732  13.088  68.474  1.00  0.00    -0.250 NA 
HETATM    9  C   UNL     1     -10.870  11.714  68.320  1.00  0.00    -0.219 C  
HETATM   10  C   UNL     1      -9.862  10.862  68.077  1.00  0.00    -0.171 C  
HETATM   11  I   UNL     1     -10.161   8.853  67.858  1.00  0.00    -0.289 I  
HETATM   12  C   UNL     1      -8.473  11.435  67.973  1.00  0.00    -0.145 C  
HETATM   13  C   UNL     1      -8.337  12.919  68.155  1.00  0.00    -0.168 C  
HETATM   14  O   UNL     1      -7.498  10.720  67.748  1.00  0.00    -0.092 OA 
HETATM   15  I   UNL     1      -6.495  13.801  68.052  1.00  0.00    -0.170 I  
HETATM   16  C   UNL     1      -9.454  13.625  68.388  1.00  0.00    -0.190 C  
ENDBRANCH   7   8
ENDBRANCH   5   7
ENDBRANCH   4   5
ENDBRANCH   3   4
ENDBRANCH   2   3
TORSDOF 5
ENDMDL
MODEL      121
REMARK 921   NORMALIZED FREE ENERGY PREDICTED BY IDOCK:   -3.60 KCAL/MOL
REMARK 922        TOTAL FREE ENERGY PREDICTED BY IDOCK:   -4.96 KCAL/MOL
REMARK 923 INTER-LIGAND FREE ENERGY PREDICTED BY IDOCK:   -4.56 KCAL/MOL
REMARK 924 INTRA-LIGAND FREE ENERGY PREDICTED BY IDOCK:   -0.40 KCAL/MOL
REMARK 927      BINDING AFFINITY PREDICTED BY RF-SCORE:    0.00 PKD
ROOT
HETATM    1  C   UNL     1     -10.943  16.195  67.897  1.00  0.00    -0.318 C  
HETATM    2  C   UNL     1     -10.498  15.484  66.626  1.00  0.00    -0.299 C  
ENDROOT
BRANCH   2   3
HETATM    3  C   UNL     1      -9.575  14.321  66.969  1.00  0.00    -0.257 C  
BRANCH   3   4
HETATM    4  O   UNL     1     -10.108  13.070  66.511  1.00  0.00    -0.258 OA 
BRANCH   4   5
HETATM    5  C   UNL     1     -11.078  12.509  67.293  1.00  0.00    -0.274 C  
HETATM    6  O   UNL     1     -12.152  12.079  66.891  1.00  0.00    -0.608 OA 
BRANCH   5   7
HETATM    7  C   UNL     1     -10.607  12.429  68.737  1.00  0.00    -0.183 C  
BRANCH   7   8
HETATM    8  N   UNL     1     -10.686  11.059  69.278  1.00  0.00    -0.227 NA 
HETATM    9  C   UNL     1      -9.795  10.074  68.870  1.00  0.00    -0.184 C  
HETATM   10  C   UNL     1      -9.812   8.798  69.288  1.00  0.00    -0.180 C  
HETATM   11  I   UNL     1      -8.454   7.418  68.636  1.00  0.00    -0.127 I  
HETATM   12  C   UNL     1     -10.885   8.400  70.267  1.00  0.00    -0.239 C  
HETATM   13  C   UNL     1     -11.849   9.470  70.689  1.00  0.00    -0.233 C  
HETATM   14  O   UNL     1     -10.964   7.252  70.700  1.00  0.00    -0.244 OA 
HETATM   15  I   UNL     1     -13.356   9.035  72.001  1.00  0.00    -0.597 I  
HETATM   16  C   UNL     1     -11.684  10.699  70.175  1.00  0.00    -0.332 C  
ENDBRANCH   7   8
ENDBRANCH   5   7
ENDBRANCH   4   5
ENDBRANCH   3   4
ENDBRANCH   2   3
TORSDOF 5
ENDMDL
MODEL      122
REMARK 921   NORMALIZED FREE ENERGY PREDICTED BY IDOCK:   -3.59 KCAL/MOL
REMARK 922        TOTAL FREE ENERGY PREDICTED BY IDOCK:   -4.96 KCAL/MOL
REMARK 923 INTER-LIGAND FREE ENERGY PREDICTED BY IDOCK:   -4.64 KCAL/MOL
REMARK 924 INTRA-LIGAND FREE ENERGY PREDICTED BY IDOCK:   -0.31 KCAL/MOL
REMARK 927      BINDING AFFINITY PREDICTED BY RF-SCORE:    0.00 PKD
ROOT
HETATM    1  C   UNL     1     -12.118  12.165  63.494  1.00  0.00    -0.649 C  
HETATM    2  C   UNL     1     -10.630  11.961  63.737  1.00  0.00    -0.475 C  
ENDROOT
BRANCH   2   3
HETATM    3  C   UNL     1     -10.408  10.828  64.731  1.00  0.00    -0.310 C  
BRANCH   3   4
HETATM    4  O   UNL     1      -9.120  10.916  65.356  1.00  0.00    -0.191 OA 
BRANCH   4   5
HETATM    5  C   UNL     1      -9.121  11.071  66.714  1.00  0.00    -0.162 C  
HETATM    6  O   UNL     1      -8.174  11.465  67.383  1.00  0.00    -0.134 OA 
BRANCH   5   7
HETATM    7  C   UNL     1     -10.496  10.748  67.279  1.00  0.00    -0.237 C  
BRANCH   7   8
HETATM    8  N   UNL     1     -10.527   9.444  67.968  1.00  0.00    -0.220 NA 
HETATM    9  C   UNL     1     -10.377   8.256  67.263  1.00  0.00    -0.302 C  
HETATM   10  C   UNL     1     -10.420   7.028  67.804  1.00  0.00    -0.223 C  
HETATM   11  I   UNL     1     -10.182   5.335  66.687  1.00  0.00    -0.308 I  
HETATM   12  C   UNL     1     -10.659   6.928  69.287  1.00  0.00    -0.226 C  
HETATM   13  C   UNL     1     -10.832   8.218  70.035  1.00  0.00    -0.232 C  
HETATM   14  O   UNL     1     -10.708   5.840  69.858  1.00  0.00    -0.292 OA 
HETATM   15  I   UNL     1     -11.181   8.199  72.050  1.00  0.00    -0.464 I  
HETATM   16  C   UNL     1     -10.756   9.361  69.335  1.00  0.00    -0.217 C  
ENDBRANCH   7   8
ENDBRANCH   5   7
ENDBRANCH   4   5
ENDBRANCH   3   4
ENDBRANCH   2   3
TORSDOF 5
ENDMDL
MODEL      123
REMARK 921   NORMALIZED FREE ENERGY PREDICTED BY IDOCK:   -3.59 KCAL/MOL
REMARK 922        TOTAL FREE ENERGY PREDICTED BY IDOCK:   -4.95 KCAL/MOL
REMARK 923 INTER-LIGAND FREE ENERGY PREDICTED BY IDOCK:   -5.18 KCAL/MOL
REMARK 924 INTRA-LIGAND FREE ENERGY PREDICTED BY IDOCK:    0.22 KCAL/MOL
REMARK 927      BINDING AFFINITY PREDICTED BY RF-SCORE:    0.00 PKD
ROOT
HETATM    1  C   UNL     1     -12.166  15.951  72.329  1.00  0.00    -0.585 C  
HETATM    2  C   UNL     1     -12.890  14.959  73.229  1.00  0.00    -0.646 C  
ENDROOT
BRANCH   2   3
HETATM    3  C   UNL     1     -13.515  13.849  72.394  1.00  0.00    -0.560 C  
BRANCH   3   4
HETATM    4  O   UNL     1     -12.544  13.204  71.558  1.00  0.00    -0.296 OA 
BRANCH   4   5
HETATM    5  C   UNL     1     -12.751  11.875  71.313  1.00  0.00    -0.298 C  
HETATM    6  O   UNL     1     -13.383  11.112  72.033  1.00  0.00    -0.454 OA 
BRANCH   5   7
HETATM    7  C   UNL     1     -12.142  11.486  69.975  1.00  0.00    -0.331 C  
BRANCH   7   8
HETATM    8  N   UNL     1     -11.160  10.392  70.103  1.00  0.00    -0.300 NA 
HETATM    9  C   UNL     1     -11.290   9.423  71.090  1.00  0.00    -0.351 C  
HETATM   10  C   UNL     1     -10.431   8.413  71.296  1.00  0.00    -0.216 C  
HETATM   11  I   UNL     1     -10.708   7.029  72.773  1.00  0.00    -0.396 I  
HETATM   12  C   UNL     1      -9.229   8.326  70.394  1.00  0.00    -0.151 C  
HETATM   13  C   UNL     1      -9.093   9.386  69.340  1.00  0.00    -0.161 C  
HETATM   14  O   UNL     1      -8.398   7.426  70.516  1.00  0.00    -0.128 OA 
HETATM   15  I   UNL     1      -7.488   9.375  68.072  1.00  0.00    -0.078 I  
HETATM   16  C   UNL     1     -10.050  10.325  69.271  1.00  0.00    -0.227 C  
ENDBRANCH   7   8
ENDBRANCH   5   7
ENDBRANCH   4   5
ENDBRANCH   3   4
ENDBRANCH   2   3
TORSDOF 5
ENDMDL
MODEL      124
REMARK 921   NORMALIZED FREE ENERGY PREDICTED BY IDOCK:   -3.58 KCAL/MOL
REMARK 922        TOTAL FREE ENERGY PREDICTED BY IDOCK:   -4.95 KCAL/MOL
REMARK 923 INTER-LIGAND FREE ENERGY PREDICTED BY IDOCK:   -4.58 KCAL/MOL
REMARK 924 INTRA-LIGAND FREE ENERGY PREDICTED BY IDOCK:   -0.36 KCAL/MOL
REMARK 927      BINDING AFFINITY PREDICTED BY RF-SCORE:    0.00 PKD
ROOT
HETATM    1  C   UNL     1     -10.494  19.516  65.918  1.00  0.00    -0.585 C  
HETATM    2  C   UNL     1     -10.730  19.473  67.421  1.00  0.00    -0.589 C  
ENDROOT
BRANCH   2   3
HETATM    3  C   UNL     1      -9.611  18.701  68.109  1.00  0.00    -0.331 C  
BRANCH   3   4
HETATM    4  O   UNL     1      -8.466  18.556  67.256  1.00  0.00    -0.253 OA 
BRANCH   4   5
HETATM    5  C   UNL     1      -7.988  17.285  67.105  1.00  0.00    -0.205 C  
HETATM    6  O   UNL     1      -7.242  16.911  66.209  1.00  0.00    -0.261 OA 
BRANCH   5   7
HETATM    7  C   UNL     1      -8.461  16.406  68.253  1.00  0.00    -0.195 C  
BRANCH   7   8
HETATM    8  N   UNL     1      -8.963  15.099  67.788  1.00  0.00    -0.176 NA 
HETATM    9  C   UNL     1     -10.086  15.010  66.973  1.00  0.00    -0.244 C  
HETATM   10  C   UNL     1     -10.627  13.865  66.529  1.00  0.00    -0.279 C  
HETATM   11  I   UNL     1     -12.278  13.833  65.327  1.00  0.00    -0.543 I  
HETATM   12  C   UNL     1      -9.974  12.576  66.951  1.00  0.00    -0.224 C  
HETATM   13  C   UNL     1      -8.770  12.685  67.842  1.00  0.00    -0.181 C  
HETATM   14  O   UNL     1     -10.407  11.486  66.582  1.00  0.00    -0.213 OA 
HETATM   15  I   UNL     1      -7.817  10.996  68.491  1.00  0.00    -0.143 I  
HETATM   16  C   UNL     1      -8.359  13.914  68.189  1.00  0.00    -0.163 C  
ENDBRANCH   7   8
ENDBRANCH   5   7
ENDBRANCH   4   5
ENDBRANCH   3   4
ENDBRANCH   2   3
TORSDOF 5
ENDMDL
MODEL      125
REMARK 921   NORMALIZED FREE ENERGY PREDICTED BY IDOCK:   -3.58 KCAL/MOL
REMARK 922        TOTAL FREE ENERGY PREDICTED BY IDOCK:   -4.94 KCAL/MOL
REMARK 923 INTER-LIGAND FREE ENERGY PREDICTED BY IDOCK:   -4.56 KCAL/MOL
REMARK 924 INTRA-LIGAND FREE ENERGY PREDICTED BY IDOCK:   -0.37 KCAL/MOL
REMARK 927      BINDING AFFINITY PREDICTED BY RF-SCORE:    0.00 PKD
ROOT
HETATM    1  C   UNL     1      -8.587  19.103  66.741  1.00  0.00    -0.321 C  
HETATM    2  C   UNL     1     -10.035  18.746  67.045  1.00  0.00    -0.379 C  
ENDROOT
BRANCH   2   3
HETATM    3  C   UNL     1     -10.774  18.403  65.757  1.00  0.00    -0.131 C  
BRANCH   3   4
HETATM    4  O   UNL     1     -10.181  17.281  65.089  1.00  0.00    -0.432 OA 
BRANCH   4   5
HETATM    5  C   UNL     1     -11.044  16.307  64.671  1.00  0.00    -0.246 C  
HETATM    6  O   UNL     1     -11.987  16.476  63.908  1.00  0.00    -0.979 OA 
BRANCH   5   7
HETATM    7  C   UNL     1     -10.628  14.958  65.237  1.00  0.00    -0.401 C  
BRANCH   7   8
HETATM    8  N   UNL     1      -9.965  15.081  66.549  1.00  0.00    -0.253 NA 
HETATM    9  C   UNL     1      -8.579  15.085  66.655  1.00  0.00    -0.211 C  
HETATM   10  C   UNL     1      -7.895  15.164  67.807  1.00  0.00    -0.147 C  
HETATM   11  I   UNL     1      -5.853  15.170  67.865  1.00  0.00    -0.045 I  
HETATM   12  C   UNL     1      -8.688  15.244  69.085  1.00  0.00    -0.238 C  
HETATM   13  C   UNL     1     -10.184  15.225  68.957  1.00  0.00    -0.239 C  
HETATM   14  O   UNL     1      -8.134  15.324  70.180  1.00  0.00     0.096 OA 
HETATM   15  I   UNL     1     -11.358  15.311  70.630  1.00  0.00    -0.359 I  
HETATM   16  C   UNL     1     -10.705  15.146  67.723  1.00  0.00    -0.279 C  
ENDBRANCH   7   8
ENDBRANCH   5   7
ENDBRANCH   4   5
ENDBRANCH   3   4
ENDBRANCH   2   3
TORSDOF 5
ENDMDL
MODEL      126
REMARK 921   NORMALIZED FREE ENERGY PREDICTED BY IDOCK:   -3.58 KCAL/MOL
REMARK 922        TOTAL FREE ENERGY PREDICTED BY IDOCK:   -4.93 KCAL/MOL
REMARK 923 INTER-LIGAND FREE ENERGY PREDICTED BY IDOCK:   -4.57 KCAL/MOL
REMARK 924 INTRA-LIGAND FREE ENERGY PREDICTED BY IDOCK:   -0.37 KCAL/MOL
REMARK 927      BINDING AFFINITY PREDICTED BY RF-SCORE:    0.00 PKD
ROOT
HETATM    1  C   UNL     1     -10.761  19.578  65.859  1.00  0.00    -0.518 C  
HETATM    2  C   UNL     1     -10.864  19.518  67.376  1.00  0.00    -0.536 C  
ENDROOT
BRANCH   2   3
HETATM    3  C   UNL     1      -9.592  18.922  67.968  1.00  0.00    -0.322 C  
BRANCH   3   4
HETATM    4  O   UNL     1      -8.545  18.834  66.991  1.00  0.00    -0.270 OA 
BRANCH   4   5
HETATM    5  C   UNL     1      -8.009  17.591  66.797  1.00  0.00    -0.241 C  
HETATM    6  O   UNL     1      -7.216  17.292  65.913  1.00  0.00    -0.302 OA 
BRANCH   5   7
HETATM    7  C   UNL     1      -8.485  16.638  67.882  1.00  0.00    -0.194 C  
BRANCH   7   8
HETATM    8  N   UNL     1      -8.949  15.350  67.333  1.00  0.00    -0.186 NA 
HETATM    9  C   UNL     1      -8.276  14.166  67.611  1.00  0.00    -0.186 C  
HETATM   10  C   UNL     1      -8.611  12.958  67.132  1.00  0.00    -0.198 C  
HETATM   11  I   UNL     1      -7.563  11.269  67.602  1.00  0.00    -0.128 I  
HETATM   12  C   UNL     1      -9.803  12.878  66.215  1.00  0.00    -0.273 C  
HETATM   13  C   UNL     1     -10.513  14.166  65.912  1.00  0.00    -0.306 C  
HETATM   14  O   UNL     1     -10.176  11.807  65.739  1.00  0.00    -0.223 OA 
HETATM   15  I   UNL     1     -12.133  14.175  64.663  1.00  0.00    -0.412 I  
HETATM   16  C   UNL     1     -10.045  15.287  66.481  1.00  0.00    -0.270 C  
ENDBRANCH   7   8
ENDBRANCH   5   7
ENDBRANCH   4   5
ENDBRANCH   3   4
ENDBRANCH   2   3
TORSDOF 5
ENDMDL
MODEL      127
REMARK 921   NORMALIZED FREE ENERGY PREDICTED BY IDOCK:   -3.57 KCAL/MOL
REMARK 922        TOTAL FREE ENERGY PREDICTED BY IDOCK:   -4.93 KCAL/MOL
REMARK 923 INTER-LIGAND FREE ENERGY PREDICTED BY IDOCK:   -4.63 KCAL/MOL
REMARK 924 INTRA-LIGAND FREE ENERGY PREDICTED BY IDOCK:   -0.30 KCAL/MOL
REMARK 927      BINDING AFFINITY PREDICTED BY RF-SCORE:    0.00 PKD
ROOT
HETATM    1  C   UNL     1      -9.761  20.477  67.292  1.00  0.00    -0.600 C  
HETATM    2  C   UNL     1     -10.909  19.579  66.853  1.00  0.00    -0.523 C  
ENDROOT
BRANCH   2   3
HETATM    3  C   UNL     1     -10.374  18.370  66.095  1.00  0.00    -0.407 C  
BRANCH   3   4
HETATM    4  O   UNL     1      -9.640  17.488  66.957  1.00  0.00    -0.253 OA 
BRANCH   4   5
HETATM    5  C   UNL     1     -10.389  16.649  67.734  1.00  0.00    -0.306 C  
HETATM    6  O   UNL     1     -10.688  16.846  68.905  1.00  0.00    -0.329 OA 
BRANCH   5   7
HETATM    7  C   UNL     1     -10.860  15.457  66.915  1.00  0.00    -0.313 C  
BRANCH   7   8
HETATM    8  N   UNL     1     -10.392  14.174  67.473  1.00  0.00    -0.247 NA 
HETATM    9  C   UNL     1      -9.156  13.646  67.118  1.00  0.00    -0.239 C  
HETATM   10  C   UNL     1      -8.665  12.475  67.553  1.00  0.00    -0.182 C  
HETATM   11  I   UNL     1      -6.830  11.781  66.982  1.00  0.00     0.006 I  
HETATM   12  C   UNL     1      -9.521  11.665  68.491  1.00  0.00    -0.173 C  
HETATM   13  C   UNL     1     -10.859  12.240  68.856  1.00  0.00    -0.196 C  
HETATM   14  O   UNL     1      -9.139  10.585  68.937  1.00  0.00    -0.161 OA 
HETATM   15  I   UNL     1     -12.110  11.216  70.107  1.00  0.00    -0.423 I  
HETATM   16  C   UNL     1     -11.192  13.430  68.331  1.00  0.00    -0.279 C  
ENDBRANCH   7   8
ENDBRANCH   5   7
ENDBRANCH   4   5
ENDBRANCH   3   4
ENDBRANCH   2   3
TORSDOF 5
ENDMDL
MODEL      128
REMARK 921   NORMALIZED FREE ENERGY PREDICTED BY IDOCK:   -3.57 KCAL/MOL
REMARK 922        TOTAL FREE ENERGY PREDICTED BY IDOCK:   -4.93 KCAL/MOL
REMARK 923 INTER-LIGAND FREE ENERGY PREDICTED BY IDOCK:   -4.46 KCAL/MOL
REMARK 924 INTRA-LIGAND FREE ENERGY PREDICTED BY IDOCK:   -0.47 KCAL/MOL
REMARK 927      BINDING AFFINITY PREDICTED BY RF-SCORE:    0.00 PKD
ROOT
HETATM    1  C   UNL     1     -12.194  12.210  69.908  1.00  0.00    -0.240 C  
HETATM    2  C   UNL     1     -12.409  10.975  70.772  1.00  0.00    -0.496 C  
ENDROOT
BRANCH   2   3
HETATM    3  C   UNL     1     -11.194  10.059  70.694  1.00  0.00    -0.350 C  
BRANCH   3   4
HETATM    4  O   UNL     1     -10.676   9.979  69.359  1.00  0.00    -0.208 OA 
BRANCH   4   5
HETATM    5  C   UNL     1      -9.318  10.066  69.236  1.00  0.00    -0.214 C  
HETATM    6  O   UNL     1      -8.515   9.946  70.154  1.00  0.00    -0.191 OA 
BRANCH   5   7
HETATM    7  C   UNL     1      -8.933  10.267  67.779  1.00  0.00    -0.134 C  
BRANCH   7   8
HETATM    8  N   UNL     1      -9.422  11.551  67.242  1.00  0.00    -0.168 NA 
HETATM    9  C   UNL     1      -9.149  12.750  67.888  1.00  0.00    -0.204 C  
HETATM   10  C   UNL     1      -9.577  13.957  67.486  1.00  0.00    -0.229 C  
HETATM   11  I   UNL     1      -9.118  15.671  68.499  1.00  0.00    -0.234 I  
HETATM   12  C   UNL     1     -10.427  14.018  66.245  1.00  0.00    -0.286 C  
HETATM   13  C   UNL     1     -10.726  12.714  65.563  1.00  0.00    -0.274 C  
HETATM   14  O   UNL     1     -10.854  15.086  65.810  1.00  0.00    -0.325 OA 
HETATM   15  I   UNL     1     -11.887  12.677  63.880  1.00  0.00    -0.678 I  
HETATM   16  C   UNL     1     -10.213  11.596  66.100  1.00  0.00    -0.226 C  
ENDBRANCH   7   8
ENDBRANCH   5   7
ENDBRANCH   4   5
ENDBRANCH   3   4
ENDBRANCH   2   3
TORSDOF 5
ENDMDL
MODEL      129
REMARK 921   NORMALIZED FREE ENERGY PREDICTED BY IDOCK:   -3.55 KCAL/MOL
REMARK 922        TOTAL FREE ENERGY PREDICTED BY IDOCK:   -4.91 KCAL/MOL
REMARK 923 INTER-LIGAND FREE ENERGY PREDICTED BY IDOCK:   -4.98 KCAL/MOL
REMARK 924 INTRA-LIGAND FREE ENERGY PREDICTED BY IDOCK:    0.07 KCAL/MOL
REMARK 927      BINDING AFFINITY PREDICTED BY RF-SCORE:    0.00 PKD
ROOT
HETATM    1  C   UNL     1     -12.511  16.190  74.193  1.00  0.00    -0.711 C  
HETATM    2  C   UNL     1     -12.131  15.014  73.304  1.00  0.00    -0.459 C  
ENDROOT
BRANCH   2   3
HETATM    3  C   UNL     1     -12.051  15.457  71.849  1.00  0.00    -0.390 C  
BRANCH   3   4
HETATM    4  O   UNL     1     -11.336  14.508  71.045  1.00  0.00    -0.171 OA 
BRANCH   4   5
HETATM    5  C   UNL     1     -12.091  13.763  70.183  1.00  0.00    -0.359 C  
HETATM    6  O   UNL     1     -12.296  14.034  69.005  1.00  0.00    -0.307 OA 
BRANCH   5   7
HETATM    7  C   UNL     1     -12.593  12.506  70.875  1.00  0.00    -0.241 C  
BRANCH   7   8
HETATM    8  N   UNL     1     -11.860  11.299  70.446  1.00  0.00    -0.348 NA 
HETATM    9  C   UNL     1     -10.914  11.358  69.430  1.00  0.00    -0.205 C  
HETATM   10  C   UNL     1     -10.223  10.308  68.958  1.00  0.00    -0.210 C  
HETATM   11  I   UNL     1      -8.845  10.491  67.462  1.00  0.00    -0.139 I  
HETATM   12  C   UNL     1     -10.499   8.960  69.571  1.00  0.00    -0.226 C  
HETATM   13  C   UNL     1     -11.532   8.909  70.659  1.00  0.00    -0.242 C  
HETATM   14  O   UNL     1      -9.904   7.951  69.197  1.00  0.00    -0.168 OA 
HETATM   15  I   UNL     1     -12.000   7.127  71.548  1.00  0.00    -0.429 I  
HETATM   16  C   UNL     1     -12.127  10.059  71.012  1.00  0.00    -0.373 C  
ENDBRANCH   7   8
ENDBRANCH   5   7
ENDBRANCH   4   5
ENDBRANCH   3   4
ENDBRANCH   2   3
TORSDOF 5
ENDMDL
MODEL      130
REMARK 921   NORMALIZED FREE ENERGY PREDICTED BY IDOCK:   -3.55 KCAL/MOL
REMARK 922        TOTAL FREE ENERGY PREDICTED BY IDOCK:   -4.90 KCAL/MOL
REMARK 923 INTER-LIGAND FREE ENERGY PREDICTED BY IDOCK:   -4.41 KCAL/MOL
REMARK 924 INTRA-LIGAND FREE ENERGY PREDICTED BY IDOCK:   -0.49 KCAL/MOL
REMARK 927      BINDING AFFINITY PREDICTED BY RF-SCORE:    0.00 PKD
ROOT
HETATM    1  C   UNL     1      -7.130  11.875  67.106  1.00  0.00    -0.142 C  
HETATM    2  C   UNL     1      -8.090  12.986  67.506  1.00  0.00    -0.179 C  
ENDROOT
BRANCH   2   3
HETATM    3  C   UNL     1      -9.313  12.979  66.597  1.00  0.00    -0.241 C  
BRANCH   3   4
HETATM    4  O   UNL     1     -10.457  13.553  67.245  1.00  0.00    -0.246 OA 
BRANCH   4   5
HETATM    5  C   UNL     1     -11.513  12.710  67.455  1.00  0.00    -0.337 C  
HETATM    6  O   UNL     1     -12.076  12.051  66.589  1.00  0.00    -0.615 OA 
BRANCH   5   7
HETATM    7  C   UNL     1     -11.852  12.652  68.936  1.00  0.00    -0.302 C  
BRANCH   7   8
HETATM    8  N   UNL     1     -11.583  11.325  69.521  1.00  0.00    -0.297 NA 
HETATM    9  C   UNL     1     -12.487  10.726  70.390  1.00  0.00    -0.347 C  
HETATM   10  C   UNL     1     -12.309   9.538  70.988  1.00  0.00    -0.282 C  
HETATM   11  I   UNL     1     -13.700   8.732  72.249  1.00  0.00    -0.413 I  
HETATM   12  C   UNL     1     -11.028   8.799  70.704  1.00  0.00    -0.238 C  
HETATM   13  C   UNL     1     -10.055   9.462  69.774  1.00  0.00    -0.211 C  
HETATM   14  O   UNL     1     -10.794   7.703  71.210  1.00  0.00    -0.229 OA 
HETATM   15  I   UNL     1      -8.275   8.556  69.334  1.00  0.00    -0.118 I  
HETATM   16  C   UNL     1     -10.395  10.654  69.259  1.00  0.00    -0.218 C  
ENDBRANCH   7   8
ENDBRANCH   5   7
ENDBRANCH   4   5
ENDBRANCH   3   4
ENDBRANCH   2   3
TORSDOF 5
ENDMDL
MODEL      131
REMARK 921   NORMALIZED FREE ENERGY PREDICTED BY IDOCK:   -3.54 KCAL/MOL
REMARK 922        TOTAL FREE ENERGY PREDICTED BY IDOCK:   -4.89 KCAL/MOL
REMARK 923 INTER-LIGAND FREE ENERGY PREDICTED BY IDOCK:   -4.42 KCAL/MOL
REMARK 924 INTRA-LIGAND FREE ENERGY PREDICTED BY IDOCK:   -0.46 KCAL/MOL
REMARK 927      BINDING AFFINITY PREDICTED BY RF-SCORE:    0.00 PKD
ROOT
HETATM    1  C   UNL     1     -12.892  11.179  71.330  1.00  0.00    -0.515 C  
HETATM    2  C   UNL     1     -13.322   9.903  72.038  1.00  0.00    -0.532 C  
ENDROOT
BRANCH   2   3
HETATM    3  C   UNL     1     -12.169   8.907  72.075  1.00  0.00    -0.377 C  
BRANCH   3   4
HETATM    4  O   UNL     1     -12.339   7.864  71.104  1.00  0.00    -0.298 OA 
BRANCH   4   5
HETATM    5  C   UNL     1     -11.202   7.209  70.723  1.00  0.00    -0.279 C  
HETATM    6  O   UNL     1     -11.112   6.003  70.523  1.00  0.00    -0.310 OA 
BRANCH   5   7
HETATM    7  C   UNL     1     -10.068   8.201  70.513  1.00  0.00    -0.192 C  
BRANCH   7   8
HETATM    8  N   UNL     1      -9.979   8.663  69.115  1.00  0.00    -0.186 NA 
HETATM    9  C   UNL     1     -10.528   9.878  68.724  1.00  0.00    -0.213 C  
HETATM   10  C   UNL     1     -10.518  10.361  67.472  1.00  0.00    -0.245 C  
HETATM   11  I   UNL     1     -11.347  12.165  66.991  1.00  0.00    -0.383 I  
HETATM   12  C   UNL     1      -9.869   9.519  66.405  1.00  0.00    -0.253 C  
HETATM   13  C   UNL     1      -9.291   8.203  66.839  1.00  0.00    -0.173 C  
HETATM   14  O   UNL     1      -9.815   9.894  65.236  1.00  0.00    -0.302 OA 
HETATM   15  I   UNL     1      -8.402   6.971  65.469  1.00  0.00    -0.023 I  
HETATM   16  C   UNL     1      -9.385   7.876  68.137  1.00  0.00    -0.142 C  
ENDBRANCH   7   8
ENDBRANCH   5   7
ENDBRANCH   4   5
ENDBRANCH   3   4
ENDBRANCH   2   3
TORSDOF 5
ENDMDL
MODEL      132
REMARK 921   NORMALIZED FREE ENERGY PREDICTED BY IDOCK:   -3.54 KCAL/MOL
REMARK 922        TOTAL FREE ENERGY PREDICTED BY IDOCK:   -4.88 KCAL/MOL
REMARK 923 INTER-LIGAND FREE ENERGY PREDICTED BY IDOCK:   -4.53 KCAL/MOL
REMARK 924 INTRA-LIGAND FREE ENERGY PREDICTED BY IDOCK:   -0.35 KCAL/MOL
REMARK 927      BINDING AFFINITY PREDICTED BY RF-SCORE:    0.00 PKD
ROOT
HETATM    1  C   UNL     1     -10.904  16.039  67.995  1.00  0.00    -0.335 C  
HETATM    2  C   UNL     1     -10.796  15.262  66.691  1.00  0.00    -0.310 C  
ENDROOT
BRANCH   2   3
HETATM    3  C   UNL     1      -9.669  14.240  66.779  1.00  0.00    -0.275 C  
BRANCH   3   4
HETATM    4  O   UNL     1     -10.081  12.954  66.295  1.00  0.00    -0.264 OA 
BRANCH   4   5
HETATM    5  C   UNL     1     -10.876  12.224  67.134  1.00  0.00    -0.244 C  
HETATM    6  O   UNL     1     -11.966  11.749  66.841  1.00  0.00    -0.605 OA 
BRANCH   5   7
HETATM    7  C   UNL     1     -10.182  12.022  68.472  1.00  0.00    -0.212 C  
BRANCH   7   8
HETATM    8  N   UNL     1     -10.440  10.687  69.042  1.00  0.00    -0.202 NA 
HETATM    9  C   UNL     1     -11.426  10.495  70.003  1.00  0.00    -0.316 C  
HETATM   10  C   UNL     1     -11.708   9.323  70.594  1.00  0.00    -0.222 C  
HETATM   11  I   UNL     1     -13.183   9.136  71.995  1.00  0.00    -0.598 I  
HETATM   12  C   UNL     1     -10.889   8.125  70.194  1.00  0.00    -0.241 C  
HETATM   13  C   UNL     1      -9.819   8.349  69.164  1.00  0.00    -0.183 C  
HETATM   14  O   UNL     1     -11.089   7.016  70.686  1.00  0.00    -0.249 OA 
HETATM   15  I   UNL     1      -8.634   6.794  68.560  1.00  0.00    -0.122 I  
HETATM   16  C   UNL     1      -9.674   9.589  68.672  1.00  0.00    -0.155 C  
ENDBRANCH   7   8
ENDBRANCH   5   7
ENDBRANCH   4   5
ENDBRANCH   3   4
ENDBRANCH   2   3
TORSDOF 5
ENDMDL
MODEL      133
REMARK 921   NORMALIZED FREE ENERGY PREDICTED BY IDOCK:   -3.53 KCAL/MOL
REMARK 922        TOTAL FREE ENERGY PREDICTED BY IDOCK:   -4.87 KCAL/MOL
REMARK 923 INTER-LIGAND FREE ENERGY PREDICTED BY IDOCK:   -4.55 KCAL/MOL
REMARK 924 INTRA-LIGAND FREE ENERGY PREDICTED BY IDOCK:   -0.33 KCAL/MOL
REMARK 927      BINDING AFFINITY PREDICTED BY RF-SCORE:    0.00 PKD
ROOT
HETATM    1  C   UNL     1      -9.804   6.390  70.404  1.00  0.00    -0.193 C  
HETATM    2  C   UNL     1     -10.517   7.283  71.409  1.00  0.00    -0.219 C  
ENDROOT
BRANCH   2   3
HETATM    3  C   UNL     1     -10.367   8.747  71.014  1.00  0.00    -0.233 C  
BRANCH   3   4
HETATM    4  O   UNL     1     -10.978   9.018  69.744  1.00  0.00    -0.231 OA 
BRANCH   4   5
HETATM    5  C   UNL     1     -10.343   9.937  68.957  1.00  0.00    -0.209 C  
HETATM    6  O   UNL     1      -9.138  10.159  68.959  1.00  0.00    -0.153 OA 
BRANCH   5   7
HETATM    7  C   UNL     1     -11.338  10.604  68.020  1.00  0.00    -0.278 C  
BRANCH   7   8
HETATM    8  N   UNL     1     -11.399  12.065  68.214  1.00  0.00    -0.262 NA 
HETATM    9  C   UNL     1     -12.027  12.616  69.325  1.00  0.00    -0.246 C  
HETATM   10  C   UNL     1     -12.152  13.931  69.566  1.00  0.00    -0.342 C  
HETATM   11  I   UNL     1     -13.089  14.650  71.233  1.00  0.00    -0.488 I  
HETATM   12  C   UNL     1     -11.578  14.883  68.551  1.00  0.00    -0.323 C  
HETATM   13  C   UNL     1     -10.914  14.275  67.350  1.00  0.00    -0.295 C  
HETATM   14  O   UNL     1     -11.648  16.102  68.702  1.00  0.00    -0.376 OA 
HETATM   15  I   UNL     1     -10.115  15.477  65.900  1.00  0.00    -0.444 I  
HETATM   16  C   UNL     1     -10.873  12.936  67.269  1.00  0.00    -0.255 C  
ENDBRANCH   7   8
ENDBRANCH   5   7
ENDBRANCH   4   5
ENDBRANCH   3   4
ENDBRANCH   2   3
TORSDOF 5
ENDMDL
MODEL      134
REMARK 921   NORMALIZED FREE ENERGY PREDICTED BY IDOCK:   -3.52 KCAL/MOL
REMARK 922        TOTAL FREE ENERGY PREDICTED BY IDOCK:   -4.86 KCAL/MOL
REMARK 923 INTER-LIGAND FREE ENERGY PREDICTED BY IDOCK:   -4.50 KCAL/MOL
REMARK 924 INTRA-LIGAND FREE ENERGY PREDICTED BY IDOCK:   -0.37 KCAL/MOL
REMARK 927      BINDING AFFINITY PREDICTED BY RF-SCORE:    0.00 PKD
ROOT
HETATM    1  C   UNL     1      -9.769  20.495  67.403  1.00  0.00    -0.587 C  
HETATM    2  C   UNL     1     -10.748  19.387  67.042  1.00  0.00    -0.582 C  
ENDROOT
BRANCH   2   3
HETATM    3  C   UNL     1     -10.051  18.316  66.214  1.00  0.00    -0.380 C  
BRANCH   3   4
HETATM    4  O   UNL     1      -9.143  17.539  67.009  1.00  0.00    -0.236 OA 
BRANCH   4   5
HETATM    5  C   UNL     1      -9.715  16.657  67.882  1.00  0.00    -0.244 C  
HETATM    6  O   UNL     1      -9.701  16.759  69.103  1.00  0.00    -0.257 OA 
BRANCH   5   7
HETATM    7  C   UNL     1     -10.437  15.556  67.121  1.00  0.00    -0.286 C  
BRANCH   7   8
HETATM    8  N   UNL     1     -10.028  14.209  67.560  1.00  0.00    -0.234 NA 
HETATM    9  C   UNL     1     -10.903  13.383  68.255  1.00  0.00    -0.256 C  
HETATM   10  C   UNL     1     -10.605  12.158  68.715  1.00  0.00    -0.201 C  
HETATM   11  I   UNL     1     -11.962  11.012  69.724  1.00  0.00    -0.403 I  
HETATM   12  C   UNL     1      -9.213  11.640  68.468  1.00  0.00    -0.163 C  
HETATM   13  C   UNL     1      -8.274  12.547  67.727  1.00  0.00    -0.166 C  
HETATM   14  O   UNL     1      -8.865  10.525  68.854  1.00  0.00    -0.148 OA 
HETATM   15  I   UNL     1      -6.353  11.951  67.353  1.00  0.00    -0.145 I  
HETATM   16  C   UNL     1      -8.739  13.743  67.334  1.00  0.00    -0.207 C  
ENDBRANCH   7   8
ENDBRANCH   5   7
ENDBRANCH   4   5
ENDBRANCH   3   4
ENDBRANCH   2   3
TORSDOF 5
ENDMDL
MODEL      135
REMARK 921   NORMALIZED FREE ENERGY PREDICTED BY IDOCK:   -3.50 KCAL/MOL
REMARK 922        TOTAL FREE ENERGY PREDICTED BY IDOCK:   -4.84 KCAL/MOL
REMARK 923 INTER-LIGAND FREE ENERGY PREDICTED BY IDOCK:   -4.63 KCAL/MOL
REMARK 924 INTRA-LIGAND FREE ENERGY PREDICTED BY IDOCK:   -0.21 KCAL/MOL
REMARK 927      BINDING AFFINITY PREDICTED BY RF-SCORE:    0.00 PKD
ROOT
HETATM    1  C   UNL     1     -10.955   6.807  73.016  1.00  0.00    -0.293 C  
HETATM    2  C   UNL     1     -11.331   8.133  72.371  1.00  0.00    -0.456 C  
ENDROOT
BRANCH   2   3
HETATM    3  C   UNL     1     -10.243   8.575  71.400  1.00  0.00    -0.235 C  
BRANCH   3   4
HETATM    4  O   UNL     1     -10.464   9.913  70.931  1.00  0.00    -0.286 OA 
BRANCH   4   5
HETATM    5  C   UNL     1     -10.434  10.086  69.576  1.00  0.00    -0.240 C  
HETATM    6  O   UNL     1      -9.640   9.552  68.811  1.00  0.00    -0.153 OA 
BRANCH   5   7
HETATM    7  C   UNL     1     -11.576  10.989  69.136  1.00  0.00    -0.319 C  
BRANCH   7   8
HETATM    8  N   UNL     1     -11.175  11.917  68.062  1.00  0.00    -0.237 NA 
HETATM    9  C   UNL     1     -11.778  11.871  66.811  1.00  0.00    -0.202 C  
HETATM   10  C   UNL     1     -11.457  12.656  65.771  1.00  0.00    -0.358 C  
HETATM   11  I   UNL     1     -12.405  12.520  63.967  1.00  0.00    -0.495 I  
HETATM   12  C   UNL     1     -10.351  13.659  65.970  1.00  0.00    -0.304 C  
HETATM   13  C   UNL     1      -9.699  13.690  67.322  1.00  0.00    -0.243 C  
HETATM   14  O   UNL     1     -10.002  14.417  65.067  1.00  0.00    -0.336 OA 
HETATM   15  I   UNL     1      -8.174  15.000  67.697  1.00  0.00    -0.237 I  
HETATM   16  C   UNL     1     -10.149  12.834  68.253  1.00  0.00    -0.237 C  
ENDBRANCH   7   8
ENDBRANCH   5   7
ENDBRANCH   4   5
ENDBRANCH   3   4
ENDBRANCH   2   3
TORSDOF 5
ENDMDL
MODEL      136
REMARK 921   NORMALIZED FREE ENERGY PREDICTED BY IDOCK:   -3.48 KCAL/MOL
REMARK 922        TOTAL FREE ENERGY PREDICTED BY IDOCK:   -4.81 KCAL/MOL
REMARK 923 INTER-LIGAND FREE ENERGY PREDICTED BY IDOCK:   -4.33 KCAL/MOL
REMARK 924 INTRA-LIGAND FREE ENERGY PREDICTED BY IDOCK:   -0.47 KCAL/MOL
REMARK 927      BINDING AFFINITY PREDICTED BY RF-SCORE:    0.00 PKD
ROOT
HETATM    1  C   UNL     1     -12.006  11.647  69.839  1.00  0.00    -0.414 C  
HETATM    2  C   UNL     1     -12.135  10.581  70.918  1.00  0.00    -0.487 C  
ENDROOT
BRANCH   2   3
HETATM    3  C   UNL     1     -10.851   9.766  71.009  1.00  0.00    -0.308 C  
BRANCH   3   4
HETATM    4  O   UNL     1     -10.269   9.547  69.716  1.00  0.00    -0.199 OA 
BRANCH   4   5
HETATM    5  C   UNL     1      -8.912   9.686  69.638  1.00  0.00    -0.203 C  
HETATM    6  O   UNL     1      -8.141   9.656  70.590  1.00  0.00    -0.243 OA 
BRANCH   5   7
HETATM    7  C   UNL     1      -8.480   9.818  68.186  1.00  0.00    -0.114 C  
BRANCH   7   8
HETATM    8  N   UNL     1      -8.934  11.083  67.578  1.00  0.00    -0.137 NA 
HETATM    9  C   UNL     1      -9.596  11.094  66.356  1.00  0.00    -0.200 C  
HETATM   10  C   UNL     1     -10.018  12.198  65.719  1.00  0.00    -0.249 C  
HETATM   11  I   UNL     1     -10.990  12.117  63.924  1.00  0.00    -0.600 I  
HETATM   12  C   UNL     1      -9.747  13.527  66.373  1.00  0.00    -0.289 C  
HETATM   13  C   UNL     1      -9.020  13.501  67.686  1.00  0.00    -0.200 C  
HETATM   14  O   UNL     1     -10.106  14.583  65.854  1.00  0.00    -0.295 OA 
HETATM   15  I   UNL     1      -8.583  15.250  68.652  1.00  0.00    -0.212 I  
HETATM   16  C   UNL     1      -8.673  12.305  68.185  1.00  0.00    -0.186 C  
ENDBRANCH   7   8
ENDBRANCH   5   7
ENDBRANCH   4   5
ENDBRANCH   3   4
ENDBRANCH   2   3
TORSDOF 5
ENDMDL
MODEL      137
REMARK 921   NORMALIZED FREE ENERGY PREDICTED BY IDOCK:   -3.46 KCAL/MOL
REMARK 922        TOTAL FREE ENERGY PREDICTED BY IDOCK:   -4.79 KCAL/MOL
REMARK 923 INTER-LIGAND FREE ENERGY PREDICTED BY IDOCK:   -4.55 KCAL/MOL
REMARK 924 INTRA-LIGAND FREE ENERGY PREDICTED BY IDOCK:   -0.24 KCAL/MOL
REMARK 927      BINDING AFFINITY PREDICTED BY RF-SCORE:    0.00 PKD
ROOT
HETATM    1  C   UNL     1     -11.045   7.656  71.228  1.00  0.00    -0.268 C  
HETATM    2  C   UNL     1     -11.062   9.128  71.614  1.00  0.00    -0.445 C  
ENDROOT
BRANCH   2   3
HETATM    3  C   UNL     1     -11.594   9.970  70.461  1.00  0.00    -0.323 C  
BRANCH   3   4
HETATM    4  O   UNL     1     -10.842   9.755  69.258  1.00  0.00    -0.219 OA 
BRANCH   4   5
HETATM    5  C   UNL     1     -10.913  10.747  68.321  1.00  0.00    -0.255 C  
HETATM    6  O   UNL     1     -11.860  10.945  67.568  1.00  0.00    -0.524 OA 
BRANCH   5   7
HETATM    7  C   UNL     1      -9.672  11.623  68.388  1.00  0.00    -0.199 C  
BRANCH   7   8
HETATM    8  N   UNL     1     -10.002  13.056  68.504  1.00  0.00    -0.209 NA 
HETATM    9  C   UNL     1     -10.982  13.498  69.386  1.00  0.00    -0.050 C  
HETATM   10  C   UNL     1     -11.365  14.776  69.535  1.00  0.00    -0.283 C  
HETATM   11  I   UNL     1     -12.812  15.333  70.864  1.00  0.00    -0.459 I  
HETATM   12  C   UNL     1     -10.689  15.811  68.675  1.00  0.00    -0.263 C  
HETATM   13  C   UNL     1      -9.642  15.319  67.718  1.00  0.00    -0.206 C  
HETATM   14  O   UNL     1     -10.981  17.003  68.756  1.00  0.00    -0.289 OA 
HETATM   15  I   UNL     1      -8.674  16.636  66.488  1.00  0.00    -0.353 I  
HETATM   16  C   UNL     1      -9.379  14.003  67.701  1.00  0.00    -0.203 C  
ENDBRANCH   7   8
ENDBRANCH   5   7
ENDBRANCH   4   5
ENDBRANCH   3   4
ENDBRANCH   2   3
TORSDOF 5
ENDMDL
MODEL      138
REMARK 921   NORMALIZED FREE ENERGY PREDICTED BY IDOCK:   -3.46 KCAL/MOL
REMARK 922        TOTAL FREE ENERGY PREDICTED BY IDOCK:   -4.78 KCAL/MOL
REMARK 923 INTER-LIGAND FREE ENERGY PREDICTED BY IDOCK:   -4.38 KCAL/MOL
REMARK 924 INTRA-LIGAND FREE ENERGY PREDICTED BY IDOCK:   -0.40 KCAL/MOL
REMARK 927      BINDING AFFINITY PREDICTED BY RF-SCORE:    0.00 PKD
ROOT
HETATM    1  C   UNL     1     -11.398   9.232  71.471  1.00  0.00    -0.455 C  
HETATM    2  C   UNL     1     -12.587  10.180  71.412  1.00  0.00    -0.526 C  
ENDROOT
BRANCH   2   3
HETATM    3  C   UNL     1     -12.273  11.363  70.504  1.00  0.00    -0.386 C  
BRANCH   3   4
HETATM    4  O   UNL     1     -12.310  10.992  69.119  1.00  0.00    -0.451 OA 
BRANCH   4   5
HETATM    5  C   UNL     1     -11.713  11.860  68.249  1.00  0.00    -0.321 C  
HETATM    6  O   UNL     1     -11.717  13.081  68.353  1.00  0.00    -0.311 OA 
BRANCH   5   7
HETATM    7  C   UNL     1     -10.977  11.093  67.161  1.00  0.00    -0.291 C  
BRANCH   7   8
HETATM    8  N   UNL     1     -10.234   9.936  67.696  1.00  0.00    -0.194 NA 
HETATM    9  C   UNL     1      -9.237  10.102  68.649  1.00  0.00    -0.157 C  
HETATM   10  C   UNL     1      -8.494   9.111  69.167  1.00  0.00    -0.132 C  
HETATM   11  I   UNL     1      -7.050   9.450  70.572  1.00  0.00    -0.098 I  
HETATM   12  C   UNL     1      -8.754   7.713  68.672  1.00  0.00    -0.128 C  
HETATM   13  C   UNL     1      -9.825   7.550  67.633  1.00  0.00    -0.161 C  
HETATM   14  O   UNL     1      -8.118   6.752  69.101  1.00  0.00    -0.117 OA 
HETATM   15  I   UNL     1     -10.247   5.697  66.877  1.00  0.00    -0.359 I  
HETATM   16  C   UNL     1     -10.476   8.651  67.227  1.00  0.00    -0.289 C  
ENDBRANCH   7   8
ENDBRANCH   5   7
ENDBRANCH   4   5
ENDBRANCH   3   4
ENDBRANCH   2   3
TORSDOF 5
ENDMDL
MODEL      139
REMARK 921   NORMALIZED FREE ENERGY PREDICTED BY IDOCK:   -3.45 KCAL/MOL
REMARK 922        TOTAL FREE ENERGY PREDICTED BY IDOCK:   -4.78 KCAL/MOL
REMARK 923 INTER-LIGAND FREE ENERGY PREDICTED BY IDOCK:   -4.57 KCAL/MOL
REMARK 924 INTRA-LIGAND FREE ENERGY PREDICTED BY IDOCK:   -0.21 KCAL/MOL
REMARK 927      BINDING AFFINITY PREDICTED BY RF-SCORE:    0.00 PKD
ROOT
HETATM    1  C   UNL     1     -12.844  15.484  74.012  1.00  0.00    -0.562 C  
HETATM    2  C   UNL     1     -12.005  16.529  73.290  1.00  0.00    -0.448 C  
ENDROOT
BRANCH   2   3
HETATM    3  C   UNL     1     -11.366  15.924  72.046  1.00  0.00    -0.179 C  
BRANCH   3   4
HETATM    4  O   UNL     1     -11.981  14.678  71.688  1.00  0.00    -0.344 OA 
BRANCH   4   5
HETATM    5  C   UNL     1     -12.908  14.733  70.685  1.00  0.00    -0.343 C  
HETATM    6  O   UNL     1     -13.951  15.375  70.719  1.00  0.00    -0.365 OA 
BRANCH   5   7
HETATM    7  C   UNL     1     -12.431  13.933  69.483  1.00  0.00    -0.095 C  
BRANCH   7   8
HETATM    8  N   UNL     1     -11.215  14.505  68.875  1.00  0.00    -0.249 NA 
HETATM    9  C   UNL     1     -11.184  15.823  68.436  1.00  0.00    -0.362 C  
HETATM   10  C   UNL     1     -10.133  16.415  67.847  1.00  0.00    -0.250 C  
HETATM   11  I   UNL     1     -10.179  18.364  67.238  1.00  0.00    -0.458 I  
HETATM   12  C   UNL     1      -8.893  15.587  67.638  1.00  0.00    -0.179 C  
HETATM   13  C   UNL     1      -8.944  14.161  68.106  1.00  0.00    -0.188 C  
HETATM   14  O   UNL     1      -7.887  16.058  67.111  1.00  0.00    -0.168 OA 
HETATM   15  I   UNL     1      -7.322  12.940  67.855  1.00  0.00    -0.182 I  
HETATM   16  C   UNL     1     -10.078  13.731  68.680  1.00  0.00    -0.193 C  
ENDBRANCH   7   8
ENDBRANCH   5   7
ENDBRANCH   4   5
ENDBRANCH   3   4
ENDBRANCH   2   3
TORSDOF 5
ENDMDL
MODEL      140
REMARK 921   NORMALIZED FREE ENERGY PREDICTED BY IDOCK:   -3.45 KCAL/MOL
REMARK 922        TOTAL FREE ENERGY PREDICTED BY IDOCK:   -4.77 KCAL/MOL
REMARK 923 INTER-LIGAND FREE ENERGY PREDICTED BY IDOCK:   -4.46 KCAL/MOL
REMARK 924 INTRA-LIGAND FREE ENERGY PREDICTED BY IDOCK:   -0.31 KCAL/MOL
REMARK 927      BINDING AFFINITY PREDICTED BY RF-SCORE:    0.00 PKD
ROOT
HETATM    1  C   UNL     1     -12.207  10.486  71.052  1.00  0.00    -0.505 C  
HETATM    2  C   UNL     1     -11.119  10.043  70.084  1.00  0.00    -0.371 C  
ENDROOT
BRANCH   2   3
HETATM    3  C   UNL     1     -11.449  10.506  68.671  1.00  0.00    -0.223 C  
BRANCH   3   4
HETATM    4  O   UNL     1     -12.029  11.819  68.666  1.00  0.00    -0.354 OA 
BRANCH   4   5
HETATM    5  C   UNL     1     -11.734  12.600  67.583  1.00  0.00    -0.361 C  
HETATM    6  O   UNL     1     -11.821  12.250  66.413  1.00  0.00    -0.529 OA 
BRANCH   5   7
HETATM    7  C   UNL     1     -11.346  13.999  68.035  1.00  0.00    -0.293 C  
BRANCH   7   8
HETATM    8  N   UNL     1      -9.895  14.242  67.922  1.00  0.00    -0.221 NA 
HETATM    9  C   UNL     1      -9.404  15.482  67.531  1.00  0.00    -0.206 C  
HETATM   10  C   UNL     1      -8.104  15.781  67.374  1.00  0.00    -0.169 C  
HETATM   11  I   UNL     1      -7.474  17.638  66.801  1.00  0.00    -0.321 I  
HETATM   12  C   UNL     1      -7.101  14.689  67.634  1.00  0.00    -0.182 C  
HETATM   13  C   UNL     1      -7.646  13.351  68.044  1.00  0.00    -0.143 C  
HETATM   14  O   UNL     1      -5.893  14.886  67.517  1.00  0.00    -0.325 OA 
HETATM   15  I   UNL     1      -6.374  11.791  68.403  1.00  0.00    -0.064 I  
HETATM   16  C   UNL     1      -8.978  13.226  68.156  1.00  0.00    -0.195 C  
ENDBRANCH   7   8
ENDBRANCH   5   7
ENDBRANCH   4   5
ENDBRANCH   3   4
ENDBRANCH   2   3
TORSDOF 5
ENDMDL
MODEL      141
REMARK 921   NORMALIZED FREE ENERGY PREDICTED BY IDOCK:   -3.45 KCAL/MOL
REMARK 922        TOTAL FREE ENERGY PREDICTED BY IDOCK:   -4.77 KCAL/MOL
REMARK 923 INTER-LIGAND FREE ENERGY PREDICTED BY IDOCK:   -4.92 KCAL/MOL
REMARK 924 INTRA-LIGAND FREE ENERGY PREDICTED BY IDOCK:    0.15 KCAL/MOL
REMARK 927      BINDING AFFINITY PREDICTED BY RF-SCORE:    0.00 PKD
ROOT
HETATM    1  C   UNL     1     -12.902  15.353  73.241  1.00  0.00    -0.636 C  
HETATM    2  C   UNL     1     -13.033  15.832  71.802  1.00  0.00    -0.505 C  
ENDROOT
BRANCH   2   3
HETATM    3  C   UNL     1     -11.830  15.378  70.985  1.00  0.00    -0.360 C  
BRANCH   3   4
HETATM    4  O   UNL     1     -12.229  14.671  69.802  1.00  0.00    -0.313 OA 
BRANCH   4   5
HETATM    5  C   UNL     1     -11.571  13.499  69.553  1.00  0.00    -0.294 C  
HETATM    6  O   UNL     1     -10.451  13.406  69.065  1.00  0.00    -0.160 OA 
BRANCH   5   7
HETATM    7  C   UNL     1     -12.401  12.318  70.031  1.00  0.00    -0.089 C  
BRANCH   7   8
HETATM    8  N   UNL     1     -11.704  11.031  69.844  1.00  0.00    -0.314 NA 
HETATM    9  C   UNL     1     -11.483  10.173  70.915  1.00  0.00    -0.360 C  
HETATM   10  C   UNL     1     -10.835   9.000  70.841  1.00  0.00    -0.258 C  
HETATM   11  I   UNL     1     -10.563   7.799  72.471  1.00  0.00    -0.445 I  
HETATM   12  C   UNL     1     -10.297   8.584  69.498  1.00  0.00    -0.218 C  
HETATM   13  C   UNL     1     -10.531   9.526  68.352  1.00  0.00    -0.224 C  
HETATM   14  O   UNL     1      -9.696   7.522  69.347  1.00  0.00    -0.162 OA 
HETATM   15  I   UNL     1      -9.827   9.070  66.487  1.00  0.00    -0.305 I  
HETATM   16  C   UNL     1     -11.205  10.660  68.603  1.00  0.00    -0.278 C  
ENDBRANCH   7   8
ENDBRANCH   5   7
ENDBRANCH   4   5
ENDBRANCH   3   4
ENDBRANCH   2   3
TORSDOF 5
ENDMDL
MODEL      142
REMARK 921   NORMALIZED FREE ENERGY PREDICTED BY IDOCK:   -3.44 KCAL/MOL
REMARK 922        TOTAL FREE ENERGY PREDICTED BY IDOCK:   -4.76 KCAL/MOL
REMARK 923 INTER-LIGAND FREE ENERGY PREDICTED BY IDOCK:   -4.39 KCAL/MOL
REMARK 924 INTRA-LIGAND FREE ENERGY PREDICTED BY IDOCK:   -0.37 KCAL/MOL
REMARK 927      BINDING AFFINITY PREDICTED BY RF-SCORE:    0.00 PKD
ROOT
HETATM    1  C   UNL     1     -12.602  13.838  65.607  1.00  0.00    -0.551 C  
HETATM    2  C   UNL     1     -11.924  14.110  66.942  1.00  0.00    -0.479 C  
ENDROOT
BRANCH   2   3
HETATM    3  C   UNL     1     -11.804  12.821  67.744  1.00  0.00    -0.332 C  
BRANCH   3   4
HETATM    4  O   UNL     1     -11.672  11.676  66.890  1.00  0.00    -0.552 OA 
BRANCH   4   5
HETATM    5  C   UNL     1     -10.408  11.177  66.746  1.00  0.00    -0.241 C  
HETATM    6  O   UNL     1      -9.847  10.967  65.677  1.00  0.00    -0.215 OA 
BRANCH   5   7
HETATM    7  C   UNL     1      -9.762  10.980  68.109  1.00  0.00    -0.174 C  
BRANCH   7   8
HETATM    8  N   UNL     1      -9.976   9.620  68.639  1.00  0.00    -0.161 NA 
HETATM    9  C   UNL     1     -10.797   9.399  69.739  1.00  0.00    -0.232 C  
HETATM   10  C   UNL     1     -11.025   8.203  70.303  1.00  0.00    -0.240 C  
HETATM   11  I   UNL     1     -12.255   7.974  71.917  1.00  0.00    -0.407 I  
HETATM   12  C   UNL     1     -10.331   7.007  69.705  1.00  0.00    -0.212 C  
HETATM   13  C   UNL     1      -9.438   7.261  68.526  1.00  0.00    -0.140 C  
HETATM   14  O   UNL     1     -10.492   5.877  70.162  1.00  0.00    -0.217 OA 
HETATM   15  I   UNL     1      -8.432   5.712  67.648  1.00  0.00    -0.097 I  
HETATM   16  C   UNL     1      -9.326   8.524  68.086  1.00  0.00    -0.137 C  
ENDBRANCH   7   8
ENDBRANCH   5   7
ENDBRANCH   4   5
ENDBRANCH   3   4
ENDBRANCH   2   3
TORSDOF 5
ENDMDL
MODEL      143
REMARK 921   NORMALIZED FREE ENERGY PREDICTED BY IDOCK:   -3.44 KCAL/MOL
REMARK 922        TOTAL FREE ENERGY PREDICTED BY IDOCK:   -4.76 KCAL/MOL
REMARK 923 INTER-LIGAND FREE ENERGY PREDICTED BY IDOCK:   -4.41 KCAL/MOL
REMARK 924 INTRA-LIGAND FREE ENERGY PREDICTED BY IDOCK:   -0.34 KCAL/MOL
REMARK 927      BINDING AFFINITY PREDICTED BY RF-SCORE:    0.00 PKD
ROOT
HETATM    1  C   UNL     1     -10.693   6.548  67.235  1.00  0.00    -0.427 C  
HETATM    2  C   UNL     1      -9.271   7.057  67.048  1.00  0.00    -0.167 C  
ENDROOT
BRANCH   2   3
HETATM    3  C   UNL     1      -9.247   8.192  66.031  1.00  0.00    -0.147 C  
BRANCH   3   4
HETATM    4  O   UNL     1     -10.416   9.018  66.131  1.00  0.00    -0.118 OA 
BRANCH   4   5
HETATM    5  C   UNL     1     -10.222  10.357  65.937  1.00  0.00    -0.234 C  
HETATM    6  O   UNL     1     -10.659  11.006  64.994  1.00  0.00    -0.292 OA 
BRANCH   5   7
HETATM    7  C   UNL     1      -9.440  10.949  67.099  1.00  0.00    -0.160 C  
BRANCH   7   8
HETATM    8  N   UNL     1     -10.310  11.658  68.057  1.00  0.00    -0.186 NA 
HETATM    9  C   UNL     1     -10.398  13.045  68.055  1.00  0.00    -0.234 C  
HETATM   10  C   UNL     1     -11.139  13.771  68.906  1.00  0.00    -0.266 C  
HETATM   11  I   UNL     1     -11.212  15.811  68.824  1.00  0.00    -0.387 I  
HETATM   12  C   UNL     1     -11.930  13.028  69.950  1.00  0.00    -0.311 C  
HETATM   13  C   UNL     1     -11.816  11.531  69.950  1.00  0.00    -0.355 C  
HETATM   14  O   UNL     1     -12.637  13.621  70.763  1.00  0.00    -0.338 OA 
HETATM   15  I   UNL     1     -12.833  10.423  71.336  1.00  0.00    -0.558 I  
HETATM   16  C   UNL     1     -11.029  10.965  69.021  1.00  0.00    -0.235 C  
ENDBRANCH   7   8
ENDBRANCH   5   7
ENDBRANCH   4   5
ENDBRANCH   3   4
ENDBRANCH   2   3
TORSDOF 5
ENDMDL
MODEL      144
REMARK 921   NORMALIZED FREE ENERGY PREDICTED BY IDOCK:   -3.43 KCAL/MOL
REMARK 922        TOTAL FREE ENERGY PREDICTED BY IDOCK:   -4.75 KCAL/MOL
REMARK 923 INTER-LIGAND FREE ENERGY PREDICTED BY IDOCK:   -4.45 KCAL/MOL
REMARK 924 INTRA-LIGAND FREE ENERGY PREDICTED BY IDOCK:   -0.30 KCAL/MOL
REMARK 927      BINDING AFFINITY PREDICTED BY RF-SCORE:    0.00 PKD
ROOT
HETATM    1  C   UNL     1     -11.889  12.901  63.476  1.00  0.00    -0.605 C  
HETATM    2  C   UNL     1     -10.781  13.146  64.490  1.00  0.00    -0.416 C  
ENDROOT
BRANCH   2   3
HETATM    3  C   UNL     1     -11.283  12.855  65.899  1.00  0.00    -0.293 C  
BRANCH   3   4
HETATM    4  O   UNL     1     -11.486  11.451  66.110  1.00  0.00    -0.270 OA 
BRANCH   4   5
HETATM    5  C   UNL     1     -10.364  10.671  66.078  1.00  0.00    -0.225 C  
HETATM    6  O   UNL     1     -10.015   9.971  65.135  1.00  0.00    -0.323 OA 
BRANCH   5   7
HETATM    7  C   UNL     1      -9.565  10.846  67.360  1.00  0.00    -0.163 C  
BRANCH   7   8
HETATM    8  N   UNL     1     -10.257  10.280  68.533  1.00  0.00    -0.165 NA 
HETATM    9  C   UNL     1     -10.196   8.921  68.816  1.00  0.00    -0.206 C  
HETATM   10  C   UNL     1     -10.817   8.319  69.843  1.00  0.00    -0.213 C  
HETATM   11  I   UNL     1     -10.664   6.311  70.184  1.00  0.00    -0.447 I  
HETATM   12  C   UNL     1     -11.651   9.179  70.755  1.00  0.00    -0.276 C  
HETATM   13  C   UNL     1     -11.719  10.644  70.431  1.00  0.00    -0.353 C  
HETATM   14  O   UNL     1     -12.246   8.703  71.720  1.00  0.00    -0.302 OA 
HETATM   15  I   UNL     1     -12.838  11.901  71.592  1.00  0.00     0.058 I  
HETATM   16  C   UNL     1     -11.031  11.081  69.364  1.00  0.00    -0.248 C  
ENDBRANCH   7   8
ENDBRANCH   5   7
ENDBRANCH   4   5
ENDBRANCH   3   4
ENDBRANCH   2   3
TORSDOF 5
ENDMDL
MODEL      145
REMARK 921   NORMALIZED FREE ENERGY PREDICTED BY IDOCK:   -3.43 KCAL/MOL
REMARK 922        TOTAL FREE ENERGY PREDICTED BY IDOCK:   -4.75 KCAL/MOL
REMARK 923 INTER-LIGAND FREE ENERGY PREDICTED BY IDOCK:   -4.58 KCAL/MOL
REMARK 924 INTRA-LIGAND FREE ENERGY PREDICTED BY IDOCK:   -0.17 KCAL/MOL
REMARK 927      BINDING AFFINITY PREDICTED BY RF-SCORE:    0.00 PKD
ROOT
HETATM    1  C   UNL     1      -9.511   5.414  71.912  1.00  0.00    -0.176 C  
HETATM    2  C   UNL     1      -9.485   6.725  72.684  1.00  0.00    -0.152 C  
ENDROOT
BRANCH   2   3
HETATM    3  C   UNL     1     -10.901   7.256  72.871  1.00  0.00    -0.337 C  
BRANCH   3   4
HETATM    4  O   UNL     1     -11.039   8.588  72.355  1.00  0.00    -0.361 OA 
BRANCH   4   5
HETATM    5  C   UNL     1     -12.181   8.841  71.648  1.00  0.00    -0.339 C  
HETATM    6  O   UNL     1     -13.080   8.035  71.441  1.00  0.00    -0.304 OA 
BRANCH   5   7
HETATM    7  C   UNL     1     -12.215  10.297  71.208  1.00  0.00    -0.395 C  
BRANCH   7   8
HETATM    8  N   UNL     1     -11.705  10.479  69.836  1.00  0.00    -0.280 NA 
HETATM    9  C   UNL     1     -11.925  11.662  69.140  1.00  0.00    -0.313 C  
HETATM   10  C   UNL     1     -11.523  11.902  67.882  1.00  0.00    -0.316 C  
HETATM   11  I   UNL     1     -11.887  13.678  66.940  1.00  0.00    -0.434 I  
HETATM   12  C   UNL     1     -10.784  10.804  67.165  1.00  0.00    -0.272 C  
HETATM   13  C   UNL     1     -10.565   9.527  67.923  1.00  0.00    -0.244 C  
HETATM   14  O   UNL     1     -10.380  10.948  66.012  1.00  0.00    -0.243 OA 
HETATM   15  I   UNL     1      -9.589   7.962  67.038  1.00  0.00    -0.322 I  
HETATM   16  C   UNL     1     -11.032   9.457  69.179  1.00  0.00    -0.090 C  
ENDBRANCH   7   8
ENDBRANCH   5   7
ENDBRANCH   4   5
ENDBRANCH   3   4
ENDBRANCH   2   3
TORSDOF 5
ENDMDL
MODEL      146
REMARK 921   NORMALIZED FREE ENERGY PREDICTED BY IDOCK:   -3.42 KCAL/MOL
REMARK 922        TOTAL FREE ENERGY PREDICTED BY IDOCK:   -4.73 KCAL/MOL
REMARK 923 INTER-LIGAND FREE ENERGY PREDICTED BY IDOCK:   -4.77 KCAL/MOL
REMARK 924 INTRA-LIGAND FREE ENERGY PREDICTED BY IDOCK:    0.04 KCAL/MOL
REMARK 927      BINDING AFFINITY PREDICTED BY RF-SCORE:    0.00 PKD
ROOT
HETATM    1  C   UNL     1     -12.479  16.287  74.446  1.00  0.00    -0.597 C  
HETATM    2  C   UNL     1     -12.027  15.264  73.414  1.00  0.00    -0.540 C  
ENDROOT
BRANCH   2   3
HETATM    3  C   UNL     1     -11.902  15.917  72.044  1.00  0.00    -0.515 C  
BRANCH   3   4
HETATM    4  O   UNL     1     -11.363  15.010  71.072  1.00  0.00    -0.304 OA 
BRANCH   4   5
HETATM    5  C   UNL     1     -12.264  14.450  70.210  1.00  0.00    -0.334 C  
HETATM    6  O   UNL     1     -13.181  15.046  69.658  1.00  0.00     0.348 OA 
BRANCH   5   7
HETATM    7  C   UNL     1     -11.928  12.985  69.976  1.00  0.00    -0.312 C  
BRANCH   7   8
HETATM    8  N   UNL     1     -11.395  12.742  68.622  1.00  0.00    -0.271 NA 
HETATM    9  C   UNL     1     -11.311  13.768  67.689  1.00  0.00    -0.304 C  
HETATM   10  C   UNL     1     -10.867  13.629  66.430  1.00  0.00    -0.290 C  
HETATM   11  I   UNL     1     -10.773  15.199  65.127  1.00  0.00    -0.380 I  
HETATM   12  C   UNL     1     -10.435  12.255  65.990  1.00  0.00    -0.254 C  
HETATM   13  C   UNL     1     -10.543  11.153  67.004  1.00  0.00    -0.252 C  
HETATM   14  O   UNL     1     -10.012  12.048  64.854  1.00  0.00    -0.258 OA 
HETATM   15  I   UNL     1     -10.002   9.244  66.508  1.00  0.00    -0.279 I  
HETATM   16  C   UNL     1     -11.006  11.469  68.224  1.00  0.00    -0.224 C  
ENDBRANCH   7   8
ENDBRANCH   5   7
ENDBRANCH   4   5
ENDBRANCH   3   4
ENDBRANCH   2   3
TORSDOF 5
ENDMDL
MODEL      147
REMARK 921   NORMALIZED FREE ENERGY PREDICTED BY IDOCK:   -3.40 KCAL/MOL
REMARK 922        TOTAL FREE ENERGY PREDICTED BY IDOCK:   -4.71 KCAL/MOL
REMARK 923 INTER-LIGAND FREE ENERGY PREDICTED BY IDOCK:   -4.29 KCAL/MOL
REMARK 924 INTRA-LIGAND FREE ENERGY PREDICTED BY IDOCK:   -0.42 KCAL/MOL
REMARK 927      BINDING AFFINITY PREDICTED BY RF-SCORE:    0.00 PKD
ROOT
HETATM    1  C   UNL     1     -10.268   5.010  71.821  1.00  0.00    -0.272 C  
HETATM    2  C   UNL     1      -9.725   6.240  72.535  1.00  0.00    -0.163 C  
ENDROOT
BRANCH   2   3
HETATM    3  C   UNL     1     -10.828   6.906  73.350  1.00  0.00    -0.273 C  
BRANCH   3   4
HETATM    4  O   UNL     1     -11.058   8.256  72.923  1.00  0.00    -0.332 OA 
BRANCH   4   5
HETATM    5  C   UNL     1     -12.010   8.426  71.957  1.00  0.00    -0.357 C  
HETATM    6  O   UNL     1     -12.937   7.657  71.733  1.00  0.00    -0.330 OA 
BRANCH   5   7
HETATM    7  C   UNL     1     -11.796   9.747  71.235  1.00  0.00    -0.399 C  
BRANCH   7   8
HETATM    8  N   UNL     1     -11.320   9.559  69.851  1.00  0.00    -0.179 NA 
HETATM    9  C   UNL     1     -10.739   8.363  69.448  1.00  0.00    -0.152 C  
HETATM   10  C   UNL     1     -10.254   8.117  68.221  1.00  0.00    -0.206 C  
HETATM   11  I   UNL     1      -9.420   6.321  67.717  1.00  0.00    -0.137 I  
HETATM   12  C   UNL     1     -10.338   9.224  67.203  1.00  0.00    -0.260 C  
HETATM   13  C   UNL     1     -10.957  10.515  67.655  1.00  0.00    -0.314 C  
HETATM   14  O   UNL     1      -9.920   9.075  66.056  1.00  0.00    -0.283 OA 
HETATM   15  I   UNL     1     -11.104  12.091  66.360  1.00  0.00    -0.384 I  
HETATM   16  C   UNL     1     -11.395  10.589  68.922  1.00  0.00    -0.251 C  
ENDBRANCH   7   8
ENDBRANCH   5   7
ENDBRANCH   4   5
ENDBRANCH   3   4
ENDBRANCH   2   3
TORSDOF 5
ENDMDL
MODEL      148
REMARK 921   NORMALIZED FREE ENERGY PREDICTED BY IDOCK:   -3.39 KCAL/MOL
REMARK 922        TOTAL FREE ENERGY PREDICTED BY IDOCK:   -4.69 KCAL/MOL
REMARK 923 INTER-LIGAND FREE ENERGY PREDICTED BY IDOCK:   -4.35 KCAL/MOL
REMARK 924 INTRA-LIGAND FREE ENERGY PREDICTED BY IDOCK:   -0.34 KCAL/MOL
REMARK 927      BINDING AFFINITY PREDICTED BY RF-SCORE:    0.00 PKD
ROOT
HETATM    1  C   UNL     1      -6.836  11.094  69.572  1.00  0.00    -0.127 C  
HETATM    2  C   UNL     1      -7.220  11.224  68.105  1.00  0.00    -0.081 C  
ENDROOT
BRANCH   2   3
HETATM    3  C   UNL     1      -8.536  10.504  67.839  1.00  0.00    -0.123 C  
BRANCH   3   4
HETATM    4  O   UNL     1      -9.664  11.361  68.067  1.00  0.00    -0.174 OA 
BRANCH   4   5
HETATM    5  C   UNL     1     -10.237  11.908  66.953  1.00  0.00    -0.208 C  
HETATM    6  O   UNL     1      -9.717  11.964  65.845  1.00  0.00    -0.231 OA 
BRANCH   5   7
HETATM    7  C   UNL     1     -11.648  12.381  67.265  1.00  0.00    -0.365 C  
BRANCH   7   8
HETATM    8  N   UNL     1     -11.671  13.434  68.298  1.00  0.00    -0.336 NA 
HETATM    9  C   UNL     1     -12.358  13.252  69.492  1.00  0.00    -0.068 C  
HETATM   10  C   UNL     1     -12.454  14.165  70.472  1.00  0.00    -0.361 C  
HETATM   11  I   UNL     1     -13.483  13.806  72.200  1.00  0.00    -0.661 I  
HETATM   12  C   UNL     1     -11.774  15.491  70.259  1.00  0.00    -0.346 C  
HETATM   13  C   UNL     1     -11.047  15.679  68.959  1.00  0.00    -0.279 C  
HETATM   14  O   UNL     1     -11.813  16.377  71.111  1.00  0.00    -0.344 OA 
HETATM   15  I   UNL     1     -10.103  17.449  68.557  1.00  0.00    -0.376 I  
HETATM   16  C   UNL     1     -11.047  14.657  68.089  1.00  0.00    -0.274 C  
ENDBRANCH   7   8
ENDBRANCH   5   7
ENDBRANCH   4   5
ENDBRANCH   3   4
ENDBRANCH   2   3
TORSDOF 5
ENDMDL
MODEL      149
REMARK 921   NORMALIZED FREE ENERGY PREDICTED BY IDOCK:   -3.39 KCAL/MOL
REMARK 922        TOTAL FREE ENERGY PREDICTED BY IDOCK:   -4.69 KCAL/MOL
REMARK 923 INTER-LIGAND FREE ENERGY PREDICTED BY IDOCK:   -4.33 KCAL/MOL
REMARK 924 INTRA-LIGAND FREE ENERGY PREDICTED BY IDOCK:   -0.37 KCAL/MOL
REMARK 927      BINDING AFFINITY PREDICTED BY RF-SCORE:    0.00 PKD
ROOT
HETATM    1  C   UNL     1     -13.263  11.850  71.953  1.00  0.00    -0.467 C  
HETATM    2  C   UNL     1     -12.372  11.549  70.756  1.00  0.00    -0.472 C  
ENDROOT
BRANCH   2   3
HETATM    3  C   UNL     1     -11.656  10.218  70.953  1.00  0.00    -0.365 C  
BRANCH   3   4
HETATM    4  O   UNL     1     -12.529   9.224  71.506  1.00  0.00    -0.318 OA 
BRANCH   4   5
HETATM    5  C   UNL     1     -11.920   8.147  72.088  1.00  0.00    -0.359 C  
HETATM    6  O   UNL     1     -11.125   8.200  73.019  1.00  0.00    -0.331 OA 
BRANCH   5   7
HETATM    7  C   UNL     1     -12.420   6.856  71.458  1.00  0.00    -0.375 C  
BRANCH   7   8
HETATM    8  N   UNL     1     -11.386   6.192  70.643  1.00  0.00    -0.324 NA 
HETATM    9  C   UNL     1     -10.733   5.054  71.100  1.00  0.00    -0.002 C  
HETATM   10  C   UNL     1      -9.763   4.404  70.439  1.00  0.00    -0.214 C  
HETATM   11  I   UNL     1      -8.863   2.730  71.188  1.00  0.00    -0.179 I  
HETATM   12  C   UNL     1      -9.341   4.954  69.102  1.00  0.00    -0.128 C  
HETATM   13  C   UNL     1     -10.045   6.192  68.626  1.00  0.00    -0.162 C  
HETATM   14  O   UNL     1      -8.463   4.413  68.433  1.00  0.00    -0.091 OA 
HETATM   15  I   UNL     1      -9.539   7.036  66.833  1.00  0.00    -0.228 I  
HETATM   16  C   UNL     1     -10.998   6.712  69.415  1.00  0.00    -0.309 C  
ENDBRANCH   7   8
ENDBRANCH   5   7
ENDBRANCH   4   5
ENDBRANCH   3   4
ENDBRANCH   2   3
TORSDOF 5
ENDMDL
MODEL      150
REMARK 921   NORMALIZED FREE ENERGY PREDICTED BY IDOCK:   -3.37 KCAL/MOL
REMARK 922        TOTAL FREE ENERGY PREDICTED BY IDOCK:   -4.67 KCAL/MOL
REMARK 923 INTER-LIGAND FREE ENERGY PREDICTED BY IDOCK:   -4.34 KCAL/MOL
REMARK 924 INTRA-LIGAND FREE ENERGY PREDICTED BY IDOCK:   -0.33 KCAL/MOL
REMARK 927      BINDING AFFINITY PREDICTED BY RF-SCORE:    0.00 PKD
ROOT
HETATM    1  C   UNL     1     -12.252  14.421  64.352  1.00  0.00    -0.481 C  
HETATM    2  C   UNL     1     -12.393  13.658  65.661  1.00  0.00    -0.518 C  
ENDROOT
BRANCH   2   3
HETATM    3  C   UNL     1     -11.905  14.512  66.824  1.00  0.00    -0.371 C  
BRANCH   3   4
HETATM    4  O   UNL     1     -12.122  13.863  68.085  1.00  0.00    -0.365 OA 
BRANCH   4   5
HETATM    5  C   UNL     1     -11.607  12.603  68.208  1.00  0.00    -0.332 C  
HETATM    6  O   UNL     1     -12.263  11.568  68.225  1.00  0.00    -0.561 OA 
BRANCH   5   7
HETATM    7  C   UNL     1     -10.088  12.658  68.252  1.00  0.00    -0.233 C  
BRANCH   7   8
HETATM    8  N   UNL     1      -9.464  11.609  67.423  1.00  0.00    -0.166 NA 
HETATM    9  C   UNL     1      -8.730  10.580  68.000  1.00  0.00    -0.128 C  
HETATM   10  C   UNL     1      -8.107   9.604  67.322  1.00  0.00    -0.110 C  
HETATM   11  I   UNL     1      -7.053   8.125  68.258  1.00  0.00    -0.085 I  
HETATM   12  C   UNL     1      -8.202   9.628  65.819  1.00  0.00    -0.120 C  
HETATM   13  C   UNL     1      -8.987  10.753  65.208  1.00  0.00    -0.194 C  
HETATM   14  O   UNL     1      -7.663   8.767  65.127  1.00  0.00    -0.096 OA 
HETATM   15  I   UNL     1      -9.166  10.894  63.175  1.00  0.00    -0.358 I  
HETATM   16  C   UNL     1      -9.551  11.645  66.037  1.00  0.00    -0.228 C  
ENDBRANCH   7   8
ENDBRANCH   5   7
ENDBRANCH   4   5
ENDBRANCH   3   4
ENDBRANCH   2   3
TORSDOF 5
ENDMDL
MODEL      151
REMARK 921   NORMALIZED FREE ENERGY PREDICTED BY IDOCK:   -3.37 KCAL/MOL
REMARK 922        TOTAL FREE ENERGY PREDICTED BY IDOCK:   -4.67 KCAL/MOL
REMARK 923 INTER-LIGAND FREE ENERGY PREDICTED BY IDOCK:   -4.40 KCAL/MOL
REMARK 924 INTRA-LIGAND FREE ENERGY PREDICTED BY IDOCK:   -0.27 KCAL/MOL
REMARK 927      BINDING AFFINITY PREDICTED BY RF-SCORE:    0.00 PKD
ROOT
HETATM    1  C   UNL     1     -12.325  12.477  63.360  1.00  0.00    -0.577 C  
HETATM    2  C   UNL     1     -12.704  12.595  64.829  1.00  0.00    -0.460 C  
ENDROOT
BRANCH   2   3
HETATM    3  C   UNL     1     -12.641  14.051  65.274  1.00  0.00    -0.470 C  
BRANCH   3   4
HETATM    4  O   UNL     1     -12.189  14.171  66.631  1.00  0.00    -0.448 OA 
BRANCH   4   5
HETATM    5  C   UNL     1     -10.982  14.787  66.808  1.00  0.00    -0.327 C  
HETATM    6  O   UNL     1     -10.759  15.692  67.604  1.00  0.00    -0.288 OA 
BRANCH   5   7
HETATM    7  C   UNL     1      -9.927  14.143  65.922  1.00  0.00    -0.311 C  
BRANCH   7   8
HETATM    8  N   UNL     1      -9.181  13.080  66.621  1.00  0.00    -0.241 NA 
HETATM    9  C   UNL     1      -9.489  11.739  66.424  1.00  0.00    -0.221 C  
HETATM   10  C   UNL     1      -8.883  10.711  67.038  1.00  0.00    -0.137 C  
HETATM   11  I   UNL     1      -9.400   8.767  66.680  1.00  0.00    -0.312 I  
HETATM   12  C   UNL     1      -7.790  11.033  68.023  1.00  0.00    -0.112 C  
HETATM   13  C   UNL     1      -7.476  12.486  68.235  1.00  0.00    -0.122 C  
HETATM   14  O   UNL     1      -7.184  10.147  68.622  1.00  0.00    -0.076 OA 
HETATM   15  I   UNL     1      -6.023  13.038  69.565  1.00  0.00    -0.111 I  
HETATM   16  C   UNL     1      -8.180  13.387  67.533  1.00  0.00    -0.185 C  
ENDBRANCH   7   8
ENDBRANCH   5   7
ENDBRANCH   4   5
ENDBRANCH   3   4
ENDBRANCH   2   3
TORSDOF 5
ENDMDL
MODEL      152
REMARK 921   NORMALIZED FREE ENERGY PREDICTED BY IDOCK:   -3.36 KCAL/MOL
REMARK 922        TOTAL FREE ENERGY PREDICTED BY IDOCK:   -4.66 KCAL/MOL
REMARK 923 INTER-LIGAND FREE ENERGY PREDICTED BY IDOCK:   -4.08 KCAL/MOL
REMARK 924 INTRA-LIGAND FREE ENERGY PREDICTED BY IDOCK:   -0.58 KCAL/MOL
REMARK 927      BINDING AFFINITY PREDICTED BY RF-SCORE:    0.00 PKD
ROOT
HETATM    1  C   UNL     1     -12.560  10.903  71.359  1.00  0.00    -0.508 C  
HETATM    2  C   UNL     1     -13.442   9.664  71.332  1.00  0.00    -0.403 C  
ENDROOT
BRANCH   2   3
HETATM    3  C   UNL     1     -12.744   8.504  72.032  1.00  0.00    -0.376 C  
BRANCH   3   4
HETATM    4  O   UNL     1     -12.800   7.303  71.250  1.00  0.00    -0.367 OA 
BRANCH   4   5
HETATM    5  C   UNL     1     -11.651   6.563  71.204  1.00  0.00    -0.335 C  
HETATM    6  O   UNL     1     -11.189   5.914  72.135  1.00  0.00    -0.266 OA 
BRANCH   5   7
HETATM    7  C   UNL     1     -11.057   6.601  69.805  1.00  0.00    -0.342 C  
BRANCH   7   8
HETATM    8  N   UNL     1     -10.275   7.828  69.562  1.00  0.00    -0.202 NA 
HETATM    9  C   UNL     1      -9.026   8.011  70.144  1.00  0.00    -0.150 C  
HETATM   10  C   UNL     1      -8.261   9.105  70.001  1.00  0.00    -0.143 C  
HETATM   11  I   UNL     1      -6.432   9.282  70.893  1.00  0.00    -0.051 I  
HETATM   12  C   UNL     1      -8.800  10.225  69.150  1.00  0.00    -0.176 C  
HETATM   13  C   UNL     1     -10.155  10.020  68.537  1.00  0.00    -0.169 C  
HETATM   14  O   UNL     1      -8.157  11.257  68.966  1.00  0.00    -0.127 OA 
HETATM   15  I   UNL     1     -10.990  11.485  67.379  1.00  0.00    -0.372 I  
HETATM   16  C   UNL     1     -10.783   8.859  68.782  1.00  0.00    -0.090 C  
ENDBRANCH   7   8
ENDBRANCH   5   7
ENDBRANCH   4   5
ENDBRANCH   3   4
ENDBRANCH   2   3
TORSDOF 5
ENDMDL
MODEL      153
REMARK 921   NORMALIZED FREE ENERGY PREDICTED BY IDOCK:   -3.36 KCAL/MOL
REMARK 922        TOTAL FREE ENERGY PREDICTED BY IDOCK:   -4.66 KCAL/MOL
REMARK 923 INTER-LIGAND FREE ENERGY PREDICTED BY IDOCK:   -4.37 KCAL/MOL
REMARK 924 INTRA-LIGAND FREE ENERGY PREDICTED BY IDOCK:   -0.29 KCAL/MOL
REMARK 927      BINDING AFFINITY PREDICTED BY RF-SCORE:    0.00 PKD
ROOT
HETATM    1  C   UNL     1     -10.905  16.253  70.030  1.00  0.00    -0.329 C  
HETATM    2  C   UNL     1      -9.775  15.476  69.370  1.00  0.00    -0.283 C  
ENDROOT
BRANCH   2   3
HETATM    3  C   UNL     1     -10.238  14.903  68.036  1.00  0.00    -0.228 C  
BRANCH   3   4
HETATM    4  O   UNL     1     -10.778  15.921  67.181  1.00  0.00    -0.316 OA 
BRANCH   4   5
HETATM    5  C   UNL     1      -9.866  16.701  66.528  1.00  0.00    -0.281 C  
HETATM    6  O   UNL     1      -9.050  16.300  65.707  1.00  0.00    -0.434 OA 
BRANCH   5   7
HETATM    7  C   UNL     1     -10.050  18.160  66.914  1.00  0.00    -0.357 C  
BRANCH   7   8
HETATM    8  N   UNL     1      -8.764  18.866  67.070  1.00  0.00    -0.286 NA 
HETATM    9  C   UNL     1      -8.089  19.382  65.970  1.00  0.00    -0.250 C  
HETATM   10  C   UNL     1      -6.905  20.011  66.018  1.00  0.00    -0.257 C  
HETATM   11  I   UNL     1      -5.990  20.744  64.345  1.00  0.00    -0.300 I  
HETATM   12  C   UNL     1      -6.249  20.161  67.366  1.00  0.00    -0.195 C  
HETATM   13  C   UNL     1      -6.982  19.588  68.544  1.00  0.00    -0.305 C  
HETATM   14  O   UNL     1      -5.166  20.729  67.493  1.00  0.00    -0.179 OA 
HETATM   15  I   UNL     1      -6.174  19.719  70.418  1.00  0.00    -0.041 I  
HETATM   16  C   UNL     1      -8.163  18.993  68.316  1.00  0.00    -0.329 C  
ENDBRANCH   7   8
ENDBRANCH   5   7
ENDBRANCH   4   5
ENDBRANCH   3   4
ENDBRANCH   2   3
TORSDOF 5
ENDMDL
MODEL      154
REMARK 921   NORMALIZED FREE ENERGY PREDICTED BY IDOCK:   -3.34 KCAL/MOL
REMARK 922        TOTAL FREE ENERGY PREDICTED BY IDOCK:   -4.62 KCAL/MOL
REMARK 923 INTER-LIGAND FREE ENERGY PREDICTED BY IDOCK:   -4.30 KCAL/MOL
REMARK 924 INTRA-LIGAND FREE ENERGY PREDICTED BY IDOCK:   -0.32 KCAL/MOL
REMARK 927      BINDING AFFINITY PREDICTED BY RF-SCORE:    0.00 PKD
ROOT
HETATM    1  C   UNL     1     -13.813  14.133  72.437  1.00  0.00    -0.638 C  
HETATM    2  C   UNL     1     -13.420  14.909  71.188  1.00  0.00    -0.474 C  
ENDROOT
BRANCH   2   3
HETATM    3  C   UNL     1     -12.020  14.509  70.739  1.00  0.00    -0.322 C  
BRANCH   3   4
HETATM    4  O   UNL     1     -12.027  13.263  70.027  1.00  0.00    -0.325 OA 
BRANCH   4   5
HETATM    5  C   UNL     1     -11.360  13.250  68.834  1.00  0.00    -0.288 C  
HETATM    6  O   UNL     1     -10.761  14.202  68.347  1.00  0.00    -0.243 OA 
BRANCH   5   7
HETATM    7  C   UNL     1     -11.407  11.859  68.221  1.00  0.00    -0.277 C  
BRANCH   7   8
HETATM    8  N   UNL     1     -10.715  10.856  69.053  1.00  0.00    -0.211 NA 
HETATM    9  C   UNL     1      -9.330  10.852  69.169  1.00  0.00    -0.078 C  
HETATM   10  C   UNL     1      -8.620   9.961  69.879  1.00  0.00    -0.194 C  
HETATM   11  I   UNL     1      -6.582  10.038  69.997  1.00  0.00    -0.143 I  
HETATM   12  C   UNL     1      -9.379   8.878  70.598  1.00  0.00    -0.212 C  
HETATM   13  C   UNL     1     -10.873   8.887  70.454  1.00  0.00    -0.236 C  
HETATM   14  O   UNL     1      -8.800   8.028  71.273  1.00  0.00    -0.129 OA 
HETATM   15  I   UNL     1     -12.002   7.450  71.373  1.00  0.00    -0.391 I  
HETATM   16  C   UNL     1     -11.423   9.856  69.706  1.00  0.00    -0.143 C  
ENDBRANCH   7   8
ENDBRANCH   5   7
ENDBRANCH   4   5
ENDBRANCH   3   4
ENDBRANCH   2   3
TORSDOF 5
ENDMDL
MODEL      155
REMARK 921   NORMALIZED FREE ENERGY PREDICTED BY IDOCK:   -3.33 KCAL/MOL
REMARK 922        TOTAL FREE ENERGY PREDICTED BY IDOCK:   -4.62 KCAL/MOL
REMARK 923 INTER-LIGAND FREE ENERGY PREDICTED BY IDOCK:   -4.39 KCAL/MOL
REMARK 924 INTRA-LIGAND FREE ENERGY PREDICTED BY IDOCK:   -0.23 KCAL/MOL
REMARK 927      BINDING AFFINITY PREDICTED BY RF-SCORE:    0.00 PKD
ROOT
HETATM    1  C   UNL     1      -8.343  19.347  68.554  1.00  0.00    -0.399 C  
HETATM    2  C   UNL     1      -9.856  19.289  68.706  1.00  0.00    -0.514 C  
ENDROOT
BRANCH   2   3
HETATM    3  C   UNL     1     -10.366  17.890  68.383  1.00  0.00    -0.374 C  
BRANCH   3   4
HETATM    4  O   UNL     1      -9.286  16.963  68.197  1.00  0.00    -0.229 OA 
BRANCH   4   5
HETATM    5  C   UNL     1      -9.394  15.775  68.864  1.00  0.00    -0.228 C  
HETATM    6  O   UNL     1     -10.238  15.514  69.713  1.00  0.00    -0.269 OA 
BRANCH   5   7
HETATM    7  C   UNL     1      -8.353  14.790  68.355  1.00  0.00    -0.154 C  
BRANCH   7   8
HETATM    8  N   UNL     1      -8.925  13.806  67.417  1.00  0.00    -0.213 NA 
HETATM    9  C   UNL     1      -9.995  14.136  66.594  1.00  0.00    -0.277 C  
HETATM   10  C   UNL     1     -10.593  13.296  65.735  1.00  0.00    -0.284 C  
HETATM   11  I   UNL     1     -12.160  13.874  64.557  1.00  0.00    -0.409 I  
HETATM   12  C   UNL     1     -10.073  11.885  65.661  1.00  0.00    -0.243 C  
HETATM   13  C   UNL     1      -8.925  11.538  66.565  1.00  0.00    -0.189 C  
HETATM   14  O   UNL     1     -10.564  11.058  64.896  1.00  0.00    -0.302 OA 
HETATM   15  I   UNL     1      -8.151   9.645  66.561  1.00  0.00    -0.123 I  
HETATM   16  C   UNL     1      -8.443  12.504  67.363  1.00  0.00    -0.181 C  
ENDBRANCH   7   8
ENDBRANCH   5   7
ENDBRANCH   4   5
ENDBRANCH   3   4
ENDBRANCH   2   3
TORSDOF 5
ENDMDL
MODEL      156
REMARK 921   NORMALIZED FREE ENERGY PREDICTED BY IDOCK:   -3.33 KCAL/MOL
REMARK 922        TOTAL FREE ENERGY PREDICTED BY IDOCK:   -4.61 KCAL/MOL
REMARK 923 INTER-LIGAND FREE ENERGY PREDICTED BY IDOCK:   -4.35 KCAL/MOL
REMARK 924 INTRA-LIGAND FREE ENERGY PREDICTED BY IDOCK:   -0.26 KCAL/MOL
REMARK 927      BINDING AFFINITY PREDICTED BY RF-SCORE:    0.00 PKD
ROOT
HETATM    1  C   UNL     1     -12.211  14.622  64.387  1.00  0.00    -0.473 C  
HETATM    2  C   UNL     1     -12.104  14.456  65.896  1.00  0.00    -0.358 C  
ENDROOT
BRANCH   2   3
HETATM    3  C   UNL     1     -11.519  13.091  66.237  1.00  0.00    -0.337 C  
BRANCH   3   4
HETATM    4  O   UNL     1     -12.140  12.523  67.399  1.00  0.00    -0.466 OA 
BRANCH   4   5
HETATM    5  C   UNL     1     -11.348  12.412  68.508  1.00  0.00    -0.293 C  
HETATM    6  O   UNL     1     -10.266  12.964  68.663  1.00  0.00    -0.229 OA 
BRANCH   5   7
HETATM    7  C   UNL     1     -12.033  11.553  69.559  1.00  0.00    -0.335 C  
BRANCH   7   8
HETATM    8  N   UNL     1     -11.436  10.208  69.661  1.00  0.00    -0.226 NA 
HETATM    9  C   UNL     1     -11.102   9.483  68.524  1.00  0.00     0.015 C  
HETATM   10  C   UNL     1     -10.582   8.245  68.524  1.00  0.00    -0.100 C  
HETATM   11  I   UNL     1     -10.115   7.258  66.798  1.00  0.00    -0.142 I  
HETATM   12  C   UNL     1     -10.352   7.586  69.858  1.00  0.00    -0.223 C  
HETATM   13  C   UNL     1     -10.730   8.375  71.079  1.00  0.00    -0.223 C  
HETATM   14  O   UNL     1      -9.875   6.456  69.943  1.00  0.00    -0.164 OA 
HETATM   15  I   UNL     1     -10.477   7.569  72.941  1.00  0.00    -0.443 I  
HETATM   16  C   UNL     1     -11.235   9.605  70.896  1.00  0.00    -0.352 C  
ENDBRANCH   7   8
ENDBRANCH   5   7
ENDBRANCH   4   5
ENDBRANCH   3   4
ENDBRANCH   2   3
TORSDOF 5
ENDMDL
MODEL      157
REMARK 921   NORMALIZED FREE ENERGY PREDICTED BY IDOCK:   -3.31 KCAL/MOL
REMARK 922        TOTAL FREE ENERGY PREDICTED BY IDOCK:   -4.60 KCAL/MOL
REMARK 923 INTER-LIGAND FREE ENERGY PREDICTED BY IDOCK:   -4.30 KCAL/MOL
REMARK 924 INTRA-LIGAND FREE ENERGY PREDICTED BY IDOCK:   -0.30 KCAL/MOL
REMARK 927      BINDING AFFINITY PREDICTED BY RF-SCORE:    0.00 PKD
ROOT
HETATM    1  C   UNL     1     -10.613   3.290  73.336  1.00  0.00    -0.280 C  
HETATM    2  C   UNL     1     -11.357   4.611  73.473  1.00  0.00    -0.353 C  
ENDROOT
BRANCH   2   3
HETATM    3  C   UNL     1     -10.771   5.646  72.520  1.00  0.00    -0.239 C  
BRANCH   3   4
HETATM    4  O   UNL     1     -11.306   6.954  72.765  1.00  0.00    -0.258 OA 
BRANCH   4   5
HETATM    5  C   UNL     1     -11.972   7.535  71.722  1.00  0.00    -0.301 C  
HETATM    6  O   UNL     1     -12.556   6.931  70.831  1.00  0.00    -0.357 OA 
BRANCH   5   7
HETATM    7  C   UNL     1     -11.944   9.049  71.859  1.00  0.00    -0.375 C  
BRANCH   7   8
HETATM    8  N   UNL     1     -11.048   9.685  70.873  1.00  0.00    -0.324 NA 
HETATM    9  C   UNL     1     -11.498  10.712  70.053  1.00  0.00    -0.325 C  
HETATM   10  C   UNL     1     -10.762  11.326  69.113  1.00  0.00    -0.207 C  
HETATM   11  I   UNL     1     -11.508  12.835  67.955  1.00  0.00    -0.417 I  
HETATM   12  C   UNL     1      -9.342  10.860  68.925  1.00  0.00    -0.160 C  
HETATM   13  C   UNL     1      -8.873   9.741  69.809  1.00  0.00    -0.224 C  
HETATM   14  O   UNL     1      -8.603  11.375  68.088  1.00  0.00    -0.140 OA 
HETATM   15  I   UNL     1      -6.969   9.017  69.626  1.00  0.00    -0.064 I  
HETATM   16  C   UNL     1      -9.743   9.243  70.702  1.00  0.00    -0.272 C  
ENDBRANCH   7   8
ENDBRANCH   5   7
ENDBRANCH   4   5
ENDBRANCH   3   4
ENDBRANCH   2   3
TORSDOF 5
ENDMDL
MODEL      158
REMARK 921   NORMALIZED FREE ENERGY PREDICTED BY IDOCK:   -3.31 KCAL/MOL
REMARK 922        TOTAL FREE ENERGY PREDICTED BY IDOCK:   -4.59 KCAL/MOL
REMARK 923 INTER-LIGAND FREE ENERGY PREDICTED BY IDOCK:   -4.52 KCAL/MOL
REMARK 924 INTRA-LIGAND FREE ENERGY PREDICTED BY IDOCK:   -0.07 KCAL/MOL
REMARK 927      BINDING AFFINITY PREDICTED BY RF-SCORE:    0.00 PKD
ROOT
HETATM    1  C   UNL     1     -10.220  11.545  63.378  1.00  0.00    -0.462 C  
HETATM    2  C   UNL     1     -11.660  11.906  63.714  1.00  0.00    -0.555 C  
ENDROOT
BRANCH   2   3
HETATM    3  C   UNL     1     -11.703  12.837  64.919  1.00  0.00    -0.352 C  
BRANCH   3   4
HETATM    4  O   UNL     1     -12.353  12.223  66.041  1.00  0.00    -0.609 OA 
BRANCH   4   5
HETATM    5  C   UNL     1     -11.879  12.573  67.274  1.00  0.00    -0.311 C  
HETATM    6  O   UNL     1     -11.471  13.685  67.587  1.00  0.00    -0.291 OA 
BRANCH   5   7
HETATM    7  C   UNL     1     -11.991  11.397  68.233  1.00  0.00    -0.164 C  
BRANCH   7   8
HETATM    8  N   UNL     1     -10.678  10.971  68.753  1.00  0.00    -0.190 NA 
HETATM    9  C   UNL     1      -9.497  11.380  68.145  1.00  0.00    -0.181 C  
HETATM   10  C   UNL     1      -8.265  11.018  68.533  1.00  0.00    -0.146 C  
HETATM   11  I   UNL     1      -6.583  11.676  67.579  1.00  0.00    -0.133 I  
HETATM   12  C   UNL     1      -8.150  10.090  69.714  1.00  0.00    -0.177 C  
HETATM   13  C   UNL     1      -9.433   9.646  70.354  1.00  0.00    -0.222 C  
HETATM   14  O   UNL     1      -7.056   9.717  70.134  1.00  0.00    -0.083 OA 
HETATM   15  I   UNL     1      -9.395   8.371  71.953  1.00  0.00    -0.357 I  
HETATM   16  C   UNL     1     -10.583  10.109  69.838  1.00  0.00    -0.285 C  
ENDBRANCH   7   8
ENDBRANCH   5   7
ENDBRANCH   4   5
ENDBRANCH   3   4
ENDBRANCH   2   3
TORSDOF 5
ENDMDL
MODEL      159
REMARK 921   NORMALIZED FREE ENERGY PREDICTED BY IDOCK:   -3.31 KCAL/MOL
REMARK 922        TOTAL FREE ENERGY PREDICTED BY IDOCK:   -4.59 KCAL/MOL
REMARK 923 INTER-LIGAND FREE ENERGY PREDICTED BY IDOCK:   -4.33 KCAL/MOL
REMARK 924 INTRA-LIGAND FREE ENERGY PREDICTED BY IDOCK:   -0.26 KCAL/MOL
REMARK 927      BINDING AFFINITY PREDICTED BY RF-SCORE:    0.00 PKD
ROOT
HETATM    1  C   UNL     1     -11.424   6.467  70.399  1.00  0.00    -0.465 C  
HETATM    2  C   UNL     1     -10.854   5.732  69.195  1.00  0.00    -0.355 C  
ENDROOT
BRANCH   2   3
HETATM    3  C   UNL     1     -10.725   6.681  68.010  1.00  0.00    -0.265 C  
BRANCH   3   4
HETATM    4  O   UNL     1     -10.435   8.021  68.434  1.00  0.00    -0.206 OA 
BRANCH   4   5
HETATM    5  C   UNL     1     -10.527   8.988  67.472  1.00  0.00    -0.272 C  
HETATM    6  O   UNL     1     -10.162   8.866  66.309  1.00  0.00    -0.284 OA 
BRANCH   5   7
HETATM    7  C   UNL     1     -11.215  10.223  68.032  1.00  0.00    -0.235 C  
BRANCH   7   8
HETATM    8  N   UNL     1     -10.738  11.466  67.398  1.00  0.00    -0.218 NA 
HETATM    9  C   UNL     1      -9.559  12.076  67.810  1.00  0.00    -0.193 C  
HETATM   10  C   UNL     1      -9.067  13.220  67.309  1.00  0.00    -0.221 C  
HETATM   11  I   UNL     1      -7.318  14.040  67.975  1.00  0.00    -0.215 I  
HETATM   12  C   UNL     1      -9.857  13.902  66.224  1.00  0.00    -0.306 C  
HETATM   13  C   UNL     1     -11.135  13.240  65.797  1.00  0.00    -0.279 C  
HETATM   14  O   UNL     1      -9.470  14.951  65.711  1.00  0.00    -0.308 OA 
HETATM   15  I   UNL     1     -12.295  14.090  64.343  1.00  0.00    -0.133 I  
HETATM   16  C   UNL     1     -11.477  12.092  66.403  1.00  0.00    -0.370 C  
ENDBRANCH   7   8
ENDBRANCH   5   7
ENDBRANCH   4   5
ENDBRANCH   3   4
ENDBRANCH   2   3
TORSDOF 5
ENDMDL
MODEL      160
REMARK 921   NORMALIZED FREE ENERGY PREDICTED BY IDOCK:   -3.30 KCAL/MOL
REMARK 922        TOTAL FREE ENERGY PREDICTED BY IDOCK:   -4.58 KCAL/MOL
REMARK 923 INTER-LIGAND FREE ENERGY PREDICTED BY IDOCK:   -4.29 KCAL/MOL
REMARK 924 INTRA-LIGAND FREE ENERGY PREDICTED BY IDOCK:   -0.29 KCAL/MOL
REMARK 927      BINDING AFFINITY PREDICTED BY RF-SCORE:    0.00 PKD
ROOT
HETATM    1  C   UNL     1      -9.823   9.630  66.417  1.00  0.00    -0.309 C  
HETATM    2  C   UNL     1      -9.017  10.374  67.472  1.00  0.00    -0.138 C  
ENDROOT
BRANCH   2   3
HETATM    3  C   UNL     1      -9.922  11.313  68.260  1.00  0.00    -0.195 C  
BRANCH   3   4
HETATM    4  O   UNL     1     -10.197  10.805  69.573  1.00  0.00    -0.202 OA 
BRANCH   4   5
HETATM    5  C   UNL     1     -11.510  10.551  69.855  1.00  0.00    -0.310 C  
HETATM    6  O   UNL     1     -12.459  10.859  69.145  1.00  0.00    -0.409 OA 
BRANCH   5   7
HETATM    7  C   UNL     1     -11.626   9.765  71.152  1.00  0.00    -0.392 C  
BRANCH   7   8
HETATM    8  N   UNL     1     -11.271   8.344  70.980  1.00  0.00    -0.260 NA 
HETATM    9  C   UNL     1     -11.126   7.503  72.077  1.00  0.00    -0.247 C  
HETATM   10  C   UNL     1     -10.778   6.208  72.014  1.00  0.00    -0.233 C  
HETATM   11  I   UNL     1     -10.595   5.045  73.684  1.00  0.00    -0.373 I  
HETATM   12  C   UNL     1     -10.514   5.622  70.653  1.00  0.00    -0.270 C  
HETATM   13  C   UNL     1     -10.661   6.545  69.477  1.00  0.00    -0.270 C  
HETATM   14  O   UNL     1     -10.195   4.443  70.511  1.00  0.00    -0.178 OA 
HETATM   15  I   UNL     1     -10.309   5.859  67.583  1.00  0.00    -0.345 I  
HETATM   16  C   UNL     1     -11.022   7.814  69.721  1.00  0.00    -0.158 C  
ENDBRANCH   7   8
ENDBRANCH   5   7
ENDBRANCH   4   5
ENDBRANCH   3   4
ENDBRANCH   2   3
TORSDOF 5
ENDMDL
MODEL      161
REMARK 921   NORMALIZED FREE ENERGY PREDICTED BY IDOCK:   -3.29 KCAL/MOL
REMARK 922        TOTAL FREE ENERGY PREDICTED BY IDOCK:   -4.56 KCAL/MOL
REMARK 923 INTER-LIGAND FREE ENERGY PREDICTED BY IDOCK:   -4.15 KCAL/MOL
REMARK 924 INTRA-LIGAND FREE ENERGY PREDICTED BY IDOCK:   -0.41 KCAL/MOL
REMARK 927      BINDING AFFINITY PREDICTED BY RF-SCORE:    0.00 PKD
ROOT
HETATM    1  C   UNL     1     -12.615  10.890  71.407  1.00  0.00    -0.508 C  
HETATM    2  C   UNL     1     -13.531   9.674  71.396  1.00  0.00    -0.403 C  
ENDROOT
BRANCH   2   3
HETATM    3  C   UNL     1     -12.893   8.527  72.171  1.00  0.00    -0.369 C  
BRANCH   3   4
HETATM    4  O   UNL     1     -12.908   7.307  71.417  1.00  0.00    -0.366 OA 
BRANCH   4   5
HETATM    5  C   UNL     1     -11.786   6.531  71.509  1.00  0.00    -0.333 C  
HETATM    6  O   UNL     1     -11.435   5.910  72.504  1.00  0.00    -0.290 OA 
BRANCH   5   7
HETATM    7  C   UNL     1     -11.063   6.491  70.171  1.00  0.00    -0.351 C  
BRANCH   7   8
HETATM    8  N   UNL     1     -10.227   7.686  69.950  1.00  0.00    -0.210 NA 
HETATM    9  C   UNL     1     -10.716   8.785  69.253  1.00  0.00    -0.151 C  
HETATM   10  C   UNL     1     -10.017   9.899  68.982  1.00  0.00    -0.187 C  
HETATM   11  I   UNL     1     -10.823  11.469  67.954  1.00  0.00    -0.335 I  
HETATM   12  C   UNL     1      -8.591   9.960  69.461  1.00  0.00    -0.185 C  
HETATM   13  C   UNL     1      -8.071   8.762  70.201  1.00  0.00    -0.114 C  
HETATM   14  O   UNL     1      -7.887  10.948  69.256  1.00  0.00    -0.144 OA 
HETATM   15  I   UNL     1      -6.142   8.731  70.880  1.00  0.00    -0.058 I  
HETATM   16  C   UNL     1      -8.910   7.731  70.389  1.00  0.00    -0.146 C  
ENDBRANCH   7   8
ENDBRANCH   5   7
ENDBRANCH   4   5
ENDBRANCH   3   4
ENDBRANCH   2   3
TORSDOF 5
ENDMDL
MODEL      162
REMARK 921   NORMALIZED FREE ENERGY PREDICTED BY IDOCK:   -3.28 KCAL/MOL
REMARK 922        TOTAL FREE ENERGY PREDICTED BY IDOCK:   -4.56 KCAL/MOL
REMARK 923 INTER-LIGAND FREE ENERGY PREDICTED BY IDOCK:   -4.29 KCAL/MOL
REMARK 924 INTRA-LIGAND FREE ENERGY PREDICTED BY IDOCK:   -0.26 KCAL/MOL
REMARK 927      BINDING AFFINITY PREDICTED BY RF-SCORE:    0.00 PKD
ROOT
HETATM    1  C   UNL     1     -11.188   6.071  69.801  1.00  0.00    -0.440 C  
HETATM    2  C   UNL     1     -10.918   6.630  68.412  1.00  0.00    -0.313 C  
ENDROOT
BRANCH   2   3
HETATM    3  C   UNL     1      -9.921   7.780  68.490  1.00  0.00    -0.182 C  
BRANCH   3   4
HETATM    4  O   UNL     1     -10.057   8.677  67.379  1.00  0.00    -0.191 OA 
BRANCH   4   5
HETATM    5  C   UNL     1      -8.906   9.269  66.941  1.00  0.00    -0.127 C  
HETATM    6  O   UNL     1      -8.153   8.811  66.089  1.00  0.00    -0.103 OA 
BRANCH   5   7
HETATM    7  C   UNL     1      -8.720  10.620  67.614  1.00  0.00    -0.121 C  
BRANCH   7   8
HETATM    8  N   UNL     1      -9.798  11.568  67.276  1.00  0.00    -0.189 NA 
HETATM    9  C   UNL     1     -10.252  11.701  65.969  1.00  0.00    -0.232 C  
HETATM   10  C   UNL     1     -11.206  12.557  65.568  1.00  0.00    -0.314 C  
HETATM   11  I   UNL     1     -11.814  12.680  63.622  1.00  0.00    -0.582 I  
HETATM   12  C   UNL     1     -11.826  13.448  66.612  1.00  0.00    -0.395 C  
HETATM   13  C   UNL     1     -11.318  13.302  68.017  1.00  0.00    -0.291 C  
HETATM   14  O   UNL     1     -12.709  14.254  66.325  1.00  0.00    -0.360 OA 
HETATM   15  I   UNL     1     -12.078  14.475  69.510  1.00  0.00    -0.227 I  
HETATM   16  C   UNL     1     -10.359  12.391  68.244  1.00  0.00    -0.227 C  
ENDBRANCH   7   8
ENDBRANCH   5   7
ENDBRANCH   4   5
ENDBRANCH   3   4
ENDBRANCH   2   3
TORSDOF 5
ENDMDL
MODEL      163
REMARK 921   NORMALIZED FREE ENERGY PREDICTED BY IDOCK:   -3.27 KCAL/MOL
REMARK 922        TOTAL FREE ENERGY PREDICTED BY IDOCK:   -4.54 KCAL/MOL
REMARK 923 INTER-LIGAND FREE ENERGY PREDICTED BY IDOCK:   -4.26 KCAL/MOL
REMARK 924 INTRA-LIGAND FREE ENERGY PREDICTED BY IDOCK:   -0.28 KCAL/MOL
REMARK 927      BINDING AFFINITY PREDICTED BY RF-SCORE:    0.00 PKD
ROOT
HETATM    1  C   UNL     1     -10.522  17.421  67.446  1.00  0.00    -0.336 C  
HETATM    2  C   UNL     1     -10.116  17.265  65.987  1.00  0.00    -0.275 C  
ENDROOT
BRANCH   2   3
HETATM    3  C   UNL     1     -11.117  16.382  65.253  1.00  0.00    -0.113 C  
BRANCH   3   4
HETATM    4  O   UNL     1     -10.830  14.989  65.439  1.00  0.00    -0.319 OA 
BRANCH   4   5
HETATM    5  C   UNL     1     -11.697  14.113  64.848  1.00  0.00    -0.392 C  
HETATM    6  O   UNL     1     -12.305  14.315  63.803  1.00  0.00    -0.735 OA 
BRANCH   5   7
HETATM    7  C   UNL     1     -11.754  12.815  65.637  1.00  0.00    -0.399 C  
BRANCH   7   8
HETATM    8  N   UNL     1     -10.506  12.036  65.526  1.00  0.00    -0.259 NA 
HETATM    9  C   UNL     1     -10.221  11.296  64.385  1.00  0.00    -0.320 C  
HETATM   10  C   UNL     1      -9.127  10.538  64.211  1.00  0.00    -0.228 C  
HETATM   11  I   UNL     1      -8.789   9.488  62.492  1.00  0.00    -0.140 I  
HETATM   12  C   UNL     1      -8.134  10.477  65.341  1.00  0.00    -0.141 C  
HETATM   13  C   UNL     1      -8.460  11.271  66.573  1.00  0.00    -0.171 C  
HETATM   14  O   UNL     1      -7.105   9.810  65.257  1.00  0.00    -0.106 OA 
HETATM   15  I   UNL     1      -7.191  11.245  68.177  1.00  0.00    -0.100 I  
HETATM   16  C   UNL     1      -9.600  11.980  66.577  1.00  0.00    -0.224 C  
ENDBRANCH   7   8
ENDBRANCH   5   7
ENDBRANCH   4   5
ENDBRANCH   3   4
ENDBRANCH   2   3
TORSDOF 5
ENDMDL
MODEL      164
REMARK 921   NORMALIZED FREE ENERGY PREDICTED BY IDOCK:   -3.26 KCAL/MOL
REMARK 922        TOTAL FREE ENERGY PREDICTED BY IDOCK:   -4.52 KCAL/MOL
REMARK 923 INTER-LIGAND FREE ENERGY PREDICTED BY IDOCK:   -4.14 KCAL/MOL
REMARK 924 INTRA-LIGAND FREE ENERGY PREDICTED BY IDOCK:   -0.38 KCAL/MOL
REMARK 927      BINDING AFFINITY PREDICTED BY RF-SCORE:    0.00 PKD
ROOT
HETATM    1  C   UNL     1      -8.542   5.526  70.674  1.00  0.00    -0.130 C  
HETATM    2  C   UNL     1      -9.893   4.935  70.296  1.00  0.00    -0.306 C  
ENDROOT
BRANCH   2   3
HETATM    3  C   UNL     1     -10.555   5.782  69.217  1.00  0.00    -0.306 C  
BRANCH   3   4
HETATM    4  O   UNL     1      -9.585   6.451  68.399  1.00  0.00    -0.126 OA 
BRANCH   4   5
HETATM    5  C   UNL     1      -9.996   7.614  67.809  1.00  0.00    -0.174 C  
HETATM    6  O   UNL     1     -10.840   7.698  66.925  1.00  0.00    -0.328 OA 
BRANCH   5   7
HETATM    7  C   UNL     1      -9.306   8.805  68.455  1.00  0.00    -0.137 C  
BRANCH   7   8
HETATM    8  N   UNL     1     -10.258   9.708  69.127  1.00  0.00    -0.192 NA 
HETATM    9  C   UNL     1     -11.147   9.232  70.084  1.00  0.00    -0.230 C  
HETATM   10  C   UNL     1     -12.064   9.976  70.722  1.00  0.00    -0.327 C  
HETATM   11  I   UNL     1     -13.326   9.188  72.122  1.00  0.00    -0.541 I  
HETATM   12  C   UNL     1     -12.143  11.438  70.370  1.00  0.00    -0.384 C  
HETATM   13  C   UNL     1     -11.187  11.937  69.326  1.00  0.00    -0.242 C  
HETATM   14  O   UNL     1     -12.953  12.187  70.914  1.00  0.00    -0.154 OA 
HETATM   15  I   UNL     1     -11.221  13.901  68.757  1.00  0.00    -0.367 I  
HETATM   16  C   UNL     1     -10.330  11.054  68.790  1.00  0.00    -0.199 C  
ENDBRANCH   7   8
ENDBRANCH   5   7
ENDBRANCH   4   5
ENDBRANCH   3   4
ENDBRANCH   2   3
TORSDOF 5
ENDMDL
MODEL      165
REMARK 921   NORMALIZED FREE ENERGY PREDICTED BY IDOCK:   -3.24 KCAL/MOL
REMARK 922        TOTAL FREE ENERGY PREDICTED BY IDOCK:   -4.50 KCAL/MOL
REMARK 923 INTER-LIGAND FREE ENERGY PREDICTED BY IDOCK:   -4.20 KCAL/MOL
REMARK 924 INTRA-LIGAND FREE ENERGY PREDICTED BY IDOCK:   -0.31 KCAL/MOL
REMARK 927      BINDING AFFINITY PREDICTED BY RF-SCORE:    0.00 PKD
ROOT
HETATM    1  C   UNL     1     -13.372  12.193  71.963  1.00  0.00    -0.470 C  
HETATM    2  C   UNL     1     -12.694  11.069  71.191  1.00  0.00    -0.521 C  
ENDROOT
BRANCH   2   3
HETATM    3  C   UNL     1     -13.030   9.722  71.819  1.00  0.00    -0.438 C  
BRANCH   3   4
HETATM    4  O   UNL     1     -12.255   8.661  71.243  1.00  0.00    -0.294 OA 
BRANCH   4   5
HETATM    5  C   UNL     1     -12.758   7.399  71.396  1.00  0.00    -0.369 C  
HETATM    6  O   UNL     1     -13.909   7.061  71.148  1.00  0.00    -0.246 OA 
BRANCH   5   7
HETATM    7  C   UNL     1     -11.663   6.449  71.857  1.00  0.00    -0.328 C  
BRANCH   7   8
HETATM    8  N   UNL     1     -10.553   6.362  70.890  1.00  0.00    -0.227 NA 
HETATM    9  C   UNL     1      -9.258   6.715  71.251  1.00  0.00    -0.155 C  
HETATM   10  C   UNL     1      -8.196   6.693  70.430  1.00  0.00    -0.125 C  
HETATM   11  I   UNL     1      -6.324   7.224  71.052  1.00  0.00    -0.035 I  
HETATM   12  C   UNL     1      -8.425   6.262  69.005  1.00  0.00    -0.120 C  
HETATM   13  C   UNL     1      -9.831   5.897  68.625  1.00  0.00    -0.136 C  
HETATM   14  O   UNL     1      -7.503   6.212  68.193  1.00  0.00    -0.086 OA 
HETATM   15  I   UNL     1     -10.259   5.316  66.711  1.00  0.00    -0.310 I  
HETATM   16  C   UNL     1     -10.775   5.971  69.576  1.00  0.00    -0.335 C  
ENDBRANCH   7   8
ENDBRANCH   5   7
ENDBRANCH   4   5
ENDBRANCH   3   4
ENDBRANCH   2   3
TORSDOF 5
ENDMDL
MODEL      166
REMARK 921   NORMALIZED FREE ENERGY PREDICTED BY IDOCK:   -3.23 KCAL/MOL
REMARK 922        TOTAL FREE ENERGY PREDICTED BY IDOCK:   -4.49 KCAL/MOL
REMARK 923 INTER-LIGAND FREE ENERGY PREDICTED BY IDOCK:   -4.00 KCAL/MOL
REMARK 924 INTRA-LIGAND FREE ENERGY PREDICTED BY IDOCK:   -0.49 KCAL/MOL
REMARK 927      BINDING AFFINITY PREDICTED BY RF-SCORE:    0.00 PKD
ROOT
HETATM    1  C   UNL     1      -9.120   5.447  71.347  1.00  0.00    -0.163 C  
HETATM    2  C   UNL     1      -9.760   6.100  72.564  1.00  0.00    -0.166 C  
ENDROOT
BRANCH   2   3
HETATM    3  C   UNL     1     -11.277   5.997  72.482  1.00  0.00    -0.290 C  
BRANCH   3   4
HETATM    4  O   UNL     1     -11.911   7.243  72.807  1.00  0.00    -0.165 OA 
BRANCH   4   5
HETATM    5  C   UNL     1     -12.587   7.855  71.789  1.00  0.00    -0.328 C  
HETATM    6  O   UNL     1     -13.333   7.294  70.996  1.00  0.00    -0.268 OA 
BRANCH   5   7
HETATM    7  C   UNL     1     -12.337   9.355  71.819  1.00  0.00    -0.394 C  
BRANCH   7   8
HETATM    8  N   UNL     1     -11.344   9.778  70.814  1.00  0.00    -0.314 NA 
HETATM    9  C   UNL     1     -10.039   9.302  70.849  1.00  0.00    -0.302 C  
HETATM   10  C   UNL     1      -9.067   9.655  69.994  1.00  0.00    -0.237 C  
HETATM   11  I   UNL     1      -7.175   8.895  70.120  1.00  0.00    -0.087 I  
HETATM   12  C   UNL     1      -9.412  10.651  68.919  1.00  0.00    -0.192 C  
HETATM   13  C   UNL     1     -10.821  11.167  68.900  1.00  0.00    -0.216 C  
HETATM   14  O   UNL     1      -8.577  11.021  68.095  1.00  0.00    -0.128 OA 
HETATM   15  I   UNL     1     -11.393  12.538  67.493  1.00  0.00    -0.434 I  
HETATM   16  C   UNL     1     -11.670  10.703  69.830  1.00  0.00    -0.317 C  
ENDBRANCH   7   8
ENDBRANCH   5   7
ENDBRANCH   4   5
ENDBRANCH   3   4
ENDBRANCH   2   3
TORSDOF 5
ENDMDL
MODEL      167
REMARK 921   NORMALIZED FREE ENERGY PREDICTED BY IDOCK:   -3.23 KCAL/MOL
REMARK 922        TOTAL FREE ENERGY PREDICTED BY IDOCK:   -4.48 KCAL/MOL
REMARK 923 INTER-LIGAND FREE ENERGY PREDICTED BY IDOCK:   -4.10 KCAL/MOL
REMARK 924 INTRA-LIGAND FREE ENERGY PREDICTED BY IDOCK:   -0.39 KCAL/MOL
REMARK 927      BINDING AFFINITY PREDICTED BY RF-SCORE:    0.00 PKD
ROOT
HETATM    1  C   UNL     1      -8.022   5.354  70.670  1.00  0.00    -0.105 C  
HETATM    2  C   UNL     1      -9.457   4.856  70.767  1.00  0.00    -0.232 C  
ENDROOT
BRANCH   2   3
HETATM    3  C   UNL     1     -10.317   5.513  69.694  1.00  0.00    -0.289 C  
BRANCH   3   4
HETATM    4  O   UNL     1      -9.761   5.329  68.384  1.00  0.00    -0.128 OA 
BRANCH   4   5
HETATM    5  C   UNL     1     -10.153   6.231  67.434  1.00  0.00    -0.156 C  
HETATM    6  O   UNL     1     -11.188   6.168  66.782  1.00  0.00    -0.279 OA 
BRANCH   5   7
HETATM    7  C   UNL     1      -9.150   7.371  67.346  1.00  0.00    -0.122 C  
BRANCH   7   8
HETATM    8  N   UNL     1      -9.806   8.688  67.243  1.00  0.00    -0.180 NA 
HETATM    9  C   UNL     1     -10.493   9.234  68.321  1.00  0.00    -0.215 C  
HETATM   10  C   UNL     1     -11.141  10.410  68.306  1.00  0.00    -0.281 C  
HETATM   11  I   UNL     1     -12.121  11.136  69.945  1.00  0.00    -0.361 I  
HETATM   12  C   UNL     1     -11.130  11.195  67.022  1.00  0.00    -0.273 C  
HETATM   13  C   UNL     1     -10.396  10.588  65.862  1.00  0.00    -0.206 C  
HETATM   14  O   UNL     1     -11.697  12.283  66.930  1.00  0.00    -0.441 OA 
HETATM   15  I   UNL     1     -10.334  11.561  64.063  1.00  0.00    -0.535 I  
HETATM   16  C   UNL     1      -9.798   9.402  66.052  1.00  0.00    -0.296 C  
ENDBRANCH   7   8
ENDBRANCH   5   7
ENDBRANCH   4   5
ENDBRANCH   3   4
ENDBRANCH   2   3
TORSDOF 5
ENDMDL
MODEL      168
REMARK 921   NORMALIZED FREE ENERGY PREDICTED BY IDOCK:   -3.22 KCAL/MOL
REMARK 922        TOTAL FREE ENERGY PREDICTED BY IDOCK:   -4.47 KCAL/MOL
REMARK 923 INTER-LIGAND FREE ENERGY PREDICTED BY IDOCK:   -4.05 KCAL/MOL
REMARK 924 INTRA-LIGAND FREE ENERGY PREDICTED BY IDOCK:   -0.42 KCAL/MOL
REMARK 927      BINDING AFFINITY PREDICTED BY RF-SCORE:    0.00 PKD
ROOT
HETATM    1  C   UNL     1      -7.928   7.996  65.020  1.00  0.00    -0.126 C  
HETATM    2  C   UNL     1      -8.963   8.197  66.118  1.00  0.00    -0.218 C  
ENDROOT
BRANCH   2   3
HETATM    3  C   UNL     1      -9.608   9.571  65.989  1.00  0.00    -0.251 C  
BRANCH   3   4
HETATM    4  O   UNL     1     -10.777   9.687  66.813  1.00  0.00    -0.180 OA 
BRANCH   4   5
HETATM    5  C   UNL     1     -10.985  10.909  67.389  1.00  0.00    -0.293 C  
HETATM    6  O   UNL     1     -11.810  11.735  67.018  1.00  0.00    -0.599 OA 
BRANCH   5   7
HETATM    7  C   UNL     1     -10.091  11.075  68.608  1.00  0.00    -0.197 C  
BRANCH   7   8
HETATM    8  N   UNL     1     -10.295  10.006  69.604  1.00  0.00    -0.231 NA 
HETATM    9  C   UNL     1      -9.303   9.069  69.864  1.00  0.00    -0.173 C  
HETATM   10  C   UNL     1      -9.414   8.049  70.730  1.00  0.00    -0.161 C  
HETATM   11  I   UNL     1      -7.896   6.721  71.052  1.00  0.00    -0.103 I  
HETATM   12  C   UNL     1     -10.717   7.903  71.470  1.00  0.00    -0.227 C  
HETATM   13  C   UNL     1     -11.785   8.914  71.171  1.00  0.00    -0.298 C  
HETATM   14  O   UNL     1     -10.895   6.997  72.284  1.00  0.00    -0.217 OA 
HETATM   15  I   UNL     1     -13.600   8.798  72.106  1.00  0.00    -0.495 I  
HETATM   16  C   UNL     1     -11.503   9.874  70.276  1.00  0.00    -0.281 C  
ENDBRANCH   7   8
ENDBRANCH   5   7
ENDBRANCH   4   5
ENDBRANCH   3   4
ENDBRANCH   2   3
TORSDOF 5
ENDMDL
MODEL      169
REMARK 921   NORMALIZED FREE ENERGY PREDICTED BY IDOCK:   -3.22 KCAL/MOL
REMARK 922        TOTAL FREE ENERGY PREDICTED BY IDOCK:   -4.47 KCAL/MOL
REMARK 923 INTER-LIGAND FREE ENERGY PREDICTED BY IDOCK:   -4.19 KCAL/MOL
REMARK 924 INTRA-LIGAND FREE ENERGY PREDICTED BY IDOCK:   -0.28 KCAL/MOL
REMARK 927      BINDING AFFINITY PREDICTED BY RF-SCORE:    0.00 PKD
ROOT
HETATM    1  C   UNL     1      -6.454  11.872  69.515  1.00  0.00    -0.113 C  
HETATM    2  C   UNL     1      -7.046  11.626  68.134  1.00  0.00    -0.078 C  
ENDROOT
BRANCH   2   3
HETATM    3  C   UNL     1      -8.043  10.475  68.185  1.00  0.00    -0.113 C  
BRANCH   3   4
HETATM    4  O   UNL     1      -9.372  10.937  68.467  1.00  0.00    -0.166 OA 
BRANCH   4   5
HETATM    5  C   UNL     1     -10.309  10.692  67.502  1.00  0.00    -0.214 C  
HETATM    6  O   UNL     1     -10.133  10.007  66.502  1.00  0.00    -0.214 OA 
BRANCH   5   7
HETATM    7  C   UNL     1     -11.633  11.337  67.880  1.00  0.00    -0.256 C  
BRANCH   7   8
HETATM    8  N   UNL     1     -11.491  12.773  68.185  1.00  0.00    -0.291 NA 
HETATM    9  C   UNL     1     -10.861  13.637  67.296  1.00  0.00    -0.284 C  
HETATM   10  C   UNL     1     -10.663  14.948  67.505  1.00  0.00    -0.276 C  
HETATM   11  I   UNL     1      -9.730  16.142  66.136  1.00  0.00    -0.367 I  
HETATM   12  C   UNL     1     -11.153  15.528  68.805  1.00  0.00    -0.291 C  
HETATM   13  C   UNL     1     -11.820  14.582  69.762  1.00  0.00    -0.315 C  
HETATM   14  O   UNL     1     -11.014  16.721  69.069  1.00  0.00    -0.304 OA 
HETATM   15  I   UNL     1     -12.507  15.260  71.565  1.00  0.00    -0.604 I  
HETATM   16  C   UNL     1     -11.939  13.298  69.390  1.00  0.00    -0.301 C  
ENDBRANCH   7   8
ENDBRANCH   5   7
ENDBRANCH   4   5
ENDBRANCH   3   4
ENDBRANCH   2   3
TORSDOF 5
ENDMDL
MODEL      170
REMARK 921   NORMALIZED FREE ENERGY PREDICTED BY IDOCK:   -3.21 KCAL/MOL
REMARK 922        TOTAL FREE ENERGY PREDICTED BY IDOCK:   -4.46 KCAL/MOL
REMARK 923 INTER-LIGAND FREE ENERGY PREDICTED BY IDOCK:   -4.04 KCAL/MOL
REMARK 924 INTRA-LIGAND FREE ENERGY PREDICTED BY IDOCK:   -0.42 KCAL/MOL
REMARK 927      BINDING AFFINITY PREDICTED BY RF-SCORE:    0.00 PKD
ROOT
HETATM    1  C   UNL     1      -9.745  10.456  65.366  1.00  0.00    -0.325 C  
HETATM    2  C   UNL     1      -8.880  11.464  66.108  1.00  0.00    -0.186 C  
ENDROOT
BRANCH   2   3
HETATM    3  C   UNL     1      -9.753  12.529  66.760  1.00  0.00    -0.234 C  
BRANCH   3   4
HETATM    4  O   UNL     1     -10.049  12.208  68.126  1.00  0.00    -0.194 OA 
BRANCH   4   5
HETATM    5  C   UNL     1     -11.349  11.882  68.397  1.00  0.00    -0.276 C  
HETATM    6  O   UNL     1     -12.278  11.957  67.602  1.00  0.00    -0.510 OA 
BRANCH   5   7
HETATM    7  C   UNL     1     -11.472  11.345  69.814  1.00  0.00    -0.300 C  
BRANCH   7   8
HETATM    8  N   UNL     1     -10.892   9.996  69.955  1.00  0.00    -0.265 NA 
HETATM    9  C   UNL     1     -10.917   9.090  68.901  1.00  0.00     0.054 C  
HETATM   10  C   UNL     1     -10.439   7.837  68.950  1.00  0.00    -0.194 C  
HETATM   11  I   UNL     1     -10.515   6.576  67.345  1.00  0.00    -0.470 I  
HETATM   12  C   UNL     1      -9.838   7.371  70.250  1.00  0.00    -0.187 C  
HETATM   13  C   UNL     1      -9.828   8.355  71.384  1.00  0.00    -0.197 C  
HETATM   14  O   UNL     1      -9.375   6.238  70.373  1.00  0.00    -0.159 OA 
HETATM   15  I   UNL     1      -9.052   7.821  73.199  1.00  0.00    -0.338 I  
HETATM   16  C   UNL     1     -10.346   9.573  71.160  1.00  0.00    -0.260 C  
ENDBRANCH   7   8
ENDBRANCH   5   7
ENDBRANCH   4   5
ENDBRANCH   3   4
ENDBRANCH   2   3
TORSDOF 5
ENDMDL
MODEL      171
REMARK 921   NORMALIZED FREE ENERGY PREDICTED BY IDOCK:   -3.20 KCAL/MOL
REMARK 922        TOTAL FREE ENERGY PREDICTED BY IDOCK:   -4.45 KCAL/MOL
REMARK 923 INTER-LIGAND FREE ENERGY PREDICTED BY IDOCK:   -4.12 KCAL/MOL
REMARK 924 INTRA-LIGAND FREE ENERGY PREDICTED BY IDOCK:   -0.34 KCAL/MOL
REMARK 927      BINDING AFFINITY PREDICTED BY RF-SCORE:    0.00 PKD
ROOT
HETATM    1  C   UNL     1     -12.872  13.901  65.608  1.00  0.00    -0.467 C  
HETATM    2  C   UNL     1     -12.015  14.331  66.790  1.00  0.00    -0.462 C  
ENDROOT
BRANCH   2   3
HETATM    3  C   UNL     1     -12.023  13.253  67.867  1.00  0.00    -0.309 C  
BRANCH   3   4
HETATM    4  O   UNL     1     -11.894  11.940  67.303  1.00  0.00    -0.576 OA 
BRANCH   4   5
HETATM    5  C   UNL     1     -10.761  11.253  67.637  1.00  0.00    -0.226 C  
HETATM    6  O   UNL     1      -9.766  11.740  68.160  1.00  0.00    -0.180 OA 
BRANCH   5   7
HETATM    7  C   UNL     1     -10.934   9.773  67.331  1.00  0.00    -0.106 C  
BRANCH   7   8
HETATM    8  N   UNL     1      -9.960   9.289  66.335  1.00  0.00    -0.277 NA 
HETATM    9  C   UNL     1      -9.167   8.176  66.589  1.00  0.00    -0.180 C  
HETATM   10  C   UNL     1      -8.238   7.685  65.754  1.00  0.00    -0.133 C  
HETATM   11  I   UNL     1      -7.122   6.036  66.210  1.00  0.00    -0.070 I  
HETATM   12  C   UNL     1      -8.030   8.399  64.444  1.00  0.00    -0.148 C  
HETATM   13  C   UNL     1      -8.884   9.608  64.188  1.00  0.00    -0.226 C  
HETATM   14  O   UNL     1      -7.202   8.009  63.624  1.00  0.00    -0.084 OA 
HETATM   15  I   UNL     1      -8.672  10.665  62.450  1.00  0.00    -0.365 I  
HETATM   16  C   UNL     1      -9.770   9.959  65.134  1.00  0.00    -0.306 C  
ENDBRANCH   7   8
ENDBRANCH   5   7
ENDBRANCH   4   5
ENDBRANCH   3   4
ENDBRANCH   2   3
TORSDOF 5
ENDMDL
MODEL      172
REMARK 921   NORMALIZED FREE ENERGY PREDICTED BY IDOCK:   -3.20 KCAL/MOL
REMARK 922        TOTAL FREE ENERGY PREDICTED BY IDOCK:   -4.44 KCAL/MOL
REMARK 923 INTER-LIGAND FREE ENERGY PREDICTED BY IDOCK:   -4.27 KCAL/MOL
REMARK 924 INTRA-LIGAND FREE ENERGY PREDICTED BY IDOCK:   -0.17 KCAL/MOL
REMARK 927      BINDING AFFINITY PREDICTED BY RF-SCORE:    0.00 PKD
ROOT
HETATM    1  C   UNL     1      -8.680   5.116  65.140  1.00  0.00    -0.151 C  
HETATM    2  C   UNL     1      -8.086   6.507  65.311  1.00  0.00    -0.133 C  
ENDROOT
BRANCH   2   3
HETATM    3  C   UNL     1      -8.169   6.939  66.770  1.00  0.00    -0.114 C  
BRANCH   3   4
HETATM    4  O   UNL     1      -8.780   8.230  66.905  1.00  0.00    -0.128 OA 
BRANCH   4   5
HETATM    5  C   UNL     1     -10.088   8.235  67.303  1.00  0.00    -0.247 C  
HETATM    6  O   UNL     1     -10.974   7.530  66.835  1.00  0.00    -0.292 OA 
BRANCH   5   7
HETATM    7  C   UNL     1     -10.281   9.197  68.465  1.00  0.00    -0.198 C  
BRANCH   7   8
HETATM    8  N   UNL     1     -10.681  10.544  68.017  1.00  0.00    -0.224 NA 
HETATM    9  C   UNL     1     -11.070  11.518  68.930  1.00  0.00    -0.232 C  
HETATM   10  C   UNL     1     -11.475  12.756  68.608  1.00  0.00    -0.303 C  
HETATM   11  I   UNL     1     -12.023  14.126  70.022  1.00  0.00    -0.399 I  
HETATM   12  C   UNL     1     -11.523  13.118  67.147  1.00  0.00    -0.334 C  
HETATM   13  C   UNL     1     -11.113  12.053  66.172  1.00  0.00    -0.322 C  
HETATM   14  O   UNL     1     -11.879  14.234  66.773  1.00  0.00    -0.393 OA 
HETATM   15  I   UNL     1     -11.157  12.429  64.162  1.00  0.00    -0.573 I  
HETATM   16  C   UNL     1     -10.729  10.866  66.667  1.00  0.00    -0.230 C  
ENDBRANCH   7   8
ENDBRANCH   5   7
ENDBRANCH   4   5
ENDBRANCH   3   4
ENDBRANCH   2   3
TORSDOF 5
ENDMDL
MODEL      173
REMARK 921   NORMALIZED FREE ENERGY PREDICTED BY IDOCK:   -3.18 KCAL/MOL
REMARK 922        TOTAL FREE ENERGY PREDICTED BY IDOCK:   -4.43 KCAL/MOL
REMARK 923 INTER-LIGAND FREE ENERGY PREDICTED BY IDOCK:   -4.05 KCAL/MOL
REMARK 924 INTRA-LIGAND FREE ENERGY PREDICTED BY IDOCK:   -0.37 KCAL/MOL
REMARK 927      BINDING AFFINITY PREDICTED BY RF-SCORE:    0.00 PKD
ROOT
HETATM    1  C   UNL     1     -12.341  14.417  64.247  1.00  0.00    -0.402 C  
HETATM    2  C   UNL     1     -12.533  13.593  65.513  1.00  0.00    -0.544 C  
ENDROOT
BRANCH   2   3
HETATM    3  C   UNL     1     -11.790  14.235  66.678  1.00  0.00    -0.421 C  
BRANCH   3   4
HETATM    4  O   UNL     1     -12.085  13.581  67.920  1.00  0.00    -0.346 OA 
BRANCH   4   5
HETATM    5  C   UNL     1     -11.491  12.365  68.113  1.00  0.00    -0.318 C  
HETATM    6  O   UNL     1     -12.079  11.293  68.191  1.00  0.00    -0.635 OA 
BRANCH   5   7
HETATM    7  C   UNL     1      -9.978  12.521  68.152  1.00  0.00    -0.224 C  
BRANCH   7   8
HETATM    8  N   UNL     1      -9.280  11.357  67.573  1.00  0.00    -0.159 NA 
HETATM    9  C   UNL     1      -9.334  11.093  66.210  1.00  0.00    -0.195 C  
HETATM   10  C   UNL     1      -8.755  10.044  65.604  1.00  0.00    -0.155 C  
HETATM   11  I   UNL     1      -8.884   9.740  63.589  1.00  0.00    -0.199 I  
HETATM   12  C   UNL     1      -7.994   9.074  66.468  1.00  0.00    -0.103 C  
HETATM   13  C   UNL     1      -7.954   9.364  67.941  1.00  0.00    -0.092 C  
HETATM   14  O   UNL     1      -7.431   8.091  65.988  1.00  0.00    -0.075 OA 
HETATM   15  I   UNL     1      -6.964   8.101  69.210  1.00  0.00    -0.057 I  
HETATM   16  C   UNL     1      -8.587  10.463  68.379  1.00  0.00    -0.128 C  
ENDBRANCH   7   8
ENDBRANCH   5   7
ENDBRANCH   4   5
ENDBRANCH   3   4
ENDBRANCH   2   3
TORSDOF 5
ENDMDL
MODEL      174
REMARK 921   NORMALIZED FREE ENERGY PREDICTED BY IDOCK:   -3.16 KCAL/MOL
REMARK 922        TOTAL FREE ENERGY PREDICTED BY IDOCK:   -4.39 KCAL/MOL
REMARK 923 INTER-LIGAND FREE ENERGY PREDICTED BY IDOCK:   -4.42 KCAL/MOL
REMARK 924 INTRA-LIGAND FREE ENERGY PREDICTED BY IDOCK:    0.03 KCAL/MOL
REMARK 927      BINDING AFFINITY PREDICTED BY RF-SCORE:    0.00 PKD
ROOT
HETATM    1  C   UNL     1     -13.743  13.877  72.576  1.00  0.00    -0.665 C  
HETATM    2  C   UNL     1     -13.067  14.875  73.505  1.00  0.00    -0.380 C  
ENDROOT
BRANCH   2   3
HETATM    3  C   UNL     1     -12.234  15.864  72.699  1.00  0.00    -0.502 C  
BRANCH   3   4
HETATM    4  O   UNL     1     -11.214  15.201  71.940  1.00  0.00    -0.397 OA 
BRANCH   4   5
HETATM    5  C   UNL     1     -11.323  15.294  70.580  1.00  0.00    -0.313 C  
HETATM    6  O   UNL     1     -12.359  15.515  69.966  1.00  0.00    -0.369 OA 
BRANCH   5   7
HETATM    7  C   UNL     1      -9.955  15.149  69.932  1.00  0.00    -0.089 C  
BRANCH   7   8
HETATM    8  N   UNL     1      -9.779  16.058  68.784  1.00  0.00    -0.216 NA 
HETATM    9  C   UNL     1     -10.368  15.784  67.555  1.00  0.00    -0.280 C  
HETATM   10  C   UNL     1     -10.238  16.539  66.453  1.00  0.00    -0.316 C  
HETATM   11  I   UNL     1     -11.147  16.059  64.688  1.00  0.00     0.416 I  
HETATM   12  C   UNL     1      -9.381  17.774  66.551  1.00  0.00    -0.279 C  
HETATM   13  C   UNL     1      -8.741  18.052  67.880  1.00  0.00    -0.257 C  
HETATM   14  O   UNL     1      -9.217  18.520  65.586  1.00  0.00    -0.284 OA 
HETATM   15  I   UNL     1      -7.543  19.692  68.120  1.00  0.00    -0.305 I  
HETATM   16  C   UNL     1      -8.981  17.191  68.881  1.00  0.00    -0.189 C  
ENDBRANCH   7   8
ENDBRANCH   5   7
ENDBRANCH   4   5
ENDBRANCH   3   4
ENDBRANCH   2   3
TORSDOF 5
ENDMDL
MODEL      175
REMARK 921   NORMALIZED FREE ENERGY PREDICTED BY IDOCK:   -3.14 KCAL/MOL
REMARK 922        TOTAL FREE ENERGY PREDICTED BY IDOCK:   -4.38 KCAL/MOL
REMARK 923 INTER-LIGAND FREE ENERGY PREDICTED BY IDOCK:   -4.04 KCAL/MOL
REMARK 924 INTRA-LIGAND FREE ENERGY PREDICTED BY IDOCK:   -0.33 KCAL/MOL
REMARK 927      BINDING AFFINITY PREDICTED BY RF-SCORE:    0.00 PKD
ROOT
HETATM    1  C   UNL     1     -11.304  15.342  67.602  1.00  0.00    -0.292 C  
HETATM    2  C   UNL     1     -11.098  15.193  66.102  1.00  0.00    -0.311 C  
ENDROOT
BRANCH   2   3
HETATM    3  C   UNL     1     -10.086  14.090  65.816  1.00  0.00    -0.327 C  
BRANCH   3   4
HETATM    4  O   UNL     1     -10.711  12.936  65.236  1.00  0.00    -0.284 OA 
BRANCH   4   5
HETATM    5  C   UNL     1     -11.042  11.934  66.104  1.00  0.00    -0.326 C  
HETATM    6  O   UNL     1     -11.920  11.996  66.956  1.00  0.00    -0.609 OA 
BRANCH   5   7
HETATM    7  C   UNL     1     -10.209  10.694  65.817  1.00  0.00    -0.252 C  
BRANCH   7   8
HETATM    8  N   UNL     1      -9.703  10.062  67.050  1.00  0.00    -0.174 NA 
HETATM    9  C   UNL     1      -8.584  10.561  67.706  1.00  0.00    -0.118 C  
HETATM   10  C   UNL     1      -8.040  10.032  68.814  1.00  0.00    -0.106 C  
HETATM   11  I   UNL     1      -6.394  10.840  69.714  1.00  0.00    -0.138 I  
HETATM   12  C   UNL     1      -8.686   8.798  69.387  1.00  0.00    -0.142 C  
HETATM   13  C   UNL     1      -9.886   8.262  68.661  1.00  0.00    -0.176 C  
HETATM   14  O   UNL     1      -8.250   8.258  70.402  1.00  0.00    -0.107 OA 
HETATM   15  I   UNL     1     -10.830   6.580  69.342  1.00  0.00    -0.417 I  
HETATM   16  C   UNL     1     -10.301   8.919  67.567  1.00  0.00    -0.263 C  
ENDBRANCH   7   8
ENDBRANCH   5   7
ENDBRANCH   4   5
ENDBRANCH   3   4
ENDBRANCH   2   3
TORSDOF 5
ENDMDL
MODEL      176
REMARK 921   NORMALIZED FREE ENERGY PREDICTED BY IDOCK:   -3.14 KCAL/MOL
REMARK 922        TOTAL FREE ENERGY PREDICTED BY IDOCK:   -4.37 KCAL/MOL
REMARK 923 INTER-LIGAND FREE ENERGY PREDICTED BY IDOCK:   -3.88 KCAL/MOL
REMARK 924 INTRA-LIGAND FREE ENERGY PREDICTED BY IDOCK:   -0.48 KCAL/MOL
REMARK 927      BINDING AFFINITY PREDICTED BY RF-SCORE:    0.00 PKD
ROOT
HETATM    1  C   UNL     1     -11.238   9.262  71.189  1.00  0.00    -0.413 C  
HETATM    2  C   UNL     1     -12.390  10.190  71.551  1.00  0.00    -0.505 C  
ENDROOT
BRANCH   2   3
HETATM    3  C   UNL     1     -12.527  11.292  70.507  1.00  0.00    -0.310 C  
BRANCH   3   4
HETATM    4  O   UNL     1     -12.241  10.808  69.186  1.00  0.00    -0.387 OA 
BRANCH   4   5
HETATM    5  C   UNL     1     -11.516  11.646  68.385  1.00  0.00    -0.297 C  
HETATM    6  O   UNL     1     -11.276  12.823  68.624  1.00  0.00    -0.247 OA 
BRANCH   5   7
HETATM    7  C   UNL     1     -10.987  10.889  67.177  1.00  0.00    -0.272 C  
BRANCH   7   8
HETATM    8  N   UNL     1     -10.164   9.727  67.559  1.00  0.00    -0.204 NA 
HETATM    9  C   UNL     1     -10.515   8.439  67.171  1.00  0.00    -0.310 C  
HETATM   10  C   UNL     1      -9.842   7.325  67.498  1.00  0.00    -0.155 C  
HETATM   11  I   UNL     1     -10.431   5.472  66.874  1.00  0.00    -0.243 I  
HETATM   12  C   UNL     1      -8.616   7.479  68.359  1.00  0.00    -0.124 C  
HETATM   13  C   UNL     1      -8.255   8.873  68.782  1.00  0.00    -0.115 C  
HETATM   14  O   UNL     1      -7.943   6.507  68.697  1.00  0.00    -0.111 OA 
HETATM   15  I   UNL     1      -6.620   9.195  69.968  1.00  0.00    -0.065 I  
HETATM   16  C   UNL     1      -9.039   9.877  68.360  1.00  0.00    -0.123 C  
ENDBRANCH   7   8
ENDBRANCH   5   7
ENDBRANCH   4   5
ENDBRANCH   3   4
ENDBRANCH   2   3
TORSDOF 5
ENDMDL
MODEL      177
REMARK 921   NORMALIZED FREE ENERGY PREDICTED BY IDOCK:   -3.14 KCAL/MOL
REMARK 922        TOTAL FREE ENERGY PREDICTED BY IDOCK:   -4.37 KCAL/MOL
REMARK 923 INTER-LIGAND FREE ENERGY PREDICTED BY IDOCK:   -3.99 KCAL/MOL
REMARK 924 INTRA-LIGAND FREE ENERGY PREDICTED BY IDOCK:   -0.38 KCAL/MOL
REMARK 927      BINDING AFFINITY PREDICTED BY RF-SCORE:    0.00 PKD
ROOT
HETATM    1  C   UNL     1      -8.446   9.752  63.822  1.00  0.00    -0.186 C  
HETATM    2  C   UNL     1      -9.607  10.733  63.746  1.00  0.00    -0.339 C  
ENDROOT
BRANCH   2   3
HETATM    3  C   UNL     1     -10.177  10.983  65.137  1.00  0.00    -0.291 C  
BRANCH   3   4
HETATM    4  O   UNL     1      -9.171  11.458  66.043  1.00  0.00    -0.206 OA 
BRANCH   4   5
HETATM    5  C   UNL     1      -9.607  12.280  67.045  1.00  0.00    -0.208 C  
HETATM    6  O   UNL     1      -8.899  13.034  67.701  1.00  0.00    -0.169 OA 
BRANCH   5   7
HETATM    7  C   UNL     1     -11.118  12.177  67.190  1.00  0.00    -0.291 C  
BRANCH   7   8
HETATM    8  N   UNL     1     -11.523  11.725  68.534  1.00  0.00    -0.269 NA 
HETATM    9  C   UNL     1     -11.383  10.396  68.917  1.00  0.00    -0.219 C  
HETATM   10  C   UNL     1     -11.751   9.894  70.106  1.00  0.00    -0.174 C  
HETATM   11  I   UNL     1     -11.500   7.923  70.583  1.00  0.00    -0.083 I  
HETATM   12  C   UNL     1     -12.371  10.839  71.100  1.00  0.00    -0.393 C  
HETATM   13  C   UNL     1     -12.529  12.269  70.669  1.00  0.00    -0.236 C  
HETATM   14  O   UNL     1     -12.730  10.457  72.212  1.00  0.00    -0.259 OA 
HETATM   15  I   UNL     1     -13.377  13.635  71.934  1.00  0.00    -0.489 I  
HETATM   16  C   UNL     1     -12.102  12.603  69.441  1.00  0.00    -0.179 C  
ENDBRANCH   7   8
ENDBRANCH   5   7
ENDBRANCH   4   5
ENDBRANCH   3   4
ENDBRANCH   2   3
TORSDOF 5
ENDMDL
MODEL      178
REMARK 921   NORMALIZED FREE ENERGY PREDICTED BY IDOCK:   -3.13 KCAL/MOL
REMARK 922        TOTAL FREE ENERGY PREDICTED BY IDOCK:   -4.36 KCAL/MOL
REMARK 923 INTER-LIGAND FREE ENERGY PREDICTED BY IDOCK:   -4.07 KCAL/MOL
REMARK 924 INTRA-LIGAND FREE ENERGY PREDICTED BY IDOCK:   -0.29 KCAL/MOL
REMARK 927      BINDING AFFINITY PREDICTED BY RF-SCORE:    0.00 PKD
ROOT
HETATM    1  C   UNL     1     -11.168  15.125  67.787  1.00  0.00    -0.327 C  
HETATM    2  C   UNL     1     -10.464  13.798  68.030  1.00  0.00    -0.245 C  
ENDROOT
BRANCH   2   3
HETATM    3  C   UNL     1     -10.729  12.840  66.875  1.00  0.00    -0.253 C  
BRANCH   3   4
HETATM    4  O   UNL     1     -11.920  12.070  67.088  1.00  0.00    -0.601 OA 
BRANCH   4   5
HETATM    5  C   UNL     1     -11.899  11.215  68.154  1.00  0.00    -0.164 C  
HETATM    6  O   UNL     1     -12.572  11.336  69.171  1.00  0.00    -0.320 OA 
BRANCH   5   7
HETATM    7  C   UNL     1     -10.968  10.046  67.872  1.00  0.00    -0.252 C  
BRANCH   7   8
HETATM    8  N   UNL     1     -10.122   9.711  69.033  1.00  0.00    -0.178 NA 
HETATM    9  C   UNL     1      -8.798  10.128  69.100  1.00  0.00    -0.175 C  
HETATM   10  C   UNL     1      -7.951   9.845  70.102  1.00  0.00    -0.162 C  
HETATM   11  I   UNL     1      -6.019  10.507  70.118  1.00  0.00    -0.125 I  
HETATM   12  C   UNL     1      -8.471   9.004  71.238  1.00  0.00    -0.133 C  
HETATM   13  C   UNL     1      -9.899   8.549  71.147  1.00  0.00    -0.206 C  
HETATM   14  O   UNL     1      -7.758   8.705  72.195  1.00  0.00    -0.258 OA 
HETATM   15  I   UNL     1     -10.703   7.387  72.625  1.00  0.00    -0.447 I  
HETATM   16  C   UNL     1     -10.608   8.928  70.073  1.00  0.00    -0.220 C  
ENDBRANCH   7   8
ENDBRANCH   5   7
ENDBRANCH   4   5
ENDBRANCH   3   4
ENDBRANCH   2   3
TORSDOF 5
ENDMDL
MODEL      179
REMARK 921   NORMALIZED FREE ENERGY PREDICTED BY IDOCK:   -3.13 KCAL/MOL
REMARK 922        TOTAL FREE ENERGY PREDICTED BY IDOCK:   -4.36 KCAL/MOL
REMARK 923 INTER-LIGAND FREE ENERGY PREDICTED BY IDOCK:   -4.17 KCAL/MOL
REMARK 924 INTRA-LIGAND FREE ENERGY PREDICTED BY IDOCK:   -0.19 KCAL/MOL
REMARK 927      BINDING AFFINITY PREDICTED BY RF-SCORE:    0.00 PKD
ROOT
HETATM    1  C   UNL     1      -9.924   3.803  63.778  1.00  0.00    -0.185 C  
HETATM    2  C   UNL     1      -9.704   3.728  65.282  1.00  0.00    -0.167 C  
ENDROOT
BRANCH   2   3
HETATM    3  C   UNL     1      -8.821   4.881  65.743  1.00  0.00    -0.135 C  
BRANCH   3   4
HETATM    4  O   UNL     1      -9.240   5.392  67.017  1.00  0.00    -0.112 OA 
BRANCH   4   5
HETATM    5  C   UNL     1      -9.978   6.542  66.989  1.00  0.00    -0.166 C  
HETATM    6  O   UNL     1     -11.199   6.598  66.911  1.00  0.00    -0.391 OA 
BRANCH   5   7
HETATM    7  C   UNL     1      -9.070   7.753  67.136  1.00  0.00    -0.134 C  
BRANCH   7   8
HETATM    8  N   UNL     1      -9.828   9.016  67.220  1.00  0.00    -0.181 NA 
HETATM    9  C   UNL     1     -10.448   9.403  68.402  1.00  0.00    -0.218 C  
HETATM   10  C   UNL     1     -11.180  10.518  68.559  1.00  0.00    -0.274 C  
HETATM   11  I   UNL     1     -12.051  11.009  70.340  1.00  0.00    -0.461 I  
HETATM   12  C   UNL     1     -11.350  11.414  67.361  1.00  0.00    -0.288 C  
HETATM   13  C   UNL     1     -10.686  10.978  66.088  1.00  0.00    -0.194 C  
HETATM   14  O   UNL     1     -12.001  12.455  67.426  1.00  0.00    -0.498 OA 
HETATM   15  I   UNL     1     -10.867  12.111  64.394  1.00  0.00    -0.497 I  
HETATM   16  C   UNL     1      -9.986   9.832  66.108  1.00  0.00    -0.268 C  
ENDBRANCH   7   8
ENDBRANCH   5   7
ENDBRANCH   4   5
ENDBRANCH   3   4
ENDBRANCH   2   3
TORSDOF 5
ENDMDL
MODEL      180
REMARK 921   NORMALIZED FREE ENERGY PREDICTED BY IDOCK:   -3.13 KCAL/MOL
REMARK 922        TOTAL FREE ENERGY PREDICTED BY IDOCK:   -4.36 KCAL/MOL
REMARK 923 INTER-LIGAND FREE ENERGY PREDICTED BY IDOCK:   -4.20 KCAL/MOL
REMARK 924 INTRA-LIGAND FREE ENERGY PREDICTED BY IDOCK:   -0.16 KCAL/MOL
REMARK 927      BINDING AFFINITY PREDICTED BY RF-SCORE:    0.00 PKD
ROOT
HETATM    1  C   UNL     1     -10.933   5.979  69.567  1.00  0.00    -0.467 C  
HETATM    2  C   UNL     1     -11.146   6.523  68.162  1.00  0.00    -0.332 C  
ENDROOT
BRANCH   2   3
HETATM    3  C   UNL     1     -10.518   7.906  68.031  1.00  0.00    -0.185 C  
BRANCH   3   4
HETATM    4  O   UNL     1     -10.854   8.524  66.781  1.00  0.00    -0.153 OA 
BRANCH   4   5
HETATM    5  C   UNL     1     -10.030   9.535  66.372  1.00  0.00    -0.269 C  
HETATM    6  O   UNL     1      -9.798   9.832  65.206  1.00  0.00    -0.313 OA 
BRANCH   5   7
HETATM    7  C   UNL     1      -9.489  10.292  67.575  1.00  0.00    -0.152 C  
BRANCH   7   8
HETATM    8  N   UNL     1     -10.133  11.608  67.746  1.00  0.00    -0.184 NA 
HETATM    9  C   UNL     1     -10.884  11.898  68.879  1.00  0.00    -0.221 C  
HETATM   10  C   UNL     1     -11.527  13.055  69.102  1.00  0.00    -0.299 C  
HETATM   11  I   UNL     1     -12.604  13.394  70.804  1.00  0.00    -0.142 I  
HETATM   12  C   UNL     1     -11.435  14.119  68.041  1.00  0.00    -0.312 C  
HETATM   13  C   UNL     1     -10.632  13.789  66.816  1.00  0.00    -0.273 C  
HETATM   14  O   UNL     1     -11.992  15.208  68.173  1.00  0.00    -0.290 OA 
HETATM   15  I   UNL     1     -10.456  15.154  65.304  1.00  0.00    -0.385 I  
HETATM   16  C   UNL     1     -10.050  12.581  66.758  1.00  0.00    -0.223 C  
ENDBRANCH   7   8
ENDBRANCH   5   7
ENDBRANCH   4   5
ENDBRANCH   3   4
ENDBRANCH   2   3
TORSDOF 5
ENDMDL
MODEL      181
REMARK 921   NORMALIZED FREE ENERGY PREDICTED BY IDOCK:   -3.12 KCAL/MOL
REMARK 922        TOTAL FREE ENERGY PREDICTED BY IDOCK:   -4.35 KCAL/MOL
REMARK 923 INTER-LIGAND FREE ENERGY PREDICTED BY IDOCK:   -4.10 KCAL/MOL
REMARK 924 INTRA-LIGAND FREE ENERGY PREDICTED BY IDOCK:   -0.25 KCAL/MOL
REMARK 927      BINDING AFFINITY PREDICTED BY RF-SCORE:    0.00 PKD
ROOT
HETATM    1  C   UNL     1      -9.182   8.840  70.828  1.00  0.00    -0.242 C  
HETATM    2  C   UNL     1     -10.431   8.760  71.694  1.00  0.00    -0.387 C  
ENDROOT
BRANCH   2   3
HETATM    3  C   UNL     1     -11.519   9.668  71.135  1.00  0.00    -0.384 C  
BRANCH   3   4
HETATM    4  O   UNL     1     -10.991  10.606  70.187  1.00  0.00    -0.282 OA 
BRANCH   4   5
HETATM    5  C   UNL     1     -11.713  11.753  70.012  1.00  0.00    -0.305 C  
HETATM    6  O   UNL     1     -12.322  12.348  70.893  1.00  0.00    -0.377 OA 
BRANCH   5   7
HETATM    7  C   UNL     1     -11.598  12.233  68.573  1.00  0.00    -0.310 C  
BRANCH   7   8
HETATM    8  N   UNL     1     -10.407  13.075  68.356  1.00  0.00    -0.250 NA 
HETATM    9  C   UNL     1     -10.501  14.461  68.339  1.00  0.00    -0.246 C  
HETATM   10  C   UNL     1      -9.477  15.300  68.121  1.00  0.00    -0.203 C  
HETATM   11  I   UNL     1      -9.710  17.330  68.121  1.00  0.00    -0.331 I  
HETATM   12  C   UNL     1      -8.122  14.695  67.864  1.00  0.00    -0.145 C  
HETATM   13  C   UNL     1      -8.036  13.196  67.872  1.00  0.00    -0.159 C  
HETATM   14  O   UNL     1      -7.133  15.397  67.660  1.00  0.00    -0.145 OA 
HETATM   15  I   UNL     1      -6.249  12.268  67.517  1.00  0.00    -0.130 I  
HETATM   16  C   UNL     1      -9.163  12.507  68.113  1.00  0.00    -0.209 C  
ENDBRANCH   7   8
ENDBRANCH   5   7
ENDBRANCH   4   5
ENDBRANCH   3   4
ENDBRANCH   2   3
TORSDOF 5
ENDMDL
MODEL      182
REMARK 921   NORMALIZED FREE ENERGY PREDICTED BY IDOCK:   -3.12 KCAL/MOL
REMARK 922        TOTAL FREE ENERGY PREDICTED BY IDOCK:   -4.34 KCAL/MOL
REMARK 923 INTER-LIGAND FREE ENERGY PREDICTED BY IDOCK:   -4.02 KCAL/MOL
REMARK 924 INTRA-LIGAND FREE ENERGY PREDICTED BY IDOCK:   -0.32 KCAL/MOL
REMARK 927      BINDING AFFINITY PREDICTED BY RF-SCORE:    0.00 PKD
ROOT
HETATM    1  C   UNL     1     -12.440  12.111  63.392  1.00  0.00    -0.625 C  
HETATM    2  C   UNL     1     -12.354  13.317  64.316  1.00  0.00    -0.406 C  
ENDROOT
BRANCH   2   3
HETATM    3  C   UNL     1     -11.499  12.989  65.533  1.00  0.00    -0.321 C  
BRANCH   3   4
HETATM    4  O   UNL     1     -12.272  12.372  66.573  1.00  0.00    -0.586 OA 
BRANCH   4   5
HETATM    5  C   UNL     1     -11.658  12.257  67.789  1.00  0.00    -0.351 C  
HETATM    6  O   UNL     1     -11.549  13.156  68.614  1.00  0.00    -0.276 OA 
BRANCH   5   7
HETATM    7  C   UNL     1     -11.185  10.828  68.007  1.00  0.00    -0.307 C  
BRANCH   7   8
HETATM    8  N   UNL     1      -9.768  10.644  67.639  1.00  0.00    -0.164 NA 
HETATM    9  C   UNL     1      -8.748  11.113  68.458  1.00  0.00    -0.161 C  
HETATM   10  C   UNL     1      -7.437  11.014  68.189  1.00  0.00    -0.092 C  
HETATM   11  I   UNL     1      -6.005  11.728  69.459  1.00  0.00    -0.130 I  
HETATM   12  C   UNL     1      -7.039  10.354  66.895  1.00  0.00    -0.094 C  
HETATM   13  C   UNL     1      -8.151   9.864  66.014  1.00  0.00    -0.120 C  
HETATM   14  O   UNL     1      -5.858  10.221  66.579  1.00  0.00    -0.056 OA 
HETATM   15  I   UNL     1      -7.725   8.968  64.225  1.00  0.00    -0.148 I  
HETATM   16  C   UNL     1      -9.411  10.041  66.440  1.00  0.00    -0.186 C  
ENDBRANCH   7   8
ENDBRANCH   5   7
ENDBRANCH   4   5
ENDBRANCH   3   4
ENDBRANCH   2   3
TORSDOF 5
ENDMDL
MODEL      183
REMARK 921   NORMALIZED FREE ENERGY PREDICTED BY IDOCK:   -3.12 KCAL/MOL
REMARK 922        TOTAL FREE ENERGY PREDICTED BY IDOCK:   -4.34 KCAL/MOL
REMARK 923 INTER-LIGAND FREE ENERGY PREDICTED BY IDOCK:   -3.85 KCAL/MOL
REMARK 924 INTRA-LIGAND FREE ENERGY PREDICTED BY IDOCK:   -0.49 KCAL/MOL
REMARK 927      BINDING AFFINITY PREDICTED BY RF-SCORE:    0.00 PKD
ROOT
HETATM    1  C   UNL     1     -10.556   7.846  72.948  1.00  0.00    -0.434 C  
HETATM    2  C   UNL     1     -11.930   8.053  72.326  1.00  0.00    -0.412 C  
ENDROOT
BRANCH   2   3
HETATM    3  C   UNL     1     -12.249   6.918  71.362  1.00  0.00    -0.372 C  
BRANCH   3   4
HETATM    4  O   UNL     1     -11.064   6.213  70.963  1.00  0.00    -0.278 OA 
BRANCH   4   5
HETATM    5  C   UNL     1     -10.714   6.325  69.647  1.00  0.00    -0.306 C  
HETATM    6  O   UNL     1     -11.408   5.981  68.698  1.00  0.00    -0.251 OA 
BRANCH   5   7
HETATM    7  C   UNL     1      -9.360   7.005  69.519  1.00  0.00    -0.148 C  
BRANCH   7   8
HETATM    8  N   UNL     1      -9.450   8.310  68.838  1.00  0.00    -0.151 NA 
HETATM    9  C   UNL     1     -10.317   9.298  69.291  1.00  0.00    -0.215 C  
HETATM   10  C   UNL     1     -10.483  10.500  68.716  1.00  0.00    -0.196 C  
HETATM   11  I   UNL     1     -11.780  11.893  69.457  1.00  0.00    -0.327 I  
HETATM   12  C   UNL     1      -9.674  10.800  67.482  1.00  0.00    -0.166 C  
HETATM   13  C   UNL     1      -8.751   9.721  66.997  1.00  0.00    -0.135 C  
HETATM   14  O   UNL     1      -9.766  11.880  66.901  1.00  0.00    -0.195 OA 
HETATM   15  I   UNL     1      -7.620  10.015  65.318  1.00  0.00    -0.126 I  
HETATM   16  C   UNL     1      -8.706   8.576  67.696  1.00  0.00    -0.136 C  
ENDBRANCH   7   8
ENDBRANCH   5   7
ENDBRANCH   4   5
ENDBRANCH   3   4
ENDBRANCH   2   3
TORSDOF 5
ENDMDL
MODEL      184
REMARK 921   NORMALIZED FREE ENERGY PREDICTED BY IDOCK:   -3.11 KCAL/MOL
REMARK 922        TOTAL FREE ENERGY PREDICTED BY IDOCK:   -4.34 KCAL/MOL
REMARK 923 INTER-LIGAND FREE ENERGY PREDICTED BY IDOCK:   -4.04 KCAL/MOL
REMARK 924 INTRA-LIGAND FREE ENERGY PREDICTED BY IDOCK:   -0.30 KCAL/MOL
REMARK 927      BINDING AFFINITY PREDICTED BY RF-SCORE:    0.00 PKD
ROOT
HETATM    1  C   UNL     1     -10.867   6.498  69.600  1.00  0.00    -0.359 C  
HETATM    2  C   UNL     1     -10.621   7.592  68.571  1.00  0.00    -0.162 C  
ENDROOT
BRANCH   2   3
HETATM    3  C   UNL     1      -9.777   8.706  69.177  1.00  0.00    -0.173 C  
BRANCH   3   4
HETATM    4  O   UNL     1      -8.671   9.052  68.332  1.00  0.00    -0.129 OA 
BRANCH   4   5
HETATM    5  C   UNL     1      -8.474  10.388  68.118  1.00  0.00    -0.121 C  
HETATM    6  O   UNL     1      -7.464  10.886  67.636  1.00  0.00    -0.092 OA 
BRANCH   5   7
HETATM    7  C   UNL     1      -9.719  11.171  68.504  1.00  0.00    -0.196 C  
BRANCH   7   8
HETATM    8  N   UNL     1     -10.040  12.230  67.529  1.00  0.00    -0.199 NA 
HETATM    9  C   UNL     1     -10.685  11.933  66.334  1.00  0.00    -0.266 C  
HETATM   10  C   UNL     1     -10.990  12.827  65.380  1.00  0.00    -0.283 C  
HETATM   11  I   UNL     1     -11.947  12.299  63.655  1.00  0.00    -0.595 I  
HETATM   12  C   UNL     1     -10.594  14.261  65.617  1.00  0.00    -0.319 C  
HETATM   13  C   UNL     1      -9.887  14.565  66.906  1.00  0.00    -0.262 C  
HETATM   14  O   UNL     1     -10.842  15.140  64.793  1.00  0.00    -0.403 OA 
HETATM   15  I   UNL     1      -9.288  16.476  67.321  1.00  0.00    -0.251 I  
HETATM   16  C   UNL     1      -9.665  13.548  67.752  1.00  0.00    -0.226 C  
ENDBRANCH   7   8
ENDBRANCH   5   7
ENDBRANCH   4   5
ENDBRANCH   3   4
ENDBRANCH   2   3
TORSDOF 5
ENDMDL
MODEL      185
REMARK 921   NORMALIZED FREE ENERGY PREDICTED BY IDOCK:   -3.10 KCAL/MOL
REMARK 922        TOTAL FREE ENERGY PREDICTED BY IDOCK:   -4.32 KCAL/MOL
REMARK 923 INTER-LIGAND FREE ENERGY PREDICTED BY IDOCK:   -3.99 KCAL/MOL
REMARK 924 INTRA-LIGAND FREE ENERGY PREDICTED BY IDOCK:   -0.34 KCAL/MOL
REMARK 927      BINDING AFFINITY PREDICTED BY RF-SCORE:    0.00 PKD
ROOT
HETATM    1  C   UNL     1     -12.445  10.656  71.252  1.00  0.00    -0.515 C  
HETATM    2  C   UNL     1     -13.378   9.692  71.972  1.00  0.00    -0.547 C  
ENDROOT
BRANCH   2   3
HETATM    3  C   UNL     1     -12.657   8.382  72.266  1.00  0.00    -0.349 C  
BRANCH   3   4
HETATM    4  O   UNL     1     -12.581   7.547  71.102  1.00  0.00    -0.317 OA 
BRANCH   4   5
HETATM    5  C   UNL     1     -11.358   6.997  70.837  1.00  0.00    -0.295 C  
HETATM    6  O   UNL     1     -10.379   7.062  71.570  1.00  0.00    -0.203 OA 
BRANCH   5   7
HETATM    7  C   UNL     1     -11.400   6.229  69.525  1.00  0.00    -0.404 C  
BRANCH   7   8
HETATM    8  N   UNL     1     -10.354   6.670  68.583  1.00  0.00    -0.174 NA 
HETATM    9  C   UNL     1     -10.475   7.865  67.884  1.00  0.00    -0.198 C  
HETATM   10  C   UNL     1      -9.588   8.328  66.990  1.00  0.00    -0.191 C  
HETATM   11  I   UNL     1      -9.847  10.104  66.014  1.00  0.00    -0.311 I  
HETATM   12  C   UNL     1      -8.372   7.484  66.714  1.00  0.00    -0.126 C  
HETATM   13  C   UNL     1      -8.260   6.189  67.465  1.00  0.00    -0.109 C  
HETATM   14  O   UNL     1      -7.511   7.842  65.911  1.00  0.00    -0.077 OA 
HETATM   15  I   UNL     1      -6.658   4.956  67.153  1.00  0.00    -0.053 I  
HETATM   16  C   UNL     1      -9.240   5.881  68.329  1.00  0.00    -0.117 C  
ENDBRANCH   7   8
ENDBRANCH   5   7
ENDBRANCH   4   5
ENDBRANCH   3   4
ENDBRANCH   2   3
TORSDOF 5
ENDMDL
MODEL      186
REMARK 921   NORMALIZED FREE ENERGY PREDICTED BY IDOCK:   -3.10 KCAL/MOL
REMARK 922        TOTAL FREE ENERGY PREDICTED BY IDOCK:   -4.32 KCAL/MOL
REMARK 923 INTER-LIGAND FREE ENERGY PREDICTED BY IDOCK:   -4.03 KCAL/MOL
REMARK 924 INTRA-LIGAND FREE ENERGY PREDICTED BY IDOCK:   -0.29 KCAL/MOL
REMARK 927      BINDING AFFINITY PREDICTED BY RF-SCORE:    0.00 PKD
ROOT
HETATM    1  C   UNL     1     -11.069  14.049  64.657  1.00  0.00    -0.387 C  
HETATM    2  C   UNL     1     -11.763  14.714  65.837  1.00  0.00    -0.301 C  
ENDROOT
BRANCH   2   3
HETATM    3  C   UNL     1     -11.186  14.197  67.149  1.00  0.00    -0.317 C  
BRANCH   3   4
HETATM    4  O   UNL     1     -11.925  13.071  67.645  1.00  0.00    -0.353 OA 
BRANCH   4   5
HETATM    5  C   UNL     1     -11.747  12.772  68.966  1.00  0.00    -0.323 C  
HETATM    6  O   UNL     1     -11.547  13.590  69.857  1.00  0.00    -0.261 OA 
BRANCH   5   7
HETATM    7  C   UNL     1     -11.900  11.276  69.192  1.00  0.00    -0.355 C  
BRANCH   7   8
HETATM    8  N   UNL     1     -10.610  10.615  69.461  1.00  0.00    -0.236 NA 
HETATM    9  C   UNL     1     -10.450   9.770  70.553  1.00  0.00    -0.301 C  
HETATM   10  C   UNL     1      -9.307   9.151  70.888  1.00  0.00    -0.269 C  
HETATM   11  I   UNL     1      -9.167   7.920  72.512  1.00  0.00    -0.339 I  
HETATM   12  C   UNL     1      -8.101   9.396  70.019  1.00  0.00    -0.152 C  
HETATM   13  C   UNL     1      -8.284  10.321  68.851  1.00  0.00    -0.130 C  
HETATM   14  O   UNL     1      -7.019   8.862  70.257  1.00  0.00    -0.040 OA 
HETATM   15  I   UNL     1      -6.708  10.739  67.616  1.00  0.00    -0.076 I  
HETATM   16  C   UNL     1      -9.501  10.853  68.659  1.00  0.00    -0.190 C  
ENDBRANCH   7   8
ENDBRANCH   5   7
ENDBRANCH   4   5
ENDBRANCH   3   4
ENDBRANCH   2   3
TORSDOF 5
ENDMDL
MODEL      187
REMARK 921   NORMALIZED FREE ENERGY PREDICTED BY IDOCK:   -3.10 KCAL/MOL
REMARK 922        TOTAL FREE ENERGY PREDICTED BY IDOCK:   -4.32 KCAL/MOL
REMARK 923 INTER-LIGAND FREE ENERGY PREDICTED BY IDOCK:   -4.00 KCAL/MOL
REMARK 924 INTRA-LIGAND FREE ENERGY PREDICTED BY IDOCK:   -0.32 KCAL/MOL
REMARK 927      BINDING AFFINITY PREDICTED BY RF-SCORE:    0.00 PKD
ROOT
HETATM    1  C   UNL     1      -6.250  12.128  68.784  1.00  0.00    -0.071 C  
HETATM    2  C   UNL     1      -6.873  12.406  67.423  1.00  0.00    -0.147 C  
ENDROOT
BRANCH   2   3
HETATM    3  C   UNL     1      -8.295  11.860  67.373  1.00  0.00    -0.163 C  
BRANCH   3   4
HETATM    4  O   UNL     1      -9.218  12.725  68.050  1.00  0.00    -0.196 OA 
BRANCH   4   5
HETATM    5  C   UNL     1     -10.086  13.417  67.253  1.00  0.00    -0.238 C  
HETATM    6  O   UNL     1      -9.773  14.309  66.473  1.00  0.00    -0.269 OA 
BRANCH   5   7
HETATM    7  C   UNL     1     -11.498  12.878  67.420  1.00  0.00    -0.336 C  
BRANCH   7   8
HETATM    8  N   UNL     1     -11.904  12.798  68.836  1.00  0.00    -0.316 NA 
HETATM    9  C   UNL     1     -12.307  11.594  69.400  1.00  0.00    -0.068 C  
HETATM   10  C   UNL     1     -12.719  11.437  70.668  1.00  0.00    -0.195 C  
HETATM   11  I   UNL     1     -13.288   9.622  71.414  1.00  0.00    -0.248 I  
HETATM   12  C   UNL     1     -12.756  12.660  71.546  1.00  0.00    -0.223 C  
HETATM   13  C   UNL     1     -12.330  13.956  70.920  1.00  0.00    -0.377 C  
HETATM   14  O   UNL     1     -13.116  12.597  72.720  1.00  0.00    -0.163 OA 
HETATM   15  I   UNL     1     -12.359  15.683  72.016  1.00  0.00    -0.646 I  
HETATM   16  C   UNL     1     -11.942  13.933  69.636  1.00  0.00    -0.342 C  
ENDBRANCH   7   8
ENDBRANCH   5   7
ENDBRANCH   4   5
ENDBRANCH   3   4
ENDBRANCH   2   3
TORSDOF 5
ENDMDL
MODEL      188
REMARK 921   NORMALIZED FREE ENERGY PREDICTED BY IDOCK:   -3.10 KCAL/MOL
REMARK 922        TOTAL FREE ENERGY PREDICTED BY IDOCK:   -4.32 KCAL/MOL
REMARK 923 INTER-LIGAND FREE ENERGY PREDICTED BY IDOCK:   -3.99 KCAL/MOL
REMARK 924 INTRA-LIGAND FREE ENERGY PREDICTED BY IDOCK:   -0.33 KCAL/MOL
REMARK 927      BINDING AFFINITY PREDICTED BY RF-SCORE:    0.00 PKD
ROOT
HETATM    1  C   UNL     1      -9.140  17.996  66.420  1.00  0.00    -0.251 C  
HETATM    2  C   UNL     1      -7.829  18.757  66.558  1.00  0.00    -0.286 C  
ENDROOT
BRANCH   2   3
HETATM    3  C   UNL     1      -6.815  17.925  67.333  1.00  0.00    -0.181 C  
BRANCH   3   4
HETATM    4  O   UNL     1      -7.377  17.399  68.544  1.00  0.00    -0.217 OA 
BRANCH   4   5
HETATM    5  C   UNL     1      -6.959  16.149  68.905  1.00  0.00    -0.161 C  
HETATM    6  O   UNL     1      -6.525  15.838  70.008  1.00  0.00    -0.157 OA 
BRANCH   5   7
HETATM    7  C   UNL     1      -7.173  15.172  67.760  1.00  0.00    -0.167 C  
BRANCH   7   8
HETATM    8  N   UNL     1      -8.585  14.771  67.620  1.00  0.00    -0.164 NA 
HETATM    9  C   UNL     1      -9.486  14.939  68.666  1.00  0.00    -0.208 C  
HETATM   10  C   UNL     1     -10.778  14.578  68.636  1.00  0.00    -0.253 C  
HETATM   11  I   UNL     1     -12.030  14.871  70.223  1.00  0.00    -0.455 I  
HETATM   12  C   UNL     1     -11.292  13.932  67.376  1.00  0.00    -0.326 C  
HETATM   13  C   UNL     1     -10.306  13.744  66.259  1.00  0.00    -0.294 C  
HETATM   14  O   UNL     1     -12.464  13.577  67.269  1.00  0.00    -0.215 OA 
HETATM   15  I   UNL     1     -10.892  12.860  64.511  1.00  0.00    -0.480 I  
HETATM   16  C   UNL     1      -9.048  14.169  66.458  1.00  0.00    -0.173 C  
ENDBRANCH   7   8
ENDBRANCH   5   7
ENDBRANCH   4   5
ENDBRANCH   3   4
ENDBRANCH   2   3
TORSDOF 5
ENDMDL
MODEL      189
REMARK 921   NORMALIZED FREE ENERGY PREDICTED BY IDOCK:   -3.09 KCAL/MOL
REMARK 922        TOTAL FREE ENERGY PREDICTED BY IDOCK:   -4.31 KCAL/MOL
REMARK 923 INTER-LIGAND FREE ENERGY PREDICTED BY IDOCK:   -4.20 KCAL/MOL
REMARK 924 INTRA-LIGAND FREE ENERGY PREDICTED BY IDOCK:   -0.11 KCAL/MOL
REMARK 927      BINDING AFFINITY PREDICTED BY RF-SCORE:    0.00 PKD
ROOT
HETATM    1  C   UNL     1     -11.166   9.188  70.806  1.00  0.00    -0.336 C  
HETATM    2  C   UNL     1     -12.420   9.890  71.308  1.00  0.00    -0.479 C  
ENDROOT
BRANCH   2   3
HETATM    3  C   UNL     1     -12.635  11.193  70.548  1.00  0.00    -0.274 C  
BRANCH   3   4
HETATM    4  O   UNL     1     -12.370  11.038  69.146  1.00  0.00    -0.451 OA 
BRANCH   4   5
HETATM    5  C   UNL     1     -11.713  12.073  68.542  1.00  0.00    -0.332 C  
HETATM    6  O   UNL     1     -11.055  12.929  69.122  1.00  0.00    -0.243 OA 
BRANCH   5   7
HETATM    7  C   UNL     1     -11.858  11.978  67.032  1.00  0.00    -0.176 C  
BRANCH   7   8
HETATM    8  N   UNL     1     -10.931  10.994  66.440  1.00  0.00    -0.193 NA 
HETATM    9  C   UNL     1     -10.349   9.999  67.217  1.00  0.00    -0.237 C  
HETATM   10  C   UNL     1      -9.476   9.084  66.769  1.00  0.00    -0.182 C  
HETATM   11  I   UNL     1      -8.676   7.652  67.986  1.00  0.00    -0.121 I  
HETATM   12  C   UNL     1      -9.088   9.143  65.315  1.00  0.00    -0.195 C  
HETATM   13  C   UNL     1      -9.714  10.231  64.490  1.00  0.00    -0.329 C  
HETATM   14  O   UNL     1      -8.298   8.337  64.828  1.00  0.00    -0.159 OA 
HETATM   15  I   UNL     1      -9.244  10.415  62.508  1.00  0.00    -0.265 I  
HETATM   16  C   UNL     1     -10.573  11.062  65.100  1.00  0.00    -0.226 C  
ENDBRANCH   7   8
ENDBRANCH   5   7
ENDBRANCH   4   5
ENDBRANCH   3   4
ENDBRANCH   2   3
TORSDOF 5
ENDMDL
MODEL      190
REMARK 921   NORMALIZED FREE ENERGY PREDICTED BY IDOCK:   -3.09 KCAL/MOL
REMARK 922        TOTAL FREE ENERGY PREDICTED BY IDOCK:   -4.31 KCAL/MOL
REMARK 923 INTER-LIGAND FREE ENERGY PREDICTED BY IDOCK:   -4.13 KCAL/MOL
REMARK 924 INTRA-LIGAND FREE ENERGY PREDICTED BY IDOCK:   -0.18 KCAL/MOL
REMARK 927      BINDING AFFINITY PREDICTED BY RF-SCORE:    0.00 PKD
ROOT
HETATM    1  C   UNL     1      -8.759   7.516  68.148  1.00  0.00    -0.122 C  
HETATM    2  C   UNL     1      -9.669   8.213  69.149  1.00  0.00    -0.163 C  
ENDROOT
BRANCH   2   3
HETATM    3  C   UNL     1      -9.107   9.583  69.508  1.00  0.00    -0.185 C  
BRANCH   3   4
HETATM    4  O   UNL     1      -9.699  10.623  68.716  1.00  0.00    -0.173 OA 
BRANCH   4   5
HETATM    5  C   UNL     1      -8.829  11.431  68.041  1.00  0.00    -0.155 C  
HETATM    6  O   UNL     1      -8.060  11.065  67.160  1.00  0.00    -0.125 OA 
BRANCH   5   7
HETATM    7  C   UNL     1      -8.996  12.875  68.490  1.00  0.00    -0.047 C  
BRANCH   7   8
HETATM    8  N   UNL     1      -9.507  13.742  67.411  1.00  0.00    -0.216 NA 
HETATM    9  C   UNL     1      -9.291  15.115  67.431  1.00  0.00    -0.196 C  
HETATM   10  C   UNL     1      -9.744  15.979  66.509  1.00  0.00    -0.264 C  
HETATM   11  I   UNL     1      -9.371  17.984  66.618  1.00  0.00    -0.265 I  
HETATM   12  C   UNL     1     -10.555  15.421  65.370  1.00  0.00    -0.410 C  
HETATM   13  C   UNL     1     -10.792  13.939  65.367  1.00  0.00    -0.319 C  
HETATM   14  O   UNL     1     -11.001  16.148  64.483  1.00  0.00    -0.645 OA 
HETATM   15  I   UNL     1     -11.897  13.078  63.877  1.00  0.00    -0.548 I  
HETATM   16  C   UNL     1     -10.261  13.219  66.369  1.00  0.00    -0.292 C  
ENDBRANCH   7   8
ENDBRANCH   5   7
ENDBRANCH   4   5
ENDBRANCH   3   4
ENDBRANCH   2   3
TORSDOF 5
ENDMDL
MODEL      191
REMARK 921   NORMALIZED FREE ENERGY PREDICTED BY IDOCK:   -3.09 KCAL/MOL
REMARK 922        TOTAL FREE ENERGY PREDICTED BY IDOCK:   -4.31 KCAL/MOL
REMARK 923 INTER-LIGAND FREE ENERGY PREDICTED BY IDOCK:   -4.08 KCAL/MOL
REMARK 924 INTRA-LIGAND FREE ENERGY PREDICTED BY IDOCK:   -0.23 KCAL/MOL
REMARK 927      BINDING AFFINITY PREDICTED BY RF-SCORE:    0.00 PKD
ROOT
HETATM    1  C   UNL     1      -8.206   5.821  73.465  1.00  0.00    -0.112 C  
HETATM    2  C   UNL     1      -9.631   5.524  73.911  1.00  0.00    -0.144 C  
ENDROOT
BRANCH   2   3
HETATM    3  C   UNL     1     -10.456   6.805  73.930  1.00  0.00    -0.327 C  
BRANCH   3   4
HETATM    4  O   UNL     1     -11.065   7.061  72.657  1.00  0.00    -0.257 OA 
BRANCH   4   5
HETATM    5  C   UNL     1     -10.838   8.298  72.121  1.00  0.00    -0.320 C  
HETATM    6  O   UNL     1      -9.798   8.935  72.228  1.00  0.00    -0.284 OA 
BRANCH   5   7
HETATM    7  C   UNL     1     -12.043   8.748  71.310  1.00  0.00    -0.296 C  
BRANCH   7   8
HETATM    8  N   UNL     1     -11.727   9.880  70.418  1.00  0.00    -0.267 NA 
HETATM    9  C   UNL     1     -10.975   9.696  69.263  1.00  0.00    -0.168 C  
HETATM   10  C   UNL     1     -10.618  10.670  68.413  1.00  0.00    -0.199 C  
HETATM   11  I   UNL     1      -9.514  10.303  66.733  1.00  0.00    -0.231 I  
HETATM   12  C   UNL     1     -11.056  12.074  68.737  1.00  0.00    -0.249 C  
HETATM   13  C   UNL     1     -11.856  12.261  69.994  1.00  0.00    -0.296 C  
HETATM   14  O   UNL     1     -10.773  13.021  68.005  1.00  0.00    -0.221 OA 
HETATM   15  I   UNL     1     -12.488  14.128  70.540  1.00  0.00    -0.350 I  
HETATM   16  C   UNL     1     -12.129  11.172  70.729  1.00  0.00    -0.357 C  
ENDBRANCH   7   8
ENDBRANCH   5   7
ENDBRANCH   4   5
ENDBRANCH   3   4
ENDBRANCH   2   3
TORSDOF 5
ENDMDL
MODEL      192
REMARK 921   NORMALIZED FREE ENERGY PREDICTED BY IDOCK:   -3.09 KCAL/MOL
REMARK 922        TOTAL FREE ENERGY PREDICTED BY IDOCK:   -4.31 KCAL/MOL
REMARK 923 INTER-LIGAND FREE ENERGY PREDICTED BY IDOCK:   -4.04 KCAL/MOL
REMARK 924 INTRA-LIGAND FREE ENERGY PREDICTED BY IDOCK:   -0.26 KCAL/MOL
REMARK 927      BINDING AFFINITY PREDICTED BY RF-SCORE:    0.00 PKD
ROOT
HETATM    1  C   UNL     1     -13.766  13.918  72.525  1.00  0.00    -0.665 C  
HETATM    2  C   UNL     1     -13.636  14.449  71.104  1.00  0.00    -0.338 C  
ENDROOT
BRANCH   2   3
HETATM    3  C   UNL     1     -12.172  14.707  70.769  1.00  0.00    -0.324 C  
BRANCH   3   4
HETATM    4  O   UNL     1     -11.814  14.150  69.497  1.00  0.00    -0.280 OA 
BRANCH   4   5
HETATM    5  C   UNL     1     -11.579  15.049  68.493  1.00  0.00    -0.326 C  
HETATM    6  O   UNL     1     -11.609  16.267  68.613  1.00  0.00    -0.355 OA 
BRANCH   5   7
HETATM    7  C   UNL     1     -11.206  14.320  67.212  1.00  0.00    -0.318 C  
BRANCH   7   8
HETATM    8  N   UNL     1      -9.864  13.712  67.283  1.00  0.00    -0.236 NA 
HETATM    9  C   UNL     1      -8.817  14.357  67.931  1.00  0.00    -0.179 C  
HETATM   10  C   UNL     1      -7.561  13.891  68.018  1.00  0.00    -0.144 C  
HETATM   11  I   UNL     1      -6.086  14.909  68.998  1.00  0.00    -0.114 I  
HETATM   12  C   UNL     1      -7.259  12.573  67.357  1.00  0.00    -0.146 C  
HETATM   13  C   UNL     1      -8.395  11.893  66.649  1.00  0.00    -0.117 C  
HETATM   14  O   UNL     1      -6.134  12.077  67.396  1.00  0.00    -0.098 OA 
HETATM   15  I   UNL     1      -8.092  10.106  65.701  1.00  0.00    -0.164 I  
HETATM   16  C   UNL     1      -9.593  12.499  66.663  1.00  0.00    -0.239 C  
ENDBRANCH   7   8
ENDBRANCH   5   7
ENDBRANCH   4   5
ENDBRANCH   3   4
ENDBRANCH   2   3
TORSDOF 5
ENDMDL
MODEL      193
REMARK 921   NORMALIZED FREE ENERGY PREDICTED BY IDOCK:   -3.08 KCAL/MOL
REMARK 922        TOTAL FREE ENERGY PREDICTED BY IDOCK:   -4.29 KCAL/MOL
REMARK 923 INTER-LIGAND FREE ENERGY PREDICTED BY IDOCK:   -3.92 KCAL/MOL
REMARK 924 INTRA-LIGAND FREE ENERGY PREDICTED BY IDOCK:   -0.36 KCAL/MOL
REMARK 927      BINDING AFFINITY PREDICTED BY RF-SCORE:    0.00 PKD
ROOT
HETATM    1  C   UNL     1      -6.776   6.956  69.680  1.00  0.00    -0.050 C  
HETATM    2  C   UNL     1      -7.943   6.088  70.130  1.00  0.00    -0.106 C  
ENDROOT
BRANCH   2   3
HETATM    3  C   UNL     1      -9.211   6.482  69.383  1.00  0.00    -0.144 C  
BRANCH   3   4
HETATM    4  O   UNL     1      -9.204   5.993  68.034  1.00  0.00    -0.117 OA 
BRANCH   4   5
HETATM    5  C   UNL     1      -9.911   6.730  67.125  1.00  0.00    -0.161 C  
HETATM    6  O   UNL     1     -11.029   6.454  66.706  1.00  0.00    -0.353 OA 
BRANCH   5   7
HETATM    7  C   UNL     1      -9.140   7.987  66.754  1.00  0.00    -0.155 C  
BRANCH   7   8
HETATM    8  N   UNL     1      -9.960   9.206  66.884  1.00  0.00    -0.216 NA 
HETATM    9  C   UNL     1     -10.173  10.047  65.798  1.00  0.00    -0.200 C  
HETATM   10  C   UNL     1     -10.879  11.188  65.834  1.00  0.00    -0.157 C  
HETATM   11  I   UNL     1     -11.144  12.360  64.182  1.00  0.00    -0.573 I  
HETATM   12  C   UNL     1     -11.482  11.594  67.153  1.00  0.00    -0.271 C  
HETATM   13  C   UNL     1     -11.234  10.684  68.321  1.00  0.00    -0.301 C  
HETATM   14  O   UNL     1     -12.146  12.623  67.266  1.00  0.00    -0.448 OA 
HETATM   15  I   UNL     1     -11.989  11.148  70.164  1.00  0.00    -0.448 I  
HETATM   16  C   UNL     1     -10.505   9.577  68.107  1.00  0.00    -0.223 C  
ENDBRANCH   7   8
ENDBRANCH   5   7
ENDBRANCH   4   5
ENDBRANCH   3   4
ENDBRANCH   2   3
TORSDOF 5
ENDMDL
MODEL      194
REMARK 921   NORMALIZED FREE ENERGY PREDICTED BY IDOCK:   -3.07 KCAL/MOL
REMARK 922        TOTAL FREE ENERGY PREDICTED BY IDOCK:   -4.29 KCAL/MOL
REMARK 923 INTER-LIGAND FREE ENERGY PREDICTED BY IDOCK:   -4.19 KCAL/MOL
REMARK 924 INTRA-LIGAND FREE ENERGY PREDICTED BY IDOCK:   -0.09 KCAL/MOL
REMARK 927      BINDING AFFINITY PREDICTED BY RF-SCORE:    0.00 PKD
ROOT
HETATM    1  C   UNL     1     -13.564  14.921  72.380  1.00  0.00    -0.554 C  
HETATM    2  C   UNL     1     -13.738  13.410  72.431  1.00  0.00    -0.698 C  
ENDROOT
BRANCH   2   3
HETATM    3  C   UNL     1     -12.862  12.742  71.378  1.00  0.00    -0.275 C  
BRANCH   3   4
HETATM    4  O   UNL     1     -12.943  11.312  71.451  1.00  0.00    -0.407 OA 
BRANCH   4   5
HETATM    5  C   UNL     1     -12.413  10.626  70.394  1.00  0.00    -0.338 C  
HETATM    6  O   UNL     1     -12.651  10.851  69.214  1.00  0.00    -0.356 OA 
BRANCH   5   7
HETATM    7  C   UNL     1     -11.426   9.580  70.888  1.00  0.00    -0.334 C  
BRANCH   7   8
HETATM    8  N   UNL     1     -10.332   9.344  69.927  1.00  0.00    -0.212 NA 
HETATM    9  C   UNL     1     -10.051   8.066  69.459  1.00  0.00    -0.196 C  
HETATM   10  C   UNL     1      -9.060   7.758  68.608  1.00  0.00    -0.136 C  
HETATM   11  I   UNL     1      -8.725   5.846  67.969  1.00  0.00    -0.107 I  
HETATM   12  C   UNL     1      -8.177   8.880  68.129  1.00  0.00    -0.114 C  
HETATM   13  C   UNL     1      -8.483  10.253  68.652  1.00  0.00    -0.127 C  
HETATM   14  O   UNL     1      -7.251   8.679  67.346  1.00  0.00    -0.079 OA 
HETATM   15  I   UNL     1      -7.337  11.848  68.082  1.00  0.00    -0.121 I  
HETATM   16  C   UNL     1      -9.518  10.385  69.497  1.00  0.00    -0.139 C  
ENDBRANCH   7   8
ENDBRANCH   5   7
ENDBRANCH   4   5
ENDBRANCH   3   4
ENDBRANCH   2   3
TORSDOF 5
ENDMDL
MODEL      195
REMARK 921   NORMALIZED FREE ENERGY PREDICTED BY IDOCK:   -3.07 KCAL/MOL
REMARK 922        TOTAL FREE ENERGY PREDICTED BY IDOCK:   -4.29 KCAL/MOL
REMARK 923 INTER-LIGAND FREE ENERGY PREDICTED BY IDOCK:   -4.18 KCAL/MOL
REMARK 924 INTRA-LIGAND FREE ENERGY PREDICTED BY IDOCK:   -0.10 KCAL/MOL
REMARK 927      BINDING AFFINITY PREDICTED BY RF-SCORE:    0.00 PKD
ROOT
HETATM    1  C   UNL     1     -11.677   6.708  71.149  1.00  0.00    -0.399 C  
HETATM    2  C   UNL     1     -10.549   5.757  70.775  1.00  0.00    -0.337 C  
ENDROOT
BRANCH   2   3
HETATM    3  C   UNL     1      -9.959   6.146  69.425  1.00  0.00    -0.166 C  
BRANCH   3   4
HETATM    4  O   UNL     1     -10.031   7.561  69.202  1.00  0.00    -0.171 OA 
BRANCH   4   5
HETATM    5  C   UNL     1     -10.450   7.953  67.961  1.00  0.00    -0.185 C  
HETATM    6  O   UNL     1     -10.990   7.227  67.135  1.00  0.00    -0.327 OA 
BRANCH   5   7
HETATM    7  C   UNL     1     -10.212   9.443  67.772  1.00  0.00    -0.222 C  
BRANCH   7   8
HETATM    8  N   UNL     1     -10.010   9.803  66.356  1.00  0.00    -0.233 NA 
HETATM    9  C   UNL     1      -9.044   9.168  65.584  1.00  0.00    -0.219 C  
HETATM   10  C   UNL     1      -8.774   9.451  64.300  1.00  0.00    -0.197 C  
HETATM   11  I   UNL     1      -7.337   8.458  63.242  1.00  0.00    -0.122 I  
HETATM   12  C   UNL     1      -9.573  10.548  63.646  1.00  0.00    -0.320 C  
HETATM   13  C   UNL     1     -10.604  11.234  64.494  1.00  0.00    -0.336 C  
HETATM   14  O   UNL     1      -9.388  10.863  62.472  1.00  0.00    -0.287 OA 
HETATM   15  I   UNL     1     -11.733  12.750  63.712  1.00  0.00    -0.592 I  
HETATM   16  C   UNL     1     -10.746  10.821  65.763  1.00  0.00    -0.070 C  
ENDBRANCH   7   8
ENDBRANCH   5   7
ENDBRANCH   4   5
ENDBRANCH   3   4
ENDBRANCH   2   3
TORSDOF 5
ENDMDL
MODEL      196
REMARK 921   NORMALIZED FREE ENERGY PREDICTED BY IDOCK:   -3.06 KCAL/MOL
REMARK 922        TOTAL FREE ENERGY PREDICTED BY IDOCK:   -4.27 KCAL/MOL
REMARK 923 INTER-LIGAND FREE ENERGY PREDICTED BY IDOCK:   -3.94 KCAL/MOL
REMARK 924 INTRA-LIGAND FREE ENERGY PREDICTED BY IDOCK:   -0.33 KCAL/MOL
REMARK 927      BINDING AFFINITY PREDICTED BY RF-SCORE:    0.00 PKD
ROOT
HETATM    1  C   UNL     1      -9.310   4.150  64.202  1.00  0.00    -0.158 C  
HETATM    2  C   UNL     1     -10.572   4.215  65.051  1.00  0.00    -0.158 C  
ENDROOT
BRANCH   2   3
HETATM    3  C   UNL     1     -10.234   4.683  66.461  1.00  0.00    -0.238 C  
BRANCH   3   4
HETATM    4  O   UNL     1     -10.995   5.842  66.831  1.00  0.00    -0.299 OA 
BRANCH   4   5
HETATM    5  C   UNL     1     -10.288   7.004  66.969  1.00  0.00    -0.290 C  
HETATM    6  O   UNL     1     -10.399   7.990  66.251  1.00  0.00    -0.086 OA 
BRANCH   5   7
HETATM    7  C   UNL     1      -9.384   6.927  68.190  1.00  0.00    -0.124 C  
BRANCH   7   8
HETATM    8  N   UNL     1     -10.107   7.216  69.442  1.00  0.00    -0.172 NA 
HETATM    9  C   UNL     1     -10.762   8.428  69.630  1.00  0.00    -0.198 C  
HETATM   10  C   UNL     1     -11.418   8.784  70.745  1.00  0.00    -0.270 C  
HETATM   11  I   UNL     1     -12.358  10.589  70.929  1.00  0.00    -0.545 I  
HETATM   12  C   UNL     1     -11.440   7.801  71.886  1.00  0.00    -0.275 C  
HETATM   13  C   UNL     1     -10.718   6.502  71.675  1.00  0.00    -0.230 C  
HETATM   14  O   UNL     1     -12.024   8.052  72.939  1.00  0.00    -0.297 OA 
HETATM   15  I   UNL     1     -10.669   5.101  73.164  1.00  0.00    -0.408 I  
HETATM   16  C   UNL     1     -10.115   6.306  70.491  1.00  0.00    -0.189 C  
ENDBRANCH   7   8
ENDBRANCH   5   7
ENDBRANCH   4   5
ENDBRANCH   3   4
ENDBRANCH   2   3
TORSDOF 5
ENDMDL
MODEL      197
REMARK 921   NORMALIZED FREE ENERGY PREDICTED BY IDOCK:   -3.06 KCAL/MOL
REMARK 922        TOTAL FREE ENERGY PREDICTED BY IDOCK:   -4.27 KCAL/MOL
REMARK 923 INTER-LIGAND FREE ENERGY PREDICTED BY IDOCK:   -3.96 KCAL/MOL
REMARK 924 INTRA-LIGAND FREE ENERGY PREDICTED BY IDOCK:   -0.30 KCAL/MOL
REMARK 927      BINDING AFFINITY PREDICTED BY RF-SCORE:    0.00 PKD
ROOT
HETATM    1  C   UNL     1     -11.976  13.290  65.619  1.00  0.00    -0.455 C  
HETATM    2  C   UNL     1     -10.762  13.224  66.535  1.00  0.00    -0.290 C  
ENDROOT
BRANCH   2   3
HETATM    3  C   UNL     1     -10.233  11.797  66.608  1.00  0.00    -0.210 C  
BRANCH   3   4
HETATM    4  O   UNL     1      -8.984  11.730  67.310  1.00  0.00    -0.163 OA 
BRANCH   4   5
HETATM    5  C   UNL     1      -8.514  10.476  67.581  1.00  0.00    -0.115 C  
HETATM    6  O   UNL     1      -8.183   9.647  66.741  1.00  0.00    -0.112 OA 
BRANCH   5   7
HETATM    7  C   UNL     1      -8.394  10.272  69.083  1.00  0.00    -0.154 C  
BRANCH   7   8
HETATM    8  N   UNL     1      -9.459   9.404  69.618  1.00  0.00    -0.177 NA 
HETATM    9  C   UNL     1     -10.579   9.942  70.242  1.00  0.00    -0.301 C  
HETATM   10  C   UNL     1     -11.579   9.227  70.781  1.00  0.00    -0.285 C  
HETATM   11  I   UNL     1     -13.191  10.108  71.674  1.00  0.00    -0.395 I  
HETATM   12  C   UNL     1     -11.478   7.726  70.714  1.00  0.00    -0.272 C  
HETATM   13  C   UNL     1     -10.257   7.158  70.050  1.00  0.00    -0.196 C  
HETATM   14  O   UNL     1     -12.355   7.002  71.181  1.00  0.00    -0.359 OA 
HETATM   15  I   UNL     1     -10.009   5.132  69.920  1.00  0.00    -0.326 I  
HETATM   16  C   UNL     1      -9.353   8.020  69.559  1.00  0.00    -0.156 C  
ENDBRANCH   7   8
ENDBRANCH   5   7
ENDBRANCH   4   5
ENDBRANCH   3   4
ENDBRANCH   2   3
TORSDOF 5
ENDMDL
MODEL      198
REMARK 921   NORMALIZED FREE ENERGY PREDICTED BY IDOCK:   -3.05 KCAL/MOL
REMARK 922        TOTAL FREE ENERGY PREDICTED BY IDOCK:   -4.26 KCAL/MOL
REMARK 923 INTER-LIGAND FREE ENERGY PREDICTED BY IDOCK:   -4.10 KCAL/MOL
REMARK 924 INTRA-LIGAND FREE ENERGY PREDICTED BY IDOCK:   -0.16 KCAL/MOL
REMARK 927      BINDING AFFINITY PREDICTED BY RF-SCORE:    0.00 PKD
ROOT
HETATM    1  C   UNL     1      -7.705  18.861  68.918  1.00  0.00    -0.321 C  
HETATM    2  C   UNL     1      -8.688  19.781  68.207  1.00  0.00    -0.323 C  
ENDROOT
BRANCH   2   3
HETATM    3  C   UNL     1      -9.753  18.960  67.490  1.00  0.00    -0.313 C  
BRANCH   3   4
HETATM    4  O   UNL     1      -9.441  17.560  67.504  1.00  0.00    -0.250 OA 
BRANCH   4   5
HETATM    5  C   UNL     1      -9.029  17.025  66.316  1.00  0.00    -0.247 C  
HETATM    6  O   UNL     1      -8.132  17.472  65.611  1.00  0.00    -0.508 OA 
BRANCH   5   7
HETATM    7  C   UNL     1      -9.799  15.748  66.019  1.00  0.00    -0.337 C  
BRANCH   7   8
HETATM    8  N   UNL     1      -9.277  14.591  66.771  1.00  0.00    -0.255 NA 
HETATM    9  C   UNL     1      -7.938  14.517  67.135  1.00  0.00    -0.138 C  
HETATM   10  C   UNL     1      -7.374  13.491  67.794  1.00  0.00    -0.163 C  
HETATM   11  I   UNL     1      -5.394  13.473  68.293  1.00  0.00    -0.113 I  
HETATM   12  C   UNL     1      -8.257  12.327  68.158  1.00  0.00    -0.168 C  
HETATM   13  C   UNL     1      -9.699  12.414  67.747  1.00  0.00    -0.201 C  
HETATM   14  O   UNL     1      -7.817  11.353  68.765  1.00  0.00    -0.136 OA 
HETATM   15  I   UNL     1     -10.983  10.881  68.175  1.00  0.00    -0.384 I  
HETATM   16  C   UNL     1     -10.097  13.518  67.096  1.00  0.00    -0.245 C  
ENDBRANCH   7   8
ENDBRANCH   5   7
ENDBRANCH   4   5
ENDBRANCH   3   4
ENDBRANCH   2   3
TORSDOF 5
ENDMDL
MODEL      199
REMARK 921   NORMALIZED FREE ENERGY PREDICTED BY IDOCK:   -3.04 KCAL/MOL
REMARK 922        TOTAL FREE ENERGY PREDICTED BY IDOCK:   -4.25 KCAL/MOL
REMARK 923 INTER-LIGAND FREE ENERGY PREDICTED BY IDOCK:   -3.96 KCAL/MOL
REMARK 924 INTRA-LIGAND FREE ENERGY PREDICTED BY IDOCK:   -0.29 KCAL/MOL
REMARK 927      BINDING AFFINITY PREDICTED BY RF-SCORE:    0.00 PKD
ROOT
HETATM    1  C   UNL     1      -8.904   6.806  70.775  1.00  0.00    -0.150 C  
HETATM    2  C   UNL     1      -8.601   8.076  71.558  1.00  0.00    -0.157 C  
ENDROOT
BRANCH   2   3
HETATM    3  C   UNL     1      -9.133   9.294  70.813  1.00  0.00    -0.244 C  
BRANCH   3   4
HETATM    4  O   UNL     1     -10.526   9.154  70.497  1.00  0.00    -0.205 OA 
BRANCH   4   5
HETATM    5  C   UNL     1     -11.112  10.225  69.884  1.00  0.00    -0.304 C  
HETATM    6  O   UNL     1     -11.692  11.140  70.457  1.00  0.00    -0.333 OA 
BRANCH   5   7
HETATM    7  C   UNL     1     -10.884  10.161  68.382  1.00  0.00    -0.242 C  
BRANCH   7   8
HETATM    8  N   UNL     1     -10.438  11.453  67.826  1.00  0.00    -0.180 NA 
HETATM    9  C   UNL     1      -9.315  12.100  68.328  1.00  0.00    -0.198 C  
HETATM   10  C   UNL     1      -8.856  13.287  67.903  1.00  0.00    -0.192 C  
HETATM   11  I   UNL     1      -7.190  14.161  68.699  1.00  0.00    -0.124 I  
HETATM   12  C   UNL     1      -9.619  13.977  66.803  1.00  0.00    -0.286 C  
HETATM   13  C   UNL     1     -10.837  13.273  66.279  1.00  0.00    -0.284 C  
HETATM   14  O   UNL     1      -9.259  15.065  66.356  1.00  0.00    -0.271 OA 
HETATM   15  I   UNL     1     -11.959  14.128  64.798  1.00  0.00    -0.481 I  
HETATM   16  C   UNL     1     -11.153  12.085  66.817  1.00  0.00    -0.305 C  
ENDBRANCH   7   8
ENDBRANCH   5   7
ENDBRANCH   4   5
ENDBRANCH   3   4
ENDBRANCH   2   3
TORSDOF 5
ENDMDL
MODEL      200
REMARK 921   NORMALIZED FREE ENERGY PREDICTED BY IDOCK:   -3.04 KCAL/MOL
REMARK 922        TOTAL FREE ENERGY PREDICTED BY IDOCK:   -4.24 KCAL/MOL
REMARK 923 INTER-LIGAND FREE ENERGY PREDICTED BY IDOCK:   -4.04 KCAL/MOL
REMARK 924 INTRA-LIGAND FREE ENERGY PREDICTED BY IDOCK:   -0.20 KCAL/MOL
REMARK 927      BINDING AFFINITY PREDICTED BY RF-SCORE:    0.00 PKD
ROOT
HETATM    1  C   UNL     1     -12.097  15.715  70.423  1.00  0.00    -0.425 C  
HETATM    2  C   UNL     1     -11.817  14.249  70.125  1.00  0.00    -0.379 C  
ENDROOT
BRANCH   2   3
HETATM    3  C   UNL     1     -12.124  13.940  68.664  1.00  0.00    -0.302 C  
BRANCH   3   4
HETATM    4  O   UNL     1     -10.941  13.570  67.941  1.00  0.00    -0.245 OA 
BRANCH   4   5
HETATM    5  C   UNL     1     -10.876  12.270  67.523  1.00  0.00    -0.234 C  
HETATM    6  O   UNL     1     -11.669  11.732  66.759  1.00  0.00    -0.555 OA 
BRANCH   5   7
HETATM    7  C   UNL     1      -9.635  11.597  68.088  1.00  0.00    -0.190 C  
BRANCH   7   8
HETATM    8  N   UNL     1      -9.476  10.214  67.600  1.00  0.00    -0.147 NA 
HETATM    9  C   UNL     1      -8.836   9.948  66.395  1.00  0.00    -0.142 C  
HETATM   10  C   UNL     1      -8.673   8.726  65.864  1.00  0.00    -0.170 C  
HETATM   11  I   UNL     1      -7.711   8.430  64.086  1.00  0.00    -0.148 I  
HETATM   12  C   UNL     1      -9.232   7.554  66.625  1.00  0.00    -0.162 C  
HETATM   13  C   UNL     1      -9.932   7.857  67.918  1.00  0.00    -0.178 C  
HETATM   14  O   UNL     1      -9.119   6.403  66.206  1.00  0.00    -0.153 OA 
HETATM   15  I   UNL     1     -10.747   6.341  69.024  1.00  0.00    -0.433 I  
HETATM   16  C   UNL     1     -10.002   9.140  68.305  1.00  0.00    -0.175 C  
ENDBRANCH   7   8
ENDBRANCH   5   7
ENDBRANCH   4   5
ENDBRANCH   3   4
ENDBRANCH   2   3
TORSDOF 5
ENDMDL
MODEL      201
REMARK 921   NORMALIZED FREE ENERGY PREDICTED BY IDOCK:   -3.04 KCAL/MOL
REMARK 922        TOTAL FREE ENERGY PREDICTED BY IDOCK:   -4.24 KCAL/MOL
REMARK 923 INTER-LIGAND FREE ENERGY PREDICTED BY IDOCK:   -3.93 KCAL/MOL
REMARK 924 INTRA-LIGAND FREE ENERGY PREDICTED BY IDOCK:   -0.31 KCAL/MOL
REMARK 927      BINDING AFFINITY PREDICTED BY RF-SCORE:    0.00 PKD
ROOT
HETATM    1  C   UNL     1      -7.840  11.727  68.741  1.00  0.00    -0.076 C  
HETATM    2  C   UNL     1      -8.381  12.386  67.480  1.00  0.00    -0.173 C  
ENDROOT
BRANCH   2   3
HETATM    3  C   UNL     1      -9.767  11.843  67.155  1.00  0.00    -0.185 C  
BRANCH   3   4
HETATM    4  O   UNL     1     -10.466  12.694  66.236  1.00  0.00    -0.246 OA 
BRANCH   4   5
HETATM    5  C   UNL     1     -11.034  13.816  66.770  1.00  0.00    -0.304 C  
HETATM    6  O   UNL     1     -11.715  13.849  67.788  1.00  0.00    -0.325 OA 
BRANCH   5   7
HETATM    7  C   UNL     1     -10.644  15.041  65.958  1.00  0.00    -0.322 C  
BRANCH   7   8
HETATM    8  N   UNL     1      -9.867  16.014  66.748  1.00  0.00    -0.241 NA 
HETATM    9  C   UNL     1     -10.151  17.374  66.693  1.00  0.00    -0.317 C  
HETATM   10  C   UNL     1      -9.479  18.329  67.355  1.00  0.00    -0.266 C  
HETATM   11  I   UNL     1      -9.974  20.306  67.218  1.00  0.00    -0.366 I  
HETATM   12  C   UNL     1      -8.321  17.897  68.216  1.00  0.00    -0.284 C  
HETATM   13  C   UNL     1      -8.016  16.428  68.255  1.00  0.00    -0.170 C  
HETATM   14  O   UNL     1      -7.659  18.711  68.857  1.00  0.00    -0.302 OA 
HETATM   15  I   UNL     1      -6.454  15.733  69.378  1.00  0.00    -0.174 I  
HETATM   16  C   UNL     1      -8.796  15.608  67.533  1.00  0.00    -0.181 C  
ENDBRANCH   7   8
ENDBRANCH   5   7
ENDBRANCH   4   5
ENDBRANCH   3   4
ENDBRANCH   2   3
TORSDOF 5
ENDMDL
MODEL      202
REMARK 921   NORMALIZED FREE ENERGY PREDICTED BY IDOCK:   -3.04 KCAL/MOL
REMARK 922        TOTAL FREE ENERGY PREDICTED BY IDOCK:   -4.24 KCAL/MOL
REMARK 923 INTER-LIGAND FREE ENERGY PREDICTED BY IDOCK:   -3.63 KCAL/MOL
REMARK 924 INTRA-LIGAND FREE ENERGY PREDICTED BY IDOCK:   -0.61 KCAL/MOL
REMARK 927      BINDING AFFINITY PREDICTED BY RF-SCORE:    0.00 PKD
ROOT
HETATM    1  C   UNL     1      -9.450   5.279  71.590  1.00  0.00    -0.187 C  
HETATM    2  C   UNL     1      -9.672   6.049  72.884  1.00  0.00    -0.162 C  
ENDROOT
BRANCH   2   3
HETATM    3  C   UNL     1     -11.124   6.501  72.985  1.00  0.00    -0.198 C  
BRANCH   3   4
HETATM    4  O   UNL     1     -11.231   7.930  73.047  1.00  0.00    -0.411 OA 
BRANCH   4   5
HETATM    5  C   UNL     1     -12.133   8.501  72.193  1.00  0.00    -0.383 C  
HETATM    6  O   UNL     1     -13.325   8.226  72.135  1.00  0.00    -0.316 OA 
BRANCH   5   7
HETATM    7  C   UNL     1     -11.459   9.583  71.363  1.00  0.00    -0.392 C  
BRANCH   7   8
HETATM    8  N   UNL     1     -10.460   9.032  70.429  1.00  0.00    -0.201 NA 
HETATM    9  C   UNL     1      -9.129   9.429  70.485  1.00  0.00    -0.256 C  
HETATM   10  C   UNL     1      -8.162   9.002  69.658  1.00  0.00    -0.116 C  
HETATM   11  I   UNL     1      -6.228   9.638  69.821  1.00  0.00    -0.063 I  
HETATM   12  C   UNL     1      -8.548   8.024  68.580  1.00  0.00    -0.128 C  
HETATM   13  C   UNL     1      -9.991   7.614  68.522  1.00  0.00    -0.180 C  
HETATM   14  O   UNL     1      -7.719   7.583  67.786  1.00  0.00    -0.110 OA 
HETATM   15  I   UNL     1     -10.629   6.305  67.086  1.00  0.00    -0.442 I  
HETATM   16  C   UNL     1     -10.827   8.137  69.432  1.00  0.00    -0.086 C  
ENDBRANCH   7   8
ENDBRANCH   5   7
ENDBRANCH   4   5
ENDBRANCH   3   4
ENDBRANCH   2   3
TORSDOF 5
ENDMDL
MODEL      203
REMARK 921   NORMALIZED FREE ENERGY PREDICTED BY IDOCK:   -3.03 KCAL/MOL
REMARK 922        TOTAL FREE ENERGY PREDICTED BY IDOCK:   -4.23 KCAL/MOL
REMARK 923 INTER-LIGAND FREE ENERGY PREDICTED BY IDOCK:   -3.96 KCAL/MOL
REMARK 924 INTRA-LIGAND FREE ENERGY PREDICTED BY IDOCK:   -0.27 KCAL/MOL
REMARK 927      BINDING AFFINITY PREDICTED BY RF-SCORE:    0.00 PKD
ROOT
HETATM    1  C   UNL     1     -13.370  12.192  71.963  1.00  0.00    -0.470 C  
HETATM    2  C   UNL     1     -12.669  11.077  71.200  1.00  0.00    -0.521 C  
ENDROOT
BRANCH   2   3
HETATM    3  C   UNL     1     -12.988   9.726  71.828  1.00  0.00    -0.438 C  
BRANCH   3   4
HETATM    4  O   UNL     1     -12.181   8.679  71.270  1.00  0.00    -0.294 OA 
BRANCH   4   5
HETATM    5  C   UNL     1     -12.661   7.408  71.420  1.00  0.00    -0.369 C  
HETATM    6  O   UNL     1     -13.799   7.044  71.146  1.00  0.00    -0.246 OA 
BRANCH   5   7
HETATM    7  C   UNL     1     -11.559   6.484  71.913  1.00  0.00    -0.312 C  
BRANCH   7   8
HETATM    8  N   UNL     1     -10.422   6.417  70.975  1.00  0.00    -0.217 NA 
HETATM    9  C   UNL     1     -10.521   5.722  69.776  1.00  0.00    -0.292 C  
HETATM   10  C   UNL     1      -9.531   5.585  68.880  1.00  0.00    -0.129 C  
HETATM   11  I   UNL     1      -9.772   4.547  67.137  1.00  0.00    -0.168 I  
HETATM   12  C   UNL     1      -8.207   6.227  69.201  1.00  0.00    -0.114 C  
HETATM   13  C   UNL     1      -8.110   6.964  70.506  1.00  0.00    -0.115 C  
HETATM   14  O   UNL     1      -7.253   6.151  68.430  1.00  0.00    -0.079 OA 
HETATM   15  I   UNL     1      -6.353   7.858  71.051  1.00  0.00    -0.039 I  
HETATM   16  C   UNL     1      -9.203   7.006  71.284  1.00  0.00    -0.152 C  
ENDBRANCH   7   8
ENDBRANCH   5   7
ENDBRANCH   4   5
ENDBRANCH   3   4
ENDBRANCH   2   3
TORSDOF 5
ENDMDL
MODEL      204
REMARK 921   NORMALIZED FREE ENERGY PREDICTED BY IDOCK:   -3.02 KCAL/MOL
REMARK 922        TOTAL FREE ENERGY PREDICTED BY IDOCK:   -4.22 KCAL/MOL
REMARK 923 INTER-LIGAND FREE ENERGY PREDICTED BY IDOCK:   -3.86 KCAL/MOL
REMARK 924 INTRA-LIGAND FREE ENERGY PREDICTED BY IDOCK:   -0.36 KCAL/MOL
REMARK 927      BINDING AFFINITY PREDICTED BY RF-SCORE:    0.00 PKD
ROOT
HETATM    1  C   UNL     1     -12.155  12.615  63.664  1.00  0.00    -0.632 C  
HETATM    2  C   UNL     1     -12.223  12.944  65.148  1.00  0.00    -0.519 C  
ENDROOT
BRANCH   2   3
HETATM    3  C   UNL     1     -11.638  14.327  65.408  1.00  0.00    -0.346 C  
BRANCH   3   4
HETATM    4  O   UNL     1     -11.546  14.608  66.812  1.00  0.00    -0.365 OA 
BRANCH   4   5
HETATM    5  C   UNL     1     -10.630  15.556  67.175  1.00  0.00    -0.300 C  
HETATM    6  O   UNL     1     -10.829  16.462  67.975  1.00  0.00    -0.330 OA 
BRANCH   5   7
HETATM    7  C   UNL     1      -9.297  15.287  66.494  1.00  0.00    -0.281 C  
BRANCH   7   8
HETATM    8  N   UNL     1      -8.478  14.308  67.233  1.00  0.00    -0.202 NA 
HETATM    9  C   UNL     1      -7.599  14.714  68.230  1.00  0.00    -0.118 C  
HETATM   10  C   UNL     1      -6.797  13.897  68.931  1.00  0.00    -0.109 C  
HETATM   11  I   UNL     1      -5.540  14.585  70.386  1.00  0.00    -0.162 I  
HETATM   12  C   UNL     1      -6.846  12.427  68.607  1.00  0.00    -0.087 C  
HETATM   13  C   UNL     1      -7.789  12.003  67.519  1.00  0.00    -0.155 C  
HETATM   14  O   UNL     1      -6.145  11.614  69.207  1.00  0.00    -0.063 OA 
HETATM   15  I   UNL     1      -7.922  10.033  66.984  1.00  0.00    -0.106 I  
HETATM   16  C   UNL     1      -8.523  12.955  66.922  1.00  0.00    -0.086 C  
ENDBRANCH   7   8
ENDBRANCH   5   7
ENDBRANCH   4   5
ENDBRANCH   3   4
ENDBRANCH   2   3
TORSDOF 5
ENDMDL
MODEL      205
REMARK 921   NORMALIZED FREE ENERGY PREDICTED BY IDOCK:   -3.00 KCAL/MOL
REMARK 922        TOTAL FREE ENERGY PREDICTED BY IDOCK:   -4.19 KCAL/MOL
REMARK 923 INTER-LIGAND FREE ENERGY PREDICTED BY IDOCK:   -3.87 KCAL/MOL
REMARK 924 INTRA-LIGAND FREE ENERGY PREDICTED BY IDOCK:   -0.32 KCAL/MOL
REMARK 927      BINDING AFFINITY PREDICTED BY RF-SCORE:    0.00 PKD
ROOT
HETATM    1  C   UNL     1     -10.806  16.073  71.204  1.00  0.00     0.151 C  
HETATM    2  C   UNL     1     -10.135  15.881  69.852  1.00  0.00    -0.191 C  
ENDROOT
BRANCH   2   3
HETATM    3  C   UNL     1     -11.148  16.063  68.729  1.00  0.00    -0.338 C  
BRANCH   3   4
HETATM    4  O   UNL     1     -10.507  16.350  67.478  1.00  0.00    -0.293 OA 
BRANCH   4   5
HETATM    5  C   UNL     1     -10.021  15.272  66.792  1.00  0.00    -0.242 C  
HETATM    6  O   UNL     1      -8.838  15.055  66.560  1.00  0.00    -0.273 OA 
BRANCH   5   7
HETATM    7  C   UNL     1     -11.157  14.336  66.411  1.00  0.00    -0.325 C  
BRANCH   7   8
HETATM    8  N   UNL     1     -10.916  12.951  66.858  1.00  0.00    -0.261 NA 
HETATM    9  C   UNL     1     -11.403  12.494  68.077  1.00  0.00    -0.289 C  
HETATM   10  C   UNL     1     -11.207  11.262  68.572  1.00  0.00    -0.252 C  
HETATM   11  I   UNL     1     -11.968  10.677  70.375  1.00  0.00    -0.484 I  
HETATM   12  C   UNL     1     -10.389  10.302  67.750  1.00  0.00    -0.204 C  
HETATM   13  C   UNL     1      -9.858  10.812  66.441  1.00  0.00    -0.209 C  
HETATM   14  O   UNL     1     -10.168   9.154  68.133  1.00  0.00    -0.188 OA 
HETATM   15  I   UNL     1      -8.718   9.598  65.253  1.00  0.00    -0.250 I  
HETATM   16  C   UNL     1     -10.154  12.075  66.096  1.00  0.00    -0.226 C  
ENDBRANCH   7   8
ENDBRANCH   5   7
ENDBRANCH   4   5
ENDBRANCH   3   4
ENDBRANCH   2   3
TORSDOF 5
ENDMDL
MODEL      206
REMARK 921   NORMALIZED FREE ENERGY PREDICTED BY IDOCK:   -3.00 KCAL/MOL
REMARK 922        TOTAL FREE ENERGY PREDICTED BY IDOCK:   -4.19 KCAL/MOL
REMARK 923 INTER-LIGAND FREE ENERGY PREDICTED BY IDOCK:   -4.06 KCAL/MOL
REMARK 924 INTRA-LIGAND FREE ENERGY PREDICTED BY IDOCK:   -0.14 KCAL/MOL
REMARK 927      BINDING AFFINITY PREDICTED BY RF-SCORE:    0.00 PKD
ROOT
HETATM    1  C   UNL     1     -13.248  14.295  72.917  1.00  0.00    -0.593 C  
HETATM    2  C   UNL     1     -13.448  14.819  71.502  1.00  0.00    -0.473 C  
ENDROOT
BRANCH   2   3
HETATM    3  C   UNL     1     -12.435  14.186  70.558  1.00  0.00    -0.361 C  
BRANCH   3   4
HETATM    4  O   UNL     1     -12.118  12.841  70.944  1.00  0.00    -0.283 OA 
BRANCH   4   5
HETATM    5  C   UNL     1     -12.071  11.922  69.934  1.00  0.00    -0.272 C  
HETATM    6  O   UNL     1     -13.029  11.284  69.512  1.00  0.00     0.047 OA 
BRANCH   5   7
HETATM    7  C   UNL     1     -10.667  11.849  69.354  1.00  0.00     0.041 C  
BRANCH   7   8
HETATM    8  N   UNL     1     -10.581  12.460  68.015  1.00  0.00    -0.214 NA 
HETATM    9  C   UNL     1     -10.435  11.676  66.876  1.00  0.00    -0.227 C  
HETATM   10  C   UNL     1     -10.320  12.149  65.625  1.00  0.00    -0.257 C  
HETATM   11  I   UNL     1     -10.115  10.918  64.008  1.00  0.00    -0.331 I  
HETATM   12  C   UNL     1     -10.342  13.643  65.440  1.00  0.00    -0.332 C  
HETATM   13  C   UNL     1     -10.488  14.478  66.679  1.00  0.00    -0.274 C  
HETATM   14  O   UNL     1     -10.248  14.153  64.325  1.00  0.00    -0.161 OA 
HETATM   15  I   UNL     1     -10.511  16.519  66.544  1.00  0.00    -0.115 I  
HETATM   16  C   UNL     1     -10.595  13.839  67.854  1.00  0.00    -0.252 C  
ENDBRANCH   7   8
ENDBRANCH   5   7
ENDBRANCH   4   5
ENDBRANCH   3   4
ENDBRANCH   2   3
TORSDOF 5
ENDMDL
MODEL      207
REMARK 921   NORMALIZED FREE ENERGY PREDICTED BY IDOCK:   -3.00 KCAL/MOL
REMARK 922        TOTAL FREE ENERGY PREDICTED BY IDOCK:   -4.19 KCAL/MOL
REMARK 923 INTER-LIGAND FREE ENERGY PREDICTED BY IDOCK:   -3.99 KCAL/MOL
REMARK 924 INTRA-LIGAND FREE ENERGY PREDICTED BY IDOCK:   -0.20 KCAL/MOL
REMARK 927      BINDING AFFINITY PREDICTED BY RF-SCORE:    0.00 PKD
ROOT
HETATM    1  C   UNL     1      -9.829   8.794  70.588  1.00  0.00    -0.237 C  
HETATM    2  C   UNL     1     -10.822   8.949  71.731  1.00  0.00    -0.436 C  
ENDROOT
BRANCH   2   3
HETATM    3  C   UNL     1     -11.893   9.968  71.364  1.00  0.00    -0.363 C  
BRANCH   3   4
HETATM    4  O   UNL     1     -11.614  10.600  70.106  1.00  0.00    -0.276 OA 
BRANCH   4   5
HETATM    5  C   UNL     1     -11.949  11.922  70.013  1.00  0.00    -0.332 C  
HETATM    6  O   UNL     1     -12.304  12.631  70.947  1.00  0.00    -0.374 OA 
BRANCH   5   7
HETATM    7  C   UNL     1     -11.752  12.414  68.587  1.00  0.00    -0.326 C  
BRANCH   7   8
HETATM    8  N   UNL     1     -10.414  12.086  68.060  1.00  0.00    -0.200 NA 
HETATM    9  C   UNL     1      -9.350  12.969  68.201  1.00  0.00    -0.217 C  
HETATM   10  C   UNL     1      -8.111  12.764  67.729  1.00  0.00    -0.168 C  
HETATM   11  I   UNL     1      -6.605  14.120  67.991  1.00  0.00    -0.188 I  
HETATM   12  C   UNL     1      -7.853  11.483  66.981  1.00  0.00    -0.161 C  
HETATM   13  C   UNL     1      -9.013  10.544  66.824  1.00  0.00    -0.137 C  
HETATM   14  O   UNL     1      -6.743  11.220  66.521  1.00  0.00    -0.137 OA 
HETATM   15  I   UNL     1      -8.780   8.784  65.809  1.00  0.00    -0.230 I  
HETATM   16  C   UNL     1     -10.188  10.905  67.364  1.00  0.00    -0.201 C  
ENDBRANCH   7   8
ENDBRANCH   5   7
ENDBRANCH   4   5
ENDBRANCH   3   4
ENDBRANCH   2   3
TORSDOF 5
ENDMDL
MODEL      208
REMARK 921   NORMALIZED FREE ENERGY PREDICTED BY IDOCK:   -3.00 KCAL/MOL
REMARK 922        TOTAL FREE ENERGY PREDICTED BY IDOCK:   -4.19 KCAL/MOL
REMARK 923 INTER-LIGAND FREE ENERGY PREDICTED BY IDOCK:   -3.89 KCAL/MOL
REMARK 924 INTRA-LIGAND FREE ENERGY PREDICTED BY IDOCK:   -0.29 KCAL/MOL
REMARK 927      BINDING AFFINITY PREDICTED BY RF-SCORE:    0.00 PKD
ROOT
HETATM    1  C   UNL     1      -7.871   7.426  71.759  1.00  0.00    -0.090 C  
HETATM    2  C   UNL     1      -6.771   7.642  70.730  1.00  0.00    -0.042 C  
ENDROOT
BRANCH   2   3
HETATM    3  C   UNL     1      -6.911   9.018  70.090  1.00  0.00    -0.045 C  
BRANCH   3   4
HETATM    4  O   UNL     1      -8.279   9.324  69.787  1.00  0.00    -0.107 OA 
BRANCH   4   5
HETATM    5  C   UNL     1      -8.505   9.934  68.585  1.00  0.00    -0.114 C  
HETATM    6  O   UNL     1      -7.670  10.551  67.936  1.00  0.00    -0.091 OA 
BRANCH   5   7
HETATM    7  C   UNL     1      -9.933   9.680  68.127  1.00  0.00    -0.159 C  
BRANCH   7   8
HETATM    8  N   UNL     1     -10.610  10.917  67.692  1.00  0.00    -0.208 NA 
HETATM    9  C   UNL     1     -10.884  11.150  66.349  1.00  0.00    -0.225 C  
HETATM   10  C   UNL     1     -11.468  12.257  65.863  1.00  0.00    -0.376 C  
HETATM   11  I   UNL     1     -11.837  12.510  63.870  1.00  0.00    -0.682 I  
HETATM   12  C   UNL     1     -11.851  13.332  66.846  1.00  0.00    -0.392 C  
HETATM   13  C   UNL     1     -11.538  13.072  68.291  1.00  0.00    -0.340 C  
HETATM   14  O   UNL     1     -12.394  14.372  66.480  1.00  0.00    -0.411 OA 
HETATM   15  I   UNL     1     -11.997  14.473  69.709  1.00  0.00    -0.381 I  
HETATM   16  C   UNL     1     -10.952  11.906  68.604  1.00  0.00    -0.228 C  
ENDBRANCH   7   8
ENDBRANCH   5   7
ENDBRANCH   4   5
ENDBRANCH   3   4
ENDBRANCH   2   3
TORSDOF 5
ENDMDL
MODEL      209
REMARK 921   NORMALIZED FREE ENERGY PREDICTED BY IDOCK:   -2.99 KCAL/MOL
REMARK 922        TOTAL FREE ENERGY PREDICTED BY IDOCK:   -4.18 KCAL/MOL
REMARK 923 INTER-LIGAND FREE ENERGY PREDICTED BY IDOCK:   -3.96 KCAL/MOL
REMARK 924 INTRA-LIGAND FREE ENERGY PREDICTED BY IDOCK:   -0.23 KCAL/MOL
REMARK 927      BINDING AFFINITY PREDICTED BY RF-SCORE:    0.00 PKD
ROOT
HETATM    1  C   UNL     1      -5.469  14.143  71.768  1.00  0.00    -0.223 C  
HETATM    2  C   UNL     1      -5.258  14.425  70.287  1.00  0.00    -0.098 C  
ENDROOT
BRANCH   2   3
HETATM    3  C   UNL     1      -6.510  14.064  69.498  1.00  0.00    -0.122 C  
BRANCH   3   4
HETATM    4  O   UNL     1      -7.304  15.223  69.207  1.00  0.00    -0.158 OA 
BRANCH   4   5
HETATM    5  C   UNL     1      -7.312  15.632  67.902  1.00  0.00    -0.137 C  
HETATM    6  O   UNL     1      -6.334  15.668  67.165  1.00  0.00    -0.308 OA 
BRANCH   5   7
HETATM    7  C   UNL     1      -8.729  15.974  67.467  1.00  0.00    -0.182 C  
BRANCH   7   8
HETATM    8  N   UNL     1      -9.576  14.775  67.320  1.00  0.00    -0.219 NA 
HETATM    9  C   UNL     1      -9.741  14.160  66.085  1.00  0.00    -0.290 C  
HETATM   10  C   UNL     1     -10.513  13.086  65.856  1.00  0.00    -0.281 C  
HETATM   11  I   UNL     1     -10.690  12.245  64.003  1.00  0.00    -0.572 I  
HETATM   12  C   UNL     1     -11.265  12.507  67.024  1.00  0.00    -0.302 C  
HETATM   13  C   UNL     1     -11.088  13.188  68.350  1.00  0.00    -0.268 C  
HETATM   14  O   UNL     1     -11.989  11.521  66.897  1.00  0.00    -0.516 OA 
HETATM   15  I   UNL     1     -12.078  12.496  70.001  1.00  0.00    -0.033 I  
HETATM   16  C   UNL     1     -10.272  14.253  68.402  1.00  0.00    -0.245 C  
ENDBRANCH   7   8
ENDBRANCH   5   7
ENDBRANCH   4   5
ENDBRANCH   3   4
ENDBRANCH   2   3
TORSDOF 5
ENDMDL
MODEL      210
REMARK 921   NORMALIZED FREE ENERGY PREDICTED BY IDOCK:   -2.99 KCAL/MOL
REMARK 922        TOTAL FREE ENERGY PREDICTED BY IDOCK:   -4.17 KCAL/MOL
REMARK 923 INTER-LIGAND FREE ENERGY PREDICTED BY IDOCK:   -3.78 KCAL/MOL
REMARK 924 INTRA-LIGAND FREE ENERGY PREDICTED BY IDOCK:   -0.40 KCAL/MOL
REMARK 927      BINDING AFFINITY PREDICTED BY RF-SCORE:    0.00 PKD
ROOT
HETATM    1  C   UNL     1     -12.769  14.142  65.459  1.00  0.00    -0.468 C  
HETATM    2  C   UNL     1     -11.598  13.928  66.407  1.00  0.00    -0.382 C  
ENDROOT
BRANCH   2   3
HETATM    3  C   UNL     1     -11.515  12.464  66.820  1.00  0.00    -0.362 C  
BRANCH   3   4
HETATM    4  O   UNL     1     -11.518  11.592  65.681  1.00  0.00    -0.182 OA 
BRANCH   4   5
HETATM    5  C   UNL     1     -10.338  11.491  64.999  1.00  0.00    -0.281 C  
HETATM    6  O   UNL     1     -10.171  11.791  63.823  1.00  0.00    -0.324 OA 
BRANCH   5   7
HETATM    7  C   UNL     1      -9.233  11.014  65.929  1.00  0.00    -0.199 C  
BRANCH   7   8
HETATM    8  N   UNL     1      -9.098   9.545  65.932  1.00  0.00    -0.170 NA 
HETATM    9  C   UNL     1      -9.710   8.770  66.910  1.00  0.00    -0.210 C  
HETATM   10  C   UNL     1      -9.616   7.435  67.006  1.00  0.00    -0.172 C  
HETATM   11  I   UNL     1     -10.558   6.377  68.478  1.00  0.00    -0.404 I  
HETATM   12  C   UNL     1      -8.777   6.719  65.980  1.00  0.00    -0.146 C  
HETATM   13  C   UNL     1      -8.111   7.569  64.937  1.00  0.00    -0.121 C  
HETATM   14  O   UNL     1      -8.646   5.497  65.997  1.00  0.00    -0.124 OA 
HETATM   15  I   UNL     1      -6.933   6.704  63.506  1.00  0.00    -0.066 I  
HETATM   16  C   UNL     1      -8.315   8.895  64.987  1.00  0.00    -0.165 C  
ENDBRANCH   7   8
ENDBRANCH   5   7
ENDBRANCH   4   5
ENDBRANCH   3   4
ENDBRANCH   2   3
TORSDOF 5
ENDMDL
MODEL      211
REMARK 921   NORMALIZED FREE ENERGY PREDICTED BY IDOCK:   -2.98 KCAL/MOL
REMARK 922        TOTAL FREE ENERGY PREDICTED BY IDOCK:   -4.17 KCAL/MOL
REMARK 923 INTER-LIGAND FREE ENERGY PREDICTED BY IDOCK:   -3.94 KCAL/MOL
REMARK 924 INTRA-LIGAND FREE ENERGY PREDICTED BY IDOCK:   -0.23 KCAL/MOL
REMARK 927      BINDING AFFINITY PREDICTED BY RF-SCORE:    0.00 PKD
ROOT
HETATM    1  C   UNL     1      -9.360  16.867  66.335  1.00  0.00    -0.303 C  
HETATM    2  C   UNL     1      -7.918  17.289  66.092  1.00  0.00    -0.292 C  
ENDROOT
BRANCH   2   3
HETATM    3  C   UNL     1      -6.970  16.419  66.907  1.00  0.00    -0.212 C  
BRANCH   3   4
HETATM    4  O   UNL     1      -7.439  16.240  68.251  1.00  0.00    -0.149 OA 
BRANCH   4   5
HETATM    5  C   UNL     1      -7.107  15.057  68.850  1.00  0.00    -0.119 C  
HETATM    6  O   UNL     1      -6.831  14.915  70.035  1.00  0.00    -0.182 OA 
BRANCH   5   7
HETATM    7  C   UNL     1      -7.195  13.917  67.846  1.00  0.00    -0.158 C  
BRANCH   7   8
HETATM    8  N   UNL     1      -8.524  13.276  67.841  1.00  0.00    -0.164 NA 
HETATM    9  C   UNL     1      -8.764  12.118  68.571  1.00  0.00    -0.079 C  
HETATM   10  C   UNL     1      -9.931  11.454  68.601  1.00  0.00    -0.202 C  
HETATM   11  I   UNL     1     -10.194   9.760  69.710  1.00  0.00    -0.327 I  
HETATM   12  C   UNL     1     -11.064  12.000  67.773  1.00  0.00    -0.249 C  
HETATM   13  C   UNL     1     -10.787  13.244  66.979  1.00  0.00    -0.269 C  
HETATM   14  O   UNL     1     -12.165  11.452  67.751  1.00  0.00    -0.537 OA 
HETATM   15  I   UNL     1     -12.250  14.060  65.806  1.00  0.00    -0.443 I  
HETATM   16  C   UNL     1      -9.561  13.782  67.068  1.00  0.00    -0.251 C  
ENDBRANCH   7   8
ENDBRANCH   5   7
ENDBRANCH   4   5
ENDBRANCH   3   4
ENDBRANCH   2   3
TORSDOF 5
ENDMDL
MODEL      212
REMARK 921   NORMALIZED FREE ENERGY PREDICTED BY IDOCK:   -2.98 KCAL/MOL
REMARK 922        TOTAL FREE ENERGY PREDICTED BY IDOCK:   -4.16 KCAL/MOL
REMARK 923 INTER-LIGAND FREE ENERGY PREDICTED BY IDOCK:   -3.95 KCAL/MOL
REMARK 924 INTRA-LIGAND FREE ENERGY PREDICTED BY IDOCK:   -0.22 KCAL/MOL
REMARK 927      BINDING AFFINITY PREDICTED BY RF-SCORE:    0.00 PKD
ROOT
HETATM    1  C   UNL     1     -12.440  12.111  63.392  1.00  0.00    -0.625 C  
HETATM    2  C   UNL     1     -12.354  13.317  64.316  1.00  0.00    -0.406 C  
ENDROOT
BRANCH   2   3
HETATM    3  C   UNL     1     -11.499  12.989  65.533  1.00  0.00    -0.321 C  
BRANCH   3   4
HETATM    4  O   UNL     1     -12.272  12.372  66.573  1.00  0.00    -0.586 OA 
BRANCH   4   5
HETATM    5  C   UNL     1     -11.658  12.257  67.789  1.00  0.00    -0.351 C  
HETATM    6  O   UNL     1     -11.549  13.156  68.614  1.00  0.00    -0.276 OA 
BRANCH   5   7
HETATM    7  C   UNL     1     -11.185  10.828  68.007  1.00  0.00    -0.307 C  
BRANCH   7   8
HETATM    8  N   UNL     1      -9.768  10.644  67.639  1.00  0.00    -0.164 NA 
HETATM    9  C   UNL     1      -9.335   9.484  67.009  1.00  0.00    -0.148 C  
HETATM   10  C   UNL     1      -8.064   9.222  66.666  1.00  0.00    -0.108 C  
HETATM   11  I   UNL     1      -7.520   7.487  65.735  1.00  0.00    -0.092 I  
HETATM   12  C   UNL     1      -7.025  10.261  66.997  1.00  0.00    -0.089 C  
HETATM   13  C   UNL     1      -7.504  11.504  67.689  1.00  0.00    -0.110 C  
HETATM   14  O   UNL     1      -5.840  10.097  66.711  1.00  0.00    -0.049 OA 
HETATM   15  I   UNL     1      -6.175  12.971  68.201  1.00  0.00    -0.154 I  
HETATM   16  C   UNL     1      -8.816  11.604  67.955  1.00  0.00    -0.162 C  
ENDBRANCH   7   8
ENDBRANCH   5   7
ENDBRANCH   4   5
ENDBRANCH   3   4
ENDBRANCH   2   3
TORSDOF 5
ENDMDL
MODEL      213
REMARK 921   NORMALIZED FREE ENERGY PREDICTED BY IDOCK:   -2.97 KCAL/MOL
REMARK 922        TOTAL FREE ENERGY PREDICTED BY IDOCK:   -4.15 KCAL/MOL
REMARK 923 INTER-LIGAND FREE ENERGY PREDICTED BY IDOCK:   -4.41 KCAL/MOL
REMARK 924 INTRA-LIGAND FREE ENERGY PREDICTED BY IDOCK:    0.25 KCAL/MOL
REMARK 927      BINDING AFFINITY PREDICTED BY RF-SCORE:    0.00 PKD
ROOT
HETATM    1  C   UNL     1     -13.802  12.660  72.444  1.00  0.00    -0.265 C  
HETATM    2  C   UNL     1     -14.174  14.111  72.716  1.00  0.00     0.120 C  
ENDROOT
BRANCH   2   3
HETATM    3  C   UNL     1     -12.981  14.863  73.292  1.00  0.00    -0.519 C  
BRANCH   3   4
HETATM    4  O   UNL     1     -11.873  14.875  72.380  1.00  0.00    -0.339 OA 
BRANCH   4   5
HETATM    5  C   UNL     1     -11.956  15.768  71.348  1.00  0.00    -0.441 C  
HETATM    6  O   UNL     1     -11.331  16.819  71.270  1.00  0.00    -0.105 OA 
BRANCH   5   7
HETATM    7  C   UNL     1     -12.888  15.241  70.269  1.00  0.00    -0.260 C  
BRANCH   7   8
HETATM    8  N   UNL     1     -12.155  14.639  69.140  1.00  0.00    -0.280 NA 
HETATM    9  C   UNL     1     -11.932  13.268  69.076  1.00  0.00    -0.293 C  
HETATM   10  C   UNL     1     -11.253  12.642  68.103  1.00  0.00    -0.269 C  
HETATM   11  I   UNL     1     -10.981  10.618  68.091  1.00  0.00    -0.355 I  
HETATM   12  C   UNL     1     -10.678  13.489  66.998  1.00  0.00    -0.277 C  
HETATM   13  C   UNL     1     -10.915  14.969  67.085  1.00  0.00    -0.329 C  
HETATM   14  O   UNL     1     -10.047  12.989  66.068  1.00  0.00    -0.275 OA 
HETATM   15  I   UNL     1     -10.163  16.215  65.647  1.00  0.00    -0.198 I  
HETATM   16  C   UNL     1     -11.622  15.429  68.129  1.00  0.00    -0.319 C  
ENDBRANCH   7   8
ENDBRANCH   5   7
ENDBRANCH   4   5
ENDBRANCH   3   4
ENDBRANCH   2   3
TORSDOF 5
ENDMDL
MODEL      214
REMARK 921   NORMALIZED FREE ENERGY PREDICTED BY IDOCK:   -2.95 KCAL/MOL
REMARK 922        TOTAL FREE ENERGY PREDICTED BY IDOCK:   -4.13 KCAL/MOL
REMARK 923 INTER-LIGAND FREE ENERGY PREDICTED BY IDOCK:   -4.67 KCAL/MOL
REMARK 924 INTRA-LIGAND FREE ENERGY PREDICTED BY IDOCK:    0.54 KCAL/MOL
REMARK 927      BINDING AFFINITY PREDICTED BY RF-SCORE:    0.00 PKD
ROOT
HETATM    1  C   UNL     1     -10.418  17.837  67.284  1.00  0.00    -0.356 C  
HETATM    2  C   UNL     1      -9.948  17.586  65.858  1.00  0.00    -0.155 C  
ENDROOT
BRANCH   2   3
HETATM    3  C   UNL     1     -11.024  16.849  65.071  1.00  0.00    -0.046 C  
BRANCH   3   4
HETATM    4  O   UNL     1     -10.923  15.427  65.239  1.00  0.00    -0.353 OA 
BRANCH   4   5
HETATM    5  C   UNL     1     -12.017  14.700  64.862  1.00  0.00    -0.400 C  
HETATM    6  O   UNL     1     -12.657  14.865  63.831  1.00  0.00    -0.831 OA 
BRANCH   5   7
HETATM    7  C   UNL     1     -12.293  13.602  65.878  1.00  0.00    -0.471 C  
BRANCH   7   8
HETATM    8  N   UNL     1     -11.055  12.973  66.375  1.00  0.00    -0.281 NA 
HETATM    9  C   UNL     1     -10.001  13.743  66.852  1.00  0.00    -0.264 C  
HETATM   10  C   UNL     1      -8.830  13.257  67.295  1.00  0.00    -0.216 C  
HETATM   11  I   UNL     1      -7.337  14.469  67.984  1.00  0.00    -0.214 I  
HETATM   12  C   UNL     1      -8.640  11.764  67.266  1.00  0.00    -0.162 C  
HETATM   13  C   UNL     1      -9.782  10.945  66.737  1.00  0.00    -0.190 C  
HETATM   14  O   UNL     1      -7.598  11.242  67.659  1.00  0.00    -0.099 OA 
HETATM   15  I   UNL     1      -9.623   8.908  66.635  1.00  0.00    -0.350 I  
HETATM   16  C   UNL     1     -10.885  11.595  66.337  1.00  0.00    -0.287 C  
ENDBRANCH   7   8
ENDBRANCH   5   7
ENDBRANCH   4   5
ENDBRANCH   3   4
ENDBRANCH   2   3
TORSDOF 5
ENDMDL
MODEL      215
REMARK 921   NORMALIZED FREE ENERGY PREDICTED BY IDOCK:   -2.95 KCAL/MOL
REMARK 922        TOTAL FREE ENERGY PREDICTED BY IDOCK:   -4.13 KCAL/MOL
REMARK 923 INTER-LIGAND FREE ENERGY PREDICTED BY IDOCK:   -4.57 KCAL/MOL
REMARK 924 INTRA-LIGAND FREE ENERGY PREDICTED BY IDOCK:    0.44 KCAL/MOL
REMARK 927      BINDING AFFINITY PREDICTED BY RF-SCORE:    0.00 PKD
ROOT
HETATM    1  C   UNL     1     -13.828  12.783  72.332  1.00  0.00    -0.360 C  
HETATM    2  C   UNL     1     -13.635  14.289  72.441  1.00  0.00    -0.599 C  
ENDROOT
BRANCH   2   3
HETATM    3  C   UNL     1     -12.221  14.606  72.913  1.00  0.00    -0.161 C  
BRANCH   3   4
HETATM    4  O   UNL     1     -11.321  14.779  71.809  1.00  0.00    -0.219 OA 
BRANCH   4   5
HETATM    5  C   UNL     1     -11.615  15.800  70.949  1.00  0.00    -0.405 C  
HETATM    6  O   UNL     1     -11.211  16.952  71.053  1.00  0.00     0.046 OA 
BRANCH   5   7
HETATM    7  C   UNL     1     -12.467  15.288  69.798  1.00  0.00    -0.188 C  
BRANCH   7   8
HETATM    8  N   UNL     1     -11.696  15.156  68.546  1.00  0.00    -0.336 NA 
HETATM    9  C   UNL     1     -10.559  15.922  68.319  1.00  0.00    -0.276 C  
HETATM   10  C   UNL     1      -9.817  15.887  67.201  1.00  0.00    -0.231 C  
HETATM   11  I   UNL     1      -8.154  17.048  66.958  1.00  0.00    -0.308 I  
HETATM   12  C   UNL     1     -10.254  14.953  66.104  1.00  0.00    -0.300 C  
HETATM   13  C   UNL     1     -11.491  14.141  66.357  1.00  0.00    -0.354 C  
HETATM   14  O   UNL     1      -9.625  14.859  65.051  1.00  0.00    -0.039 OA 
HETATM   15  I   UNL     1     -12.185  12.853  64.927  1.00  0.00    -0.524 I  
HETATM   16  C   UNL     1     -12.112  14.297  67.537  1.00  0.00    -0.312 C  
ENDBRANCH   7   8
ENDBRANCH   5   7
ENDBRANCH   4   5
ENDBRANCH   3   4
ENDBRANCH   2   3
TORSDOF 5
ENDMDL
MODEL      216
REMARK 921   NORMALIZED FREE ENERGY PREDICTED BY IDOCK:   -2.94 KCAL/MOL
REMARK 922        TOTAL FREE ENERGY PREDICTED BY IDOCK:   -4.12 KCAL/MOL
REMARK 923 INTER-LIGAND FREE ENERGY PREDICTED BY IDOCK:   -3.75 KCAL/MOL
REMARK 924 INTRA-LIGAND FREE ENERGY PREDICTED BY IDOCK:   -0.37 KCAL/MOL
REMARK 927      BINDING AFFINITY PREDICTED BY RF-SCORE:    0.00 PKD
ROOT
HETATM    1  C   UNL     1      -7.682  15.074  67.410  1.00  0.00    -0.227 C  
HETATM    2  C   UNL     1      -7.198  13.633  67.484  1.00  0.00    -0.169 C  
ENDROOT
BRANCH   2   3
HETATM    3  C   UNL     1      -8.247  12.758  68.159  1.00  0.00    -0.167 C  
BRANCH   3   4
HETATM    4  O   UNL     1      -8.227  11.418  67.648  1.00  0.00    -0.121 OA 
BRANCH   4   5
HETATM    5  C   UNL     1      -9.133  11.138  66.663  1.00  0.00    -0.170 C  
HETATM    6  O   UNL     1      -8.878  11.064  65.467  1.00  0.00    -0.195 OA 
BRANCH   5   7
HETATM    7  C   UNL     1     -10.500  10.863  67.268  1.00  0.00    -0.232 C  
BRANCH   7   8
HETATM    8  N   UNL     1     -10.560   9.554  67.947  1.00  0.00    -0.245 NA 
HETATM    9  C   UNL     1     -10.363   8.372  67.244  1.00  0.00    -0.299 C  
HETATM   10  C   UNL     1     -10.427   7.140  67.775  1.00  0.00    -0.223 C  
HETATM   11  I   UNL     1     -10.116   5.455  66.663  1.00  0.00    -0.315 I  
HETATM   12  C   UNL     1     -10.746   7.030  69.243  1.00  0.00    -0.225 C  
HETATM   13  C   UNL     1     -10.969   8.314  69.987  1.00  0.00    -0.197 C  
HETATM   14  O   UNL     1     -10.818   5.937  69.803  1.00  0.00    -0.317 OA 
HETATM   15  I   UNL     1     -11.427   8.279  71.980  1.00  0.00    -0.474 I  
HETATM   16  C   UNL     1     -10.862   9.462  69.299  1.00  0.00    -0.172 C  
ENDBRANCH   7   8
ENDBRANCH   5   7
ENDBRANCH   4   5
ENDBRANCH   3   4
ENDBRANCH   2   3
TORSDOF 5
ENDMDL
MODEL      217
REMARK 921   NORMALIZED FREE ENERGY PREDICTED BY IDOCK:   -2.94 KCAL/MOL
REMARK 922        TOTAL FREE ENERGY PREDICTED BY IDOCK:   -4.11 KCAL/MOL
REMARK 923 INTER-LIGAND FREE ENERGY PREDICTED BY IDOCK:   -3.90 KCAL/MOL
REMARK 924 INTRA-LIGAND FREE ENERGY PREDICTED BY IDOCK:   -0.21 KCAL/MOL
REMARK 927      BINDING AFFINITY PREDICTED BY RF-SCORE:    0.00 PKD
ROOT
HETATM    1  C   UNL     1      -6.963   6.972  69.247  1.00  0.00    -0.074 C  
HETATM    2  C   UNL     1      -7.802   5.725  69.486  1.00  0.00    -0.093 C  
ENDROOT
BRANCH   2   3
HETATM    3  C   UNL     1      -9.166   5.872  68.824  1.00  0.00    -0.115 C  
BRANCH   3   4
HETATM    4  O   UNL     1      -9.069   6.529  67.552  1.00  0.00    -0.117 OA 
BRANCH   4   5
HETATM    5  C   UNL     1     -10.174   7.228  67.152  1.00  0.00    -0.269 C  
HETATM    6  O   UNL     1     -11.285   6.748  66.964  1.00  0.00    -0.393 OA 
BRANCH   5   7
HETATM    7  C   UNL     1      -9.846   8.708  67.037  1.00  0.00    -0.220 C  
BRANCH   7   8
HETATM    8  N   UNL     1     -10.524   9.515  68.070  1.00  0.00    -0.219 NA 
HETATM    9  C   UNL     1     -10.757  10.872  67.883  1.00  0.00    -0.231 C  
HETATM   10  C   UNL     1     -11.339  11.684  68.779  1.00  0.00    -0.264 C  
HETATM   11  I   UNL     1     -11.645  13.671  68.413  1.00  0.00    -0.428 I  
HETATM   12  C   UNL     1     -11.767  11.083  70.091  1.00  0.00    -0.356 C  
HETATM   13  C   UNL     1     -11.499   9.618  70.285  1.00  0.00    -0.233 C  
HETATM   14  O   UNL     1     -12.312  11.760  70.961  1.00  0.00    -0.358 OA 
HETATM   15  I   UNL     1     -12.021   8.702  72.037  1.00  0.00    -0.432 I  
HETATM   16  C   UNL     1     -10.908   8.952  69.280  1.00  0.00    -0.096 C  
ENDBRANCH   7   8
ENDBRANCH   5   7
ENDBRANCH   4   5
ENDBRANCH   3   4
ENDBRANCH   2   3
TORSDOF 5
ENDMDL
MODEL      218
REMARK 921   NORMALIZED FREE ENERGY PREDICTED BY IDOCK:   -2.93 KCAL/MOL
REMARK 922        TOTAL FREE ENERGY PREDICTED BY IDOCK:   -4.11 KCAL/MOL
REMARK 923 INTER-LIGAND FREE ENERGY PREDICTED BY IDOCK:   -3.80 KCAL/MOL
REMARK 924 INTRA-LIGAND FREE ENERGY PREDICTED BY IDOCK:   -0.31 KCAL/MOL
REMARK 927      BINDING AFFINITY PREDICTED BY RF-SCORE:    0.00 PKD
ROOT
HETATM    1  C   UNL     1     -13.256  11.792  71.934  1.00  0.00    -0.468 C  
HETATM    2  C   UNL     1     -12.316  11.082  70.970  1.00  0.00    -0.490 C  
ENDROOT
BRANCH   2   3
HETATM    3  C   UNL     1     -11.870   9.748  71.555  1.00  0.00    -0.399 C  
BRANCH   3   4
HETATM    4  O   UNL     1     -12.025   8.678  70.611  1.00  0.00    -0.190 OA 
BRANCH   4   5
HETATM    5  C   UNL     1     -12.220   7.434  71.142  1.00  0.00    -0.324 C  
HETATM    6  O   UNL     1     -13.110   7.131  71.928  1.00  0.00    -0.309 OA 
BRANCH   5   7
HETATM    7  C   UNL     1     -11.212   6.452  70.565  1.00  0.00    -0.352 C  
BRANCH   7   8
HETATM    8  N   UNL     1     -10.273   5.948  71.585  1.00  0.00    -0.196 NA 
HETATM    9  C   UNL     1     -10.524   4.765  72.270  1.00  0.00    -0.189 C  
HETATM   10  C   UNL     1      -9.740   4.250  73.230  1.00  0.00    -0.126 C  
HETATM   11  I   UNL     1     -10.188   2.497  74.180  1.00  0.00    -0.230 I  
HETATM   12  C   UNL     1      -8.498   5.015  73.601  1.00  0.00    -0.105 C  
HETATM   13  C   UNL     1      -8.245   6.297  72.863  1.00  0.00    -0.115 C  
HETATM   14  O   UNL     1      -7.727   4.606  74.468  1.00  0.00    -0.083 OA 
HETATM   15  I   UNL     1      -6.597   7.427  73.300  1.00  0.00    -0.079 I  
HETATM   16  C   UNL     1      -9.133   6.665  71.926  1.00  0.00    -0.143 C  
ENDBRANCH   7   8
ENDBRANCH   5   7
ENDBRANCH   4   5
ENDBRANCH   3   4
ENDBRANCH   2   3
TORSDOF 5
ENDMDL
MODEL      219
REMARK 921   NORMALIZED FREE ENERGY PREDICTED BY IDOCK:   -2.93 KCAL/MOL
REMARK 922        TOTAL FREE ENERGY PREDICTED BY IDOCK:   -4.10 KCAL/MOL
REMARK 923 INTER-LIGAND FREE ENERGY PREDICTED BY IDOCK:   -3.76 KCAL/MOL
REMARK 924 INTRA-LIGAND FREE ENERGY PREDICTED BY IDOCK:   -0.33 KCAL/MOL
REMARK 927      BINDING AFFINITY PREDICTED BY RF-SCORE:    0.00 PKD
ROOT
HETATM    1  C   UNL     1     -11.980  11.015  70.074  1.00  0.00    -0.430 C  
HETATM    2  C   UNL     1     -11.088   9.874  70.540  1.00  0.00    -0.398 C  
ENDROOT
BRANCH   2   3
HETATM    3  C   UNL     1     -10.681   9.005  69.356  1.00  0.00    -0.191 C  
BRANCH   3   4
HETATM    4  O   UNL     1     -11.009   9.627  68.105  1.00  0.00    -0.216 OA 
BRANCH   4   5
HETATM    5  C   UNL     1     -10.181   9.339  67.057  1.00  0.00    -0.262 C  
HETATM    6  O   UNL     1      -9.531   8.308  66.931  1.00  0.00    -0.161 OA 
BRANCH   5   7
HETATM    7  C   UNL     1     -10.229  10.455  66.026  1.00  0.00    -0.228 C  
BRANCH   7   8
HETATM    8  N   UNL     1      -9.548  11.678  66.491  1.00  0.00    -0.203 NA 
HETATM    9  C   UNL     1     -10.014  12.939  66.136  1.00  0.00    -0.272 C  
HETATM   10  C   UNL     1      -9.441  14.100  66.490  1.00  0.00    -0.285 C  
HETATM   11  I   UNL     1     -10.203  15.909  65.924  1.00  0.00    -0.406 I  
HETATM   12  C   UNL     1      -8.193  14.034  67.329  1.00  0.00    -0.171 C  
HETATM   13  C   UNL     1      -7.693  12.666  67.695  1.00  0.00    -0.155 C  
HETATM   14  O   UNL     1      -7.612  15.054  67.698  1.00  0.00    -0.144 OA 
HETATM   15  I   UNL     1      -5.995  12.460  68.816  1.00  0.00    -0.084 I  
HETATM   16  C   UNL     1      -8.393  11.607  67.258  1.00  0.00    -0.158 C  
ENDBRANCH   7   8
ENDBRANCH   5   7
ENDBRANCH   4   5
ENDBRANCH   3   4
ENDBRANCH   2   3
TORSDOF 5
ENDMDL
MODEL      220
REMARK 921   NORMALIZED FREE ENERGY PREDICTED BY IDOCK:   -2.92 KCAL/MOL
REMARK 922        TOTAL FREE ENERGY PREDICTED BY IDOCK:   -4.09 KCAL/MOL
REMARK 923 INTER-LIGAND FREE ENERGY PREDICTED BY IDOCK:   -3.55 KCAL/MOL
REMARK 924 INTRA-LIGAND FREE ENERGY PREDICTED BY IDOCK:   -0.54 KCAL/MOL
REMARK 927      BINDING AFFINITY PREDICTED BY RF-SCORE:    0.00 PKD
ROOT
HETATM    1  C   UNL     1      -9.602   9.758  70.146  1.00  0.00    -0.287 C  
HETATM    2  C   UNL     1      -9.783   8.904  71.393  1.00  0.00    -0.370 C  
ENDROOT
BRANCH   2   3
HETATM    3  C   UNL     1     -10.987   7.984  71.232  1.00  0.00    -0.236 C  
BRANCH   3   4
HETATM    4  O   UNL     1     -11.262   7.709  69.851  1.00  0.00    -0.204 OA 
BRANCH   4   5
HETATM    5  C   UNL     1     -10.925   6.460  69.409  1.00  0.00    -0.359 C  
HETATM    6  O   UNL     1     -10.709   5.490  70.126  1.00  0.00    -0.306 OA 
BRANCH   5   7
HETATM    7  C   UNL     1     -10.920   6.424  67.889  1.00  0.00    -0.325 C  
BRANCH   7   8
HETATM    8  N   UNL     1      -9.937   7.358  67.309  1.00  0.00    -0.178 NA 
HETATM    9  C   UNL     1      -8.573   7.182  67.510  1.00  0.00    -0.122 C  
HETATM   10  C   UNL     1      -7.613   7.997  67.045  1.00  0.00    -0.096 C  
HETATM   11  I   UNL     1      -5.629   7.653  67.386  1.00  0.00    -0.038 I  
HETATM   12  C   UNL     1      -8.046   9.201  66.251  1.00  0.00    -0.111 C  
HETATM   13  C   UNL     1      -9.523   9.387  66.052  1.00  0.00    -0.241 C  
HETATM   14  O   UNL     1      -7.228   9.993  65.787  1.00  0.00    -0.104 OA 
HETATM   15  I   UNL     1     -10.223  10.999  65.006  1.00  0.00    -0.343 I  
HETATM   16  C   UNL     1     -10.346   8.471  66.585  1.00  0.00    -0.233 C  
ENDBRANCH   7   8
ENDBRANCH   5   7
ENDBRANCH   4   5
ENDBRANCH   3   4
ENDBRANCH   2   3
TORSDOF 5
ENDMDL
MODEL      221
REMARK 921   NORMALIZED FREE ENERGY PREDICTED BY IDOCK:   -2.92 KCAL/MOL
REMARK 922        TOTAL FREE ENERGY PREDICTED BY IDOCK:   -4.09 KCAL/MOL
REMARK 923 INTER-LIGAND FREE ENERGY PREDICTED BY IDOCK:   -3.88 KCAL/MOL
REMARK 924 INTRA-LIGAND FREE ENERGY PREDICTED BY IDOCK:   -0.20 KCAL/MOL
REMARK 927      BINDING AFFINITY PREDICTED BY RF-SCORE:    0.00 PKD
ROOT
HETATM    1  C   UNL     1      -9.921  10.573  64.276  1.00  0.00    -0.398 C  
HETATM    2  C   UNL     1     -10.540  11.487  65.324  1.00  0.00    -0.339 C  
ENDROOT
BRANCH   2   3
HETATM    3  C   UNL     1      -9.768  11.386  66.634  1.00  0.00    -0.200 C  
BRANCH   3   4
HETATM    4  O   UNL     1     -10.336  10.400  67.509  1.00  0.00    -0.197 OA 
BRANCH   4   5
HETATM    5  C   UNL     1      -9.474   9.818  68.396  1.00  0.00    -0.140 C  
HETATM    6  O   UNL     1      -8.796  10.418  69.221  1.00  0.00    -0.166 OA 
BRANCH   5   7
HETATM    7  C   UNL     1      -9.525   8.304  68.262  1.00  0.00    -0.138 C  
BRANCH   7   8
HETATM    8  N   UNL     1     -10.165   7.660  69.425  1.00  0.00    -0.201 NA 
HETATM    9  C   UNL     1      -9.762   6.403  69.861  1.00  0.00    -0.166 C  
HETATM   10  C   UNL     1     -10.306   5.733  70.888  1.00  0.00    -0.237 C  
HETATM   11  I   UNL     1      -9.643   3.888  71.461  1.00  0.00    -0.220 I  
HETATM   12  C   UNL     1     -11.446   6.388  71.622  1.00  0.00    -0.303 C  
HETATM   13  C   UNL     1     -11.880   7.739  71.134  1.00  0.00    -0.291 C  
HETATM   14  O   UNL     1     -11.994   5.840  72.577  1.00  0.00    -0.275 OA 
HETATM   15  I   UNL     1     -13.431   8.711  72.046  1.00  0.00    -0.479 I  
HETATM   16  C   UNL     1     -11.221   8.268  70.091  1.00  0.00    -0.132 C  
ENDBRANCH   7   8
ENDBRANCH   5   7
ENDBRANCH   4   5
ENDBRANCH   3   4
ENDBRANCH   2   3
TORSDOF 5
ENDMDL
MODEL      222
REMARK 921   NORMALIZED FREE ENERGY PREDICTED BY IDOCK:   -2.92 KCAL/MOL
REMARK 922        TOTAL FREE ENERGY PREDICTED BY IDOCK:   -4.08 KCAL/MOL
REMARK 923 INTER-LIGAND FREE ENERGY PREDICTED BY IDOCK:   -3.80 KCAL/MOL
REMARK 924 INTRA-LIGAND FREE ENERGY PREDICTED BY IDOCK:   -0.28 KCAL/MOL
REMARK 927      BINDING AFFINITY PREDICTED BY RF-SCORE:    0.00 PKD
ROOT
HETATM    1  C   UNL     1      -6.823  18.590  66.939  1.00  0.00    -0.210 C  
HETATM    2  C   UNL     1      -7.271  17.138  67.022  1.00  0.00    -0.219 C  
ENDROOT
BRANCH   2   3
HETATM    3  C   UNL     1      -8.629  16.966  66.353  1.00  0.00    -0.293 C  
BRANCH   3   4
HETATM    4  O   UNL     1      -8.930  15.584  66.113  1.00  0.00    -0.316 OA 
BRANCH   4   5
HETATM    5  C   UNL     1     -10.153  15.153  66.546  1.00  0.00    -0.269 C  
HETATM    6  O   UNL     1     -10.935  15.807  67.226  1.00  0.00    -0.316 OA 
BRANCH   5   7
HETATM    7  C   UNL     1     -10.442  13.762  66.004  1.00  0.00    -0.297 C  
BRANCH   7   8
HETATM    8  N   UNL     1     -10.073  12.700  66.959  1.00  0.00    -0.223 NA 
HETATM    9  C   UNL     1     -10.928  12.333  67.990  1.00  0.00    -0.225 C  
HETATM   10  C   UNL     1     -10.661  11.400  68.918  1.00  0.00    -0.202 C  
HETATM   11  I   UNL     1     -11.986  10.921  70.397  1.00  0.00    -0.473 I  
HETATM   12  C   UNL     1      -9.328  10.704  68.842  1.00  0.00    -0.184 C  
HETATM   13  C   UNL     1      -8.408  11.119  67.731  1.00  0.00    -0.123 C  
HETATM   14  O   UNL     1      -9.011   9.835  69.653  1.00  0.00    -0.184 OA 
HETATM   15  I   UNL     1      -6.565  10.252  67.545  1.00  0.00    -0.069 I  
HETATM   16  C   UNL     1      -8.838  12.069  66.886  1.00  0.00    -0.197 C  
ENDBRANCH   7   8
ENDBRANCH   5   7
ENDBRANCH   4   5
ENDBRANCH   3   4
ENDBRANCH   2   3
TORSDOF 5
ENDMDL
MODEL      223
REMARK 921   NORMALIZED FREE ENERGY PREDICTED BY IDOCK:   -2.90 KCAL/MOL
REMARK 922        TOTAL FREE ENERGY PREDICTED BY IDOCK:   -4.06 KCAL/MOL
REMARK 923 INTER-LIGAND FREE ENERGY PREDICTED BY IDOCK:   -3.89 KCAL/MOL
REMARK 924 INTRA-LIGAND FREE ENERGY PREDICTED BY IDOCK:   -0.18 KCAL/MOL
REMARK 927      BINDING AFFINITY PREDICTED BY RF-SCORE:    0.00 PKD
ROOT
HETATM    1  C   UNL     1     -11.681  13.653  66.991  1.00  0.00    -0.419 C  
HETATM    2  C   UNL     1     -10.404  13.887  67.787  1.00  0.00    -0.240 C  
ENDROOT
BRANCH   2   3
HETATM    3  C   UNL     1      -9.379  12.805  67.469  1.00  0.00    -0.189 C  
BRANCH   3   4
HETATM    4  O   UNL     1      -8.184  12.963  68.246  1.00  0.00    -0.150 OA 
BRANCH   4   5
HETATM    5  C   UNL     1      -7.666  11.821  68.789  1.00  0.00    -0.091 C  
HETATM    6  O   UNL     1      -6.675  11.764  69.508  1.00  0.00    -0.112 OA 
BRANCH   5   7
HETATM    7  C   UNL     1      -8.536  10.626  68.430  1.00  0.00    -0.132 C  
BRANCH   7   8
HETATM    8  N   UNL     1      -9.055   9.932  69.623  1.00  0.00    -0.216 NA 
HETATM    9  C   UNL     1     -10.385  10.058  70.006  1.00  0.00    -0.272 C  
HETATM   10  C   UNL     1     -10.932   9.486  71.090  1.00  0.00    -0.368 C  
HETATM   11  I   UNL     1     -12.903   9.725  71.571  1.00  0.00    -0.569 I  
HETATM   12  C   UNL     1     -10.037   8.649  71.965  1.00  0.00    -0.331 C  
HETATM   13  C   UNL     1      -8.600   8.531  71.547  1.00  0.00    -0.181 C  
HETATM   14  O   UNL     1     -10.464   8.089  72.972  1.00  0.00    -0.342 OA 
HETATM   15  I   UNL     1      -7.290   7.434  72.672  1.00  0.00    -0.104 I  
HETATM   16  C   UNL     1      -8.219   9.168  70.428  1.00  0.00    -0.171 C  
ENDBRANCH   7   8
ENDBRANCH   5   7
ENDBRANCH   4   5
ENDBRANCH   3   4
ENDBRANCH   2   3
TORSDOF 5
ENDMDL
MODEL      224
REMARK 921   NORMALIZED FREE ENERGY PREDICTED BY IDOCK:   -2.89 KCAL/MOL
REMARK 922        TOTAL FREE ENERGY PREDICTED BY IDOCK:   -4.05 KCAL/MOL
REMARK 923 INTER-LIGAND FREE ENERGY PREDICTED BY IDOCK:   -3.62 KCAL/MOL
REMARK 924 INTRA-LIGAND FREE ENERGY PREDICTED BY IDOCK:   -0.43 KCAL/MOL
REMARK 927      BINDING AFFINITY PREDICTED BY RF-SCORE:    0.00 PKD
ROOT
HETATM    1  C   UNL     1     -10.760  15.969  66.706  1.00  0.00    -0.259 C  
HETATM    2  C   UNL     1      -9.957  14.785  66.188  1.00  0.00    -0.324 C  
ENDROOT
BRANCH   2   3
HETATM    3  C   UNL     1     -10.490  14.339  64.832  1.00  0.00    -0.430 C  
BRANCH   3   4
HETATM    4  O   UNL     1     -11.658  13.517  64.965  1.00  0.00    -0.312 OA 
BRANCH   4   5
HETATM    5  C   UNL     1     -11.450  12.252  65.440  1.00  0.00    -0.354 C  
HETATM    6  O   UNL     1     -11.932  11.794  66.469  1.00  0.00    -0.545 OA 
BRANCH   5   7
HETATM    7  C   UNL     1     -10.582  11.463  64.472  1.00  0.00    -0.328 C  
BRANCH   7   8
HETATM    8  N   UNL     1      -9.452  10.796  65.147  1.00  0.00    -0.211 NA 
HETATM    9  C   UNL     1      -9.339   9.411  65.158  1.00  0.00    -0.221 C  
HETATM   10  C   UNL     1      -8.363   8.723  65.770  1.00  0.00    -0.134 C  
HETATM   11  I   UNL     1      -8.274   6.682  65.727  1.00  0.00    -0.133 I  
HETATM   12  C   UNL     1      -7.314   9.509  66.510  1.00  0.00    -0.090 C  
HETATM   13  C   UNL     1      -7.455  11.004  66.502  1.00  0.00    -0.145 C  
HETATM   14  O   UNL     1      -6.385   8.952  67.092  1.00  0.00    -0.058 OA 
HETATM   15  I   UNL     1      -6.096  12.169  67.491  1.00  0.00    -0.141 I  
HETATM   16  C   UNL     1      -8.494  11.530  65.834  1.00  0.00     0.062 C  
ENDBRANCH   7   8
ENDBRANCH   5   7
ENDBRANCH   4   5
ENDBRANCH   3   4
ENDBRANCH   2   3
TORSDOF 5
ENDMDL
MODEL      225
REMARK 921   NORMALIZED FREE ENERGY PREDICTED BY IDOCK:   -2.86 KCAL/MOL
REMARK 922        TOTAL FREE ENERGY PREDICTED BY IDOCK:   -4.01 KCAL/MOL
REMARK 923 INTER-LIGAND FREE ENERGY PREDICTED BY IDOCK:   -3.70 KCAL/MOL
REMARK 924 INTRA-LIGAND FREE ENERGY PREDICTED BY IDOCK:   -0.31 KCAL/MOL
REMARK 927      BINDING AFFINITY PREDICTED BY RF-SCORE:    0.00 PKD
ROOT
HETATM    1  C   UNL     1     -11.841  14.156  67.118  1.00  0.00    -0.454 C  
HETATM    2  C   UNL     1     -10.598  13.431  67.614  1.00  0.00    -0.249 C  
ENDROOT
BRANCH   2   3
HETATM    3  C   UNL     1     -10.724  11.934  67.358  1.00  0.00    -0.232 C  
BRANCH   3   4
HETATM    4  O   UNL     1      -9.487  11.250  67.606  1.00  0.00    -0.164 OA 
BRANCH   4   5
HETATM    5  C   UNL     1      -9.450  10.466  68.725  1.00  0.00    -0.175 C  
HETATM    6  O   UNL     1      -8.507  10.387  69.503  1.00  0.00    -0.160 OA 
BRANCH   5   7
HETATM    7  C   UNL     1     -10.778   9.749  68.910  1.00  0.00    -0.217 C  
BRANCH   7   8
HETATM    8  N   UNL     1     -10.611   8.295  69.088  1.00  0.00    -0.202 NA 
HETATM    9  C   UNL     1     -10.419   7.455  67.997  1.00  0.00    -0.199 C  
HETATM   10  C   UNL     1     -10.287   6.121  68.065  1.00  0.00    -0.199 C  
HETATM   11  I   UNL     1     -10.002   4.967  66.404  1.00  0.00    -0.314 I  
HETATM   12  C   UNL     1     -10.361   5.482  69.427  1.00  0.00    -0.278 C  
HETATM   13  C   UNL     1     -10.581   6.398  70.595  1.00  0.00    -0.237 C  
HETATM   14  O   UNL     1     -10.244   4.266  69.572  1.00  0.00    -0.047 OA 
HETATM   15  I   UNL     1     -10.716   5.635  72.488  1.00  0.00    -0.335 I  
HETATM   16  C   UNL     1     -10.688   7.713  70.347  1.00  0.00    -0.236 C  
ENDBRANCH   7   8
ENDBRANCH   5   7
ENDBRANCH   4   5
ENDBRANCH   3   4
ENDBRANCH   2   3
TORSDOF 5
ENDMDL
MODEL      226
REMARK 921   NORMALIZED FREE ENERGY PREDICTED BY IDOCK:   -2.85 KCAL/MOL
REMARK 922        TOTAL FREE ENERGY PREDICTED BY IDOCK:   -4.00 KCAL/MOL
REMARK 923 INTER-LIGAND FREE ENERGY PREDICTED BY IDOCK:   -3.69 KCAL/MOL
REMARK 924 INTRA-LIGAND FREE ENERGY PREDICTED BY IDOCK:   -0.30 KCAL/MOL
REMARK 927      BINDING AFFINITY PREDICTED BY RF-SCORE:    0.00 PKD
ROOT
HETATM    1  C   UNL     1     -13.059  11.986  71.861  1.00  0.00    -0.475 C  
HETATM    2  C   UNL     1     -13.338  13.473  71.698  1.00  0.00    -0.420 C  
ENDROOT
BRANCH   2   3
HETATM    3  C   UNL     1     -12.470  14.054  70.589  1.00  0.00    -0.365 C  
BRANCH   3   4
HETATM    4  O   UNL     1     -11.649  13.048  69.977  1.00  0.00    -0.235 OA 
BRANCH   4   5
HETATM    5  C   UNL     1     -11.384  13.218  68.646  1.00  0.00    -0.288 C  
HETATM    6  O   UNL     1     -10.690  14.109  68.171  1.00  0.00    -0.237 OA 
BRANCH   5   7
HETATM    7  C   UNL     1     -12.021  12.100  67.836  1.00  0.00    -0.148 C  
BRANCH   7   8
HETATM    8  N   UNL     1     -11.069  11.014  67.536  1.00  0.00    -0.286 NA 
HETATM    9  C   UNL     1     -10.587  10.818  66.247  1.00  0.00    -0.192 C  
HETATM   10  C   UNL     1      -9.743   9.841  65.880  1.00  0.00    -0.266 C  
HETATM   11  I   UNL     1      -9.082   9.635  63.958  1.00  0.00     0.057 I  
HETATM   12  C   UNL     1      -9.290   8.875  66.943  1.00  0.00    -0.168 C  
HETATM   13  C   UNL     1      -9.828   9.090  68.328  1.00  0.00    -0.166 C  
HETATM   14  O   UNL     1      -8.514   7.956  66.687  1.00  0.00    -0.123 OA 
HETATM   15  I   UNL     1      -9.293   7.827  69.845  1.00  0.00    -0.154 I  
HETATM   16  C   UNL     1     -10.663  10.124  68.521  1.00  0.00    -0.230 C  
ENDBRANCH   7   8
ENDBRANCH   5   7
ENDBRANCH   4   5
ENDBRANCH   3   4
ENDBRANCH   2   3
TORSDOF 5
ENDMDL
MODEL      227
REMARK 921   NORMALIZED FREE ENERGY PREDICTED BY IDOCK:   -2.84 KCAL/MOL
REMARK 922        TOTAL FREE ENERGY PREDICTED BY IDOCK:   -3.99 KCAL/MOL
REMARK 923 INTER-LIGAND FREE ENERGY PREDICTED BY IDOCK:   -3.42 KCAL/MOL
REMARK 924 INTRA-LIGAND FREE ENERGY PREDICTED BY IDOCK:   -0.57 KCAL/MOL
REMARK 927      BINDING AFFINITY PREDICTED BY RF-SCORE:    0.00 PKD
ROOT
HETATM    1  C   UNL     1      -8.279   8.309  72.492  1.00  0.00    -0.224 C  
HETATM    2  C   UNL     1      -7.104   8.024  71.567  1.00  0.00    -0.069 C  
ENDROOT
BRANCH   2   3
HETATM    3  C   UNL     1      -6.583   9.321  70.961  1.00  0.00    -0.091 C  
BRANCH   3   4
HETATM    4  O   UNL     1      -7.655  10.174  70.534  1.00  0.00    -0.269 OA 
BRANCH   4   5
HETATM    5  C   UNL     1      -7.667  10.503  69.207  1.00  0.00    -0.144 C  
HETATM    6  O   UNL     1      -6.673  10.690  68.515  1.00  0.00    -0.055 OA 
BRANCH   5   7
HETATM    7  C   UNL     1      -9.095  10.540  68.688  1.00  0.00    -0.158 C  
BRANCH   7   8
HETATM    8  N   UNL     1      -9.933   9.478  69.276  1.00  0.00    -0.178 NA 
HETATM    9  C   UNL     1     -10.978   9.784  70.140  1.00  0.00    -0.291 C  
HETATM   10  C   UNL     1     -11.770   8.882  70.741  1.00  0.00    -0.230 C  
HETATM   11  I   UNL     1     -13.289   9.428  71.993  1.00  0.00    -0.509 I  
HETATM   12  C   UNL     1     -11.502   7.426  70.467  1.00  0.00    -0.255 C  
HETATM   13  C   UNL     1     -10.363   7.109  69.542  1.00  0.00    -0.215 C  
HETATM   14  O   UNL     1     -12.187   6.540  70.976  1.00  0.00    -0.328 OA 
HETATM   15  I   UNL     1      -9.898   5.163  69.115  1.00  0.00    -0.243 I  
HETATM   16  C   UNL     1      -9.674   8.137  69.023  1.00  0.00    -0.163 C  
ENDBRANCH   7   8
ENDBRANCH   5   7
ENDBRANCH   4   5
ENDBRANCH   3   4
ENDBRANCH   2   3
TORSDOF 5
ENDMDL
MODEL      228
REMARK 921   NORMALIZED FREE ENERGY PREDICTED BY IDOCK:   -2.84 KCAL/MOL
REMARK 922        TOTAL FREE ENERGY PREDICTED BY IDOCK:   -3.98 KCAL/MOL
REMARK 923 INTER-LIGAND FREE ENERGY PREDICTED BY IDOCK:   -4.02 KCAL/MOL
REMARK 924 INTRA-LIGAND FREE ENERGY PREDICTED BY IDOCK:    0.04 KCAL/MOL
REMARK 927      BINDING AFFINITY PREDICTED BY RF-SCORE:    0.00 PKD
ROOT
HETATM    1  C   UNL     1     -12.395  12.083  63.398  1.00  0.00    -0.635 C  
HETATM    2  C   UNL     1     -11.905  13.251  64.241  1.00  0.00    -0.469 C  
ENDROOT
BRANCH   2   3
HETATM    3  C   UNL     1     -10.950  12.758  65.321  1.00  0.00    -0.284 C  
BRANCH   3   4
HETATM    4  O   UNL     1     -11.623  12.562  66.573  1.00  0.00    -0.347 OA 
BRANCH   4   5
HETATM    5  C   UNL     1     -10.829  12.235  67.636  1.00  0.00    -0.225 C  
HETATM    6  O   UNL     1      -9.988  12.967  68.143  1.00  0.00    -0.220 OA 
BRANCH   5   7
HETATM    7  C   UNL     1     -11.183  10.848  68.150  1.00  0.00    -0.301 C  
BRANCH   7   8
HETATM    8  N   UNL     1     -10.312   9.801  67.584  1.00  0.00    -0.214 NA 
HETATM    9  C   UNL     1      -9.714   9.960  66.339  1.00  0.00    -0.212 C  
HETATM   10  C   UNL     1      -8.932   9.049  65.738  1.00  0.00    -0.197 C  
HETATM   11  I   UNL     1      -8.090   9.373  63.906  1.00  0.00    -0.197 I  
HETATM   12  C   UNL     1      -8.690   7.751  66.462  1.00  0.00    -0.148 C  
HETATM   13  C   UNL     1      -9.352   7.587  67.800  1.00  0.00    -0.141 C  
HETATM   14  O   UNL     1      -7.982   6.869  65.980  1.00  0.00    -0.099 OA 
HETATM   15  I   UNL     1      -9.106   5.857  68.862  1.00  0.00    -0.143 I  
HETATM   16  C   UNL     1     -10.100   8.604  68.256  1.00  0.00    -0.192 C  
ENDBRANCH   7   8
ENDBRANCH   5   7
ENDBRANCH   4   5
ENDBRANCH   3   4
ENDBRANCH   2   3
TORSDOF 5
ENDMDL
MODEL      229
REMARK 921   NORMALIZED FREE ENERGY PREDICTED BY IDOCK:   -2.83 KCAL/MOL
REMARK 922        TOTAL FREE ENERGY PREDICTED BY IDOCK:   -3.97 KCAL/MOL
REMARK 923 INTER-LIGAND FREE ENERGY PREDICTED BY IDOCK:   -3.61 KCAL/MOL
REMARK 924 INTRA-LIGAND FREE ENERGY PREDICTED BY IDOCK:   -0.36 KCAL/MOL
REMARK 927      BINDING AFFINITY PREDICTED BY RF-SCORE:    0.00 PKD
ROOT
HETATM    1  C   UNL     1      -5.495  15.119  71.186  1.00  0.00    -0.042 C  
HETATM    2  C   UNL     1      -5.979  15.630  69.836  1.00  0.00    -0.156 C  
ENDROOT
BRANCH   2   3
HETATM    3  C   UNL     1      -7.173  14.813  69.360  1.00  0.00    -0.168 C  
BRANCH   3   4
HETATM    4  O   UNL     1      -8.404  15.535  69.513  1.00  0.00    -0.250 OA 
BRANCH   4   5
HETATM    5  C   UNL     1      -9.108  15.768  68.365  1.00  0.00    -0.188 C  
HETATM    6  O   UNL     1      -8.659  16.290  67.352  1.00  0.00    -0.173 OA 
BRANCH   5   7
HETATM    7  C   UNL     1     -10.523  15.226  68.497  1.00  0.00    -0.235 C  
BRANCH   7   8
HETATM    8  N   UNL     1     -10.665  13.881  67.907  1.00  0.00    -0.238 NA 
HETATM    9  C   UNL     1     -10.411  12.738  68.655  1.00  0.00    -0.211 C  
HETATM   10  C   UNL     1     -10.488  11.481  68.192  1.00  0.00    -0.193 C  
HETATM   11  I   UNL     1     -10.103   9.858  69.371  1.00  0.00    -0.291 I  
HETATM   12  C   UNL     1     -10.869  11.292  66.747  1.00  0.00    -0.282 C  
HETATM   13  C   UNL     1     -11.127  12.536  65.946  1.00  0.00    -0.299 C  
HETATM   14  O   UNL     1     -10.965  10.172  66.249  1.00  0.00     0.046 OA 
HETATM   15  I   UNL     1     -11.633  12.397  63.969  1.00  0.00    -0.635 I  
HETATM   16  C   UNL     1     -11.009  13.718  66.571  1.00  0.00    -0.299 C  
ENDBRANCH   7   8
ENDBRANCH   5   7
ENDBRANCH   4   5
ENDBRANCH   3   4
ENDBRANCH   2   3
TORSDOF 5
ENDMDL
MODEL      230
REMARK 921   NORMALIZED FREE ENERGY PREDICTED BY IDOCK:   -2.82 KCAL/MOL
REMARK 922        TOTAL FREE ENERGY PREDICTED BY IDOCK:   -3.96 KCAL/MOL
REMARK 923 INTER-LIGAND FREE ENERGY PREDICTED BY IDOCK:   -3.82 KCAL/MOL
REMARK 924 INTRA-LIGAND FREE ENERGY PREDICTED BY IDOCK:   -0.14 KCAL/MOL
REMARK 927      BINDING AFFINITY PREDICTED BY RF-SCORE:    0.00 PKD
ROOT
HETATM    1  C   UNL     1     -10.497  17.165  68.328  1.00  0.00    -0.373 C  
HETATM    2  C   UNL     1      -9.742  16.348  67.289  1.00  0.00    -0.239 C  
ENDROOT
BRANCH   2   3
HETATM    3  C   UNL     1     -10.677  15.344  66.626  1.00  0.00    -0.309 C  
BRANCH   3   4
HETATM    4  O   UNL     1     -10.496  14.022  67.154  1.00  0.00    -0.267 OA 
BRANCH   4   5
HETATM    5  C   UNL     1     -10.925  12.996  66.361  1.00  0.00    -0.281 C  
HETATM    6  O   UNL     1     -10.980  13.021  65.137  1.00  0.00    -0.285 OA 
BRANCH   5   7
HETATM    7  C   UNL     1     -11.266  11.781  67.211  1.00  0.00    -0.305 C  
BRANCH   7   8
HETATM    8  N   UNL     1     -10.287  10.690  67.047  1.00  0.00    -0.220 NA 
HETATM    9  C   UNL     1      -8.978  10.952  66.658  1.00  0.00    -0.164 C  
HETATM   10  C   UNL     1      -8.033  10.020  66.458  1.00  0.00    -0.115 C  
HETATM   11  I   UNL     1      -6.130  10.501  65.891  1.00  0.00    -0.109 I  
HETATM   12  C   UNL     1      -8.420   8.579  66.662  1.00  0.00    -0.113 C  
HETATM   13  C   UNL     1      -9.839   8.310  67.069  1.00  0.00    -0.232 C  
HETATM   14  O   UNL     1      -7.609   7.668  66.503  1.00  0.00    -0.092 OA 
HETATM   15  I   UNL     1     -10.478   6.388  67.355  1.00  0.00    -0.475 I  
HETATM   16  C   UNL     1     -10.655   9.363  67.230  1.00  0.00    -0.244 C  
ENDBRANCH   7   8
ENDBRANCH   5   7
ENDBRANCH   4   5
ENDBRANCH   3   4
ENDBRANCH   2   3
TORSDOF 5
ENDMDL
MODEL      231
REMARK 921   NORMALIZED FREE ENERGY PREDICTED BY IDOCK:   -2.82 KCAL/MOL
REMARK 922        TOTAL FREE ENERGY PREDICTED BY IDOCK:   -3.96 KCAL/MOL
REMARK 923 INTER-LIGAND FREE ENERGY PREDICTED BY IDOCK:   -3.66 KCAL/MOL
REMARK 924 INTRA-LIGAND FREE ENERGY PREDICTED BY IDOCK:   -0.30 KCAL/MOL
REMARK 927      BINDING AFFINITY PREDICTED BY RF-SCORE:    0.00 PKD
ROOT
HETATM    1  C   UNL     1     -11.162   2.221  62.481  1.00  0.00    -0.186 C  
HETATM    2  C   UNL     1     -10.013   2.669  63.373  1.00  0.00    -0.129 C  
ENDROOT
BRANCH   2   3
HETATM    3  C   UNL     1     -10.382   3.956  64.101  1.00  0.00    -0.227 C  
BRANCH   3   4
HETATM    4  O   UNL     1      -9.224   4.609  64.641  1.00  0.00    -0.156 OA 
BRANCH   4   5
HETATM    5  C   UNL     1      -9.232   4.825  65.991  1.00  0.00    -0.148 C  
HETATM    6  O   UNL     1      -8.246   4.804  66.717  1.00  0.00    -0.107 OA 
BRANCH   5   7
HETATM    7  C   UNL     1     -10.638   5.163  66.461  1.00  0.00    -0.260 C  
BRANCH   7   8
HETATM    8  N   UNL     1     -10.656   6.298  67.404  1.00  0.00    -0.250 NA 
HETATM    9  C   UNL     1     -10.947   6.108  68.750  1.00  0.00    -0.348 C  
HETATM   10  C   UNL     1     -11.013   7.085  69.668  1.00  0.00    -0.236 C  
HETATM   11  I   UNL     1     -11.441   6.710  71.630  1.00  0.00    -0.380 I  
HETATM   12  C   UNL     1     -10.762   8.496  69.206  1.00  0.00    -0.133 C  
HETATM   13  C   UNL     1     -10.463   8.688  67.747  1.00  0.00    -0.224 C  
HETATM   14  O   UNL     1     -10.800   9.444  69.987  1.00  0.00    -0.223 OA 
HETATM   15  I   UNL     1     -10.125  10.564  67.007  1.00  0.00    -0.299 I  
HETATM   16  C   UNL     1     -10.432   7.597  66.966  1.00  0.00    -0.349 C  
ENDBRANCH   7   8
ENDBRANCH   5   7
ENDBRANCH   4   5
ENDBRANCH   3   4
ENDBRANCH   2   3
TORSDOF 5
ENDMDL
MODEL      232
REMARK 921   NORMALIZED FREE ENERGY PREDICTED BY IDOCK:   -2.82 KCAL/MOL
REMARK 922        TOTAL FREE ENERGY PREDICTED BY IDOCK:   -3.95 KCAL/MOL
REMARK 923 INTER-LIGAND FREE ENERGY PREDICTED BY IDOCK:   -3.55 KCAL/MOL
REMARK 924 INTRA-LIGAND FREE ENERGY PREDICTED BY IDOCK:   -0.41 KCAL/MOL
REMARK 927      BINDING AFFINITY PREDICTED BY RF-SCORE:    0.00 PKD
ROOT
HETATM    1  C   UNL     1      -6.509  12.557  69.095  1.00  0.00    -0.099 C  
HETATM    2  C   UNL     1      -6.931  12.644  67.635  1.00  0.00    -0.140 C  
ENDROOT
BRANCH   2   3
HETATM    3  C   UNL     1      -7.017  11.249  67.027  1.00  0.00    -0.126 C  
BRANCH   3   4
HETATM    4  O   UNL     1      -8.197  11.093  66.225  1.00  0.00    -0.168 OA 
BRANCH   4   5
HETATM    5  C   UNL     1      -9.130  10.213  66.696  1.00  0.00    -0.144 C  
HETATM    6  O   UNL     1      -8.884   9.159  67.270  1.00  0.00    -0.123 OA 
BRANCH   5   7
HETATM    7  C   UNL     1     -10.531  10.760  66.469  1.00  0.00    -0.240 C  
BRANCH   7   8
HETATM    8  N   UNL     1     -10.943  11.702  67.526  1.00  0.00    -0.242 NA 
HETATM    9  C   UNL     1     -10.714  13.067  67.401  1.00  0.00    -0.245 C  
HETATM   10  C   UNL     1     -11.029  13.990  68.323  1.00  0.00    -0.255 C  
HETATM   11  I   UNL     1     -10.658  15.980  68.048  1.00  0.00    -0.316 I  
HETATM   12  C   UNL     1     -11.674  13.510  69.597  1.00  0.00    -0.314 C  
HETATM   13  C   UNL     1     -11.905  12.032  69.725  1.00  0.00    -0.331 C  
HETATM   14  O   UNL     1     -11.997  14.294  70.488  1.00  0.00    -0.300 OA 
HETATM   15  I   UNL     1     -12.756  11.269  71.421  1.00  0.00    -0.206 I  
HETATM   16  C   UNL     1     -11.530  11.250  68.701  1.00  0.00    -0.297 C  
ENDBRANCH   7   8
ENDBRANCH   5   7
ENDBRANCH   4   5
ENDBRANCH   3   4
ENDBRANCH   2   3
TORSDOF 5
ENDMDL
MODEL      233
REMARK 921   NORMALIZED FREE ENERGY PREDICTED BY IDOCK:   -2.82 KCAL/MOL
REMARK 922        TOTAL FREE ENERGY PREDICTED BY IDOCK:   -3.95 KCAL/MOL
REMARK 923 INTER-LIGAND FREE ENERGY PREDICTED BY IDOCK:   -3.76 KCAL/MOL
REMARK 924 INTRA-LIGAND FREE ENERGY PREDICTED BY IDOCK:   -0.19 KCAL/MOL
REMARK 927      BINDING AFFINITY PREDICTED BY RF-SCORE:    0.00 PKD
ROOT
HETATM    1  C   UNL     1      -6.869  11.625  67.313  1.00  0.00    -0.129 C  
HETATM    2  C   UNL     1      -7.895  12.600  66.753  1.00  0.00     0.159 C  
ENDROOT
BRANCH   2   3
HETATM    3  C   UNL     1      -9.233  11.899  66.553  1.00  0.00    -0.214 C  
BRANCH   3   4
HETATM    4  O   UNL     1     -10.321  12.835  66.520  1.00  0.00    -0.245 OA 
BRANCH   4   5
HETATM    5  C   UNL     1     -11.061  12.934  67.665  1.00  0.00    -0.264 C  
HETATM    6  O   UNL     1     -11.207  12.043  68.493  1.00  0.00    -0.216 OA 
BRANCH   5   7
HETATM    7  C   UNL     1     -11.630  14.338  67.803  1.00  0.00    -0.354 C  
BRANCH   7   8
HETATM    8  N   UNL     1     -10.574  15.363  67.907  1.00  0.00    -0.260 NA 
HETATM    9  C   UNL     1      -9.337  15.065  68.468  1.00  0.00    -0.196 C  
HETATM   10  C   UNL     1      -8.333  15.941  68.627  1.00  0.00    -0.195 C  
HETATM   11  I   UNL     1      -6.544  15.411  69.459  1.00  0.00    -0.164 I  
HETATM   12  C   UNL     1      -8.564  17.358  68.171  1.00  0.00    -0.248 C  
HETATM   13  C   UNL     1      -9.908  17.669  67.579  1.00  0.00    -0.299 C  
HETATM   14  O   UNL     1      -7.691  18.218  68.278  1.00  0.00    -0.271 OA 
HETATM   15  I   UNL     1     -10.337  19.565  66.944  1.00  0.00    -0.643 I  
HETATM   16  C   UNL     1     -10.799  16.668  67.490  1.00  0.00    -0.221 C  
ENDBRANCH   7   8
ENDBRANCH   5   7
ENDBRANCH   4   5
ENDBRANCH   3   4
ENDBRANCH   2   3
TORSDOF 5
ENDMDL
MODEL      234
REMARK 921   NORMALIZED FREE ENERGY PREDICTED BY IDOCK:   -2.82 KCAL/MOL
REMARK 922        TOTAL FREE ENERGY PREDICTED BY IDOCK:   -3.95 KCAL/MOL
REMARK 923 INTER-LIGAND FREE ENERGY PREDICTED BY IDOCK:   -3.36 KCAL/MOL
REMARK 924 INTRA-LIGAND FREE ENERGY PREDICTED BY IDOCK:   -0.59 KCAL/MOL
REMARK 927      BINDING AFFINITY PREDICTED BY RF-SCORE:    0.00 PKD
ROOT
HETATM    1  C   UNL     1      -9.749  10.833  68.941  1.00  0.00    -0.207 C  
HETATM    2  C   UNL     1      -9.691  10.652  67.430  1.00  0.00    -0.192 C  
ENDROOT
BRANCH   2   3
HETATM    3  C   UNL     1     -10.654   9.556  66.993  1.00  0.00    -0.201 C  
BRANCH   3   4
HETATM    4  O   UNL     1      -9.960   8.445  66.406  1.00  0.00    -0.263 OA 
BRANCH   4   5
HETATM    5  C   UNL     1     -10.180   7.227  66.986  1.00  0.00    -0.278 C  
HETATM    6  O   UNL     1     -11.221   6.585  66.913  1.00  0.00    -0.387 OA 
BRANCH   5   7
HETATM    7  C   UNL     1      -8.920   6.742  67.685  1.00  0.00    -0.115 C  
BRANCH   7   8
HETATM    8  N   UNL     1      -8.812   7.252  69.065  1.00  0.00    -0.132 NA 
HETATM    9  C   UNL     1      -9.931   7.349  69.884  1.00  0.00    -0.188 C  
HETATM   10  C   UNL     1      -9.929   7.827  71.138  1.00  0.00    -0.176 C  
HETATM   11  I   UNL     1     -11.626   7.925  72.271  1.00  0.00    -0.436 I  
HETATM   12  C   UNL     1      -8.616   8.303  71.701  1.00  0.00    -0.155 C  
HETATM   13  C   UNL     1      -7.418   8.205  70.802  1.00  0.00    -0.066 C  
HETATM   14  O   UNL     1      -8.531   8.750  72.843  1.00  0.00    -0.409 OA 
HETATM   15  I   UNL     1      -5.588   8.841  71.457  1.00  0.00    -0.061 I  
HETATM   16  C   UNL     1      -7.598   7.697  69.573  1.00  0.00    -0.098 C  
ENDBRANCH   7   8
ENDBRANCH   5   7
ENDBRANCH   4   5
ENDBRANCH   3   4
ENDBRANCH   2   3
TORSDOF 5
ENDMDL
MODEL      235
REMARK 921   NORMALIZED FREE ENERGY PREDICTED BY IDOCK:   -2.81 KCAL/MOL
REMARK 922        TOTAL FREE ENERGY PREDICTED BY IDOCK:   -3.95 KCAL/MOL
REMARK 923 INTER-LIGAND FREE ENERGY PREDICTED BY IDOCK:   -3.80 KCAL/MOL
REMARK 924 INTRA-LIGAND FREE ENERGY PREDICTED BY IDOCK:   -0.15 KCAL/MOL
REMARK 927      BINDING AFFINITY PREDICTED BY RF-SCORE:    0.00 PKD
ROOT
HETATM    1  C   UNL     1     -12.495  11.652  63.615  1.00  0.00    -0.325 C  
HETATM    2  C   UNL     1     -12.651  12.949  64.397  1.00  0.00    -0.392 C  
ENDROOT
BRANCH   2   3
HETATM    3  C   UNL     1     -11.725  12.950  65.607  1.00  0.00    -0.387 C  
BRANCH   3   4
HETATM    4  O   UNL     1     -11.809  14.182  66.337  1.00  0.00    -0.386 OA 
BRANCH   4   5
HETATM    5  C   UNL     1     -11.006  14.283  67.438  1.00  0.00    -0.295 C  
HETATM    6  O   UNL     1     -11.389  14.241  68.601  1.00  0.00    -0.246 OA 
BRANCH   5   7
HETATM    7  C   UNL     1      -9.548  14.387  67.018  1.00  0.00    -0.247 C  
BRANCH   7   8
HETATM    8  N   UNL     1      -9.082  15.785  66.951  1.00  0.00    -0.220 NA 
HETATM    9  C   UNL     1      -7.738  16.085  66.768  1.00  0.00    -0.235 C  
HETATM   10  C   UNL     1      -7.224  17.325  66.724  1.00  0.00    -0.214 C  
HETATM   11  I   UNL     1      -5.230  17.671  66.444  1.00  0.00    -0.202 I  
HETATM   12  C   UNL     1      -8.175  18.480  66.895  1.00  0.00    -0.258 C  
HETATM   13  C   UNL     1      -9.623  18.141  67.105  1.00  0.00    -0.277 C  
HETATM   14  O   UNL     1      -7.783  19.645  66.862  1.00  0.00    -0.247 OA 
HETATM   15  I   UNL     1     -10.998  19.632  67.367  1.00  0.00     0.402 I  
HETATM   16  C   UNL     1      -9.966  16.844  67.117  1.00  0.00    -0.276 C  
ENDBRANCH   7   8
ENDBRANCH   5   7
ENDBRANCH   4   5
ENDBRANCH   3   4
ENDBRANCH   2   3
TORSDOF 5
ENDMDL
MODEL      236
REMARK 921   NORMALIZED FREE ENERGY PREDICTED BY IDOCK:   -2.81 KCAL/MOL
REMARK 922        TOTAL FREE ENERGY PREDICTED BY IDOCK:   -3.95 KCAL/MOL
REMARK 923 INTER-LIGAND FREE ENERGY PREDICTED BY IDOCK:   -3.71 KCAL/MOL
REMARK 924 INTRA-LIGAND FREE ENERGY PREDICTED BY IDOCK:   -0.24 KCAL/MOL
REMARK 927      BINDING AFFINITY PREDICTED BY RF-SCORE:    0.00 PKD
ROOT
HETATM    1  C   UNL     1     -12.969   9.897  71.932  1.00  0.00    -0.545 C  
HETATM    2  C   UNL     1     -12.786  10.381  70.501  1.00  0.00    -0.326 C  
ENDROOT
BRANCH   2   3
HETATM    3  C   UNL     1     -11.318  10.690  70.233  1.00  0.00    -0.319 C  
BRANCH   3   4
HETATM    4  O   UNL     1     -10.549   9.492  70.057  1.00  0.00    -0.211 OA 
BRANCH   4   5
HETATM    5  C   UNL     1      -9.191   9.640  70.099  1.00  0.00    -0.246 C  
HETATM    6  O   UNL     1      -8.416   8.898  70.691  1.00  0.00    -0.146 OA 
BRANCH   5   7
HETATM    7  C   UNL     1      -8.764  10.824  69.246  1.00  0.00    -0.030 C  
BRANCH   7   8
HETATM    8  N   UNL     1      -9.029  10.606  67.811  1.00  0.00    -0.139 NA 
HETATM    9  C   UNL     1      -8.483   9.520  67.138  1.00  0.00    -0.131 C  
HETATM   10  C   UNL     1      -8.648   9.262  65.831  1.00  0.00    -0.148 C  
HETATM   11  I   UNL     1      -7.810   7.634  64.926  1.00  0.00    -0.105 I  
HETATM   12  C   UNL     1      -9.481  10.227  65.029  1.00  0.00    -0.257 C  
HETATM   13  C   UNL     1     -10.054  11.403  65.766  1.00  0.00    -0.246 C  
HETATM   14  O   UNL     1      -9.683  10.057  63.828  1.00  0.00    -0.242 OA 
HETATM   15  I   UNL     1     -11.186  12.786  64.772  1.00  0.00    -0.427 I  
HETATM   16  C   UNL     1      -9.792  11.506  67.079  1.00  0.00    -0.192 C  
ENDBRANCH   7   8
ENDBRANCH   5   7
ENDBRANCH   4   5
ENDBRANCH   3   4
ENDBRANCH   2   3
TORSDOF 5
ENDMDL
MODEL      237
REMARK 921   NORMALIZED FREE ENERGY PREDICTED BY IDOCK:   -2.81 KCAL/MOL
REMARK 922        TOTAL FREE ENERGY PREDICTED BY IDOCK:   -3.94 KCAL/MOL
REMARK 923 INTER-LIGAND FREE ENERGY PREDICTED BY IDOCK:   -3.77 KCAL/MOL
REMARK 924 INTRA-LIGAND FREE ENERGY PREDICTED BY IDOCK:   -0.17 KCAL/MOL
REMARK 927      BINDING AFFINITY PREDICTED BY RF-SCORE:    0.00 PKD
ROOT
HETATM    1  C   UNL     1      -5.435  13.870  71.960  1.00  0.00    -0.207 C  
HETATM    2  C   UNL     1      -5.337  14.407  70.539  1.00  0.00    -0.118 C  
ENDROOT
BRANCH   2   3
HETATM    3  C   UNL     1      -6.659  14.210  69.809  1.00  0.00    -0.104 C  
BRANCH   3   4
HETATM    4  O   UNL     1      -6.497  13.411  68.628  1.00  0.00    -0.078 OA 
BRANCH   4   5
HETATM    5  C   UNL     1      -7.098  12.183  68.647  1.00  0.00    -0.103 C  
HETATM    6  O   UNL     1      -7.213  11.467  69.634  1.00  0.00    -0.052 OA 
BRANCH   5   7
HETATM    7  C   UNL     1      -7.669  11.855  67.276  1.00  0.00    -0.164 C  
BRANCH   7   8
HETATM    8  N   UNL     1      -9.003  12.448  67.068  1.00  0.00    -0.204 NA 
HETATM    9  C   UNL     1      -9.657  13.122  68.093  1.00  0.00    -0.227 C  
HETATM   10  C   UNL     1     -10.881  13.665  67.999  1.00  0.00    -0.246 C  
HETATM   11  I   UNL     1     -11.762  14.645  69.561  1.00  0.00    -0.412 I  
HETATM   12  C   UNL     1     -11.607  13.527  66.687  1.00  0.00    -0.363 C  
HETATM   13  C   UNL     1     -10.895  12.786  65.593  1.00  0.00    -0.273 C  
HETATM   14  O   UNL     1     -12.729  14.002  66.521  1.00  0.00    -0.310 OA 
HETATM   15  I   UNL     1     -11.796  12.523  63.776  1.00  0.00    -0.677 I  
HETATM   16  C   UNL     1      -9.668  12.309  65.856  1.00  0.00    -0.235 C  
ENDBRANCH   7   8
ENDBRANCH   5   7
ENDBRANCH   4   5
ENDBRANCH   3   4
ENDBRANCH   2   3
TORSDOF 5
ENDMDL
MODEL      238
REMARK 921   NORMALIZED FREE ENERGY PREDICTED BY IDOCK:   -2.81 KCAL/MOL
REMARK 922        TOTAL FREE ENERGY PREDICTED BY IDOCK:   -3.94 KCAL/MOL
REMARK 923 INTER-LIGAND FREE ENERGY PREDICTED BY IDOCK:   -3.65 KCAL/MOL
REMARK 924 INTRA-LIGAND FREE ENERGY PREDICTED BY IDOCK:   -0.29 KCAL/MOL
REMARK 927      BINDING AFFINITY PREDICTED BY RF-SCORE:    0.00 PKD
ROOT
HETATM    1  C   UNL     1     -11.197  15.312  70.798  1.00  0.00    -0.353 C  
HETATM    2  C   UNL     1     -10.803  16.098  69.555  1.00  0.00    -0.329 C  
ENDROOT
BRANCH   2   3
HETATM    3  C   UNL     1     -11.772  15.804  68.417  1.00  0.00    -0.271 C  
BRANCH   3   4
HETATM    4  O   UNL     1     -11.444  14.580  67.744  1.00  0.00    -0.307 OA 
BRANCH   4   5
HETATM    5  C   UNL     1     -10.889  14.709  66.502  1.00  0.00    -0.315 C  
HETATM    6  O   UNL     1     -11.516  14.852  65.458  1.00  0.00    -0.347 OA 
BRANCH   5   7
HETATM    7  C   UNL     1      -9.372  14.717  66.601  1.00  0.00    -0.268 C  
BRANCH   7   8
HETATM    8  N   UNL     1      -8.836  13.442  67.115  1.00  0.00    -0.217 NA 
HETATM    9  C   UNL     1      -9.344  12.224  66.680  1.00  0.00    -0.228 C  
HETATM   10  C   UNL     1      -8.937  11.021  67.115  1.00  0.00    -0.143 C  
HETATM   11  I   UNL     1      -9.739   9.278  66.412  1.00  0.00    -0.347 I  
HETATM   12  C   UNL     1      -7.853  10.987  68.159  1.00  0.00    -0.116 C  
HETATM   13  C   UNL     1      -7.322  12.310  68.629  1.00  0.00    -0.106 C  
HETATM   14  O   UNL     1      -7.422   9.924  68.604  1.00  0.00    -0.073 OA 
HETATM   15  I   UNL     1      -5.862  12.382  70.060  1.00  0.00    -0.090 I  
HETATM   16  C   UNL     1      -7.842  13.421  68.084  1.00  0.00    -0.145 C  
ENDBRANCH   7   8
ENDBRANCH   5   7
ENDBRANCH   4   5
ENDBRANCH   3   4
ENDBRANCH   2   3
TORSDOF 5
ENDMDL
MODEL      239
REMARK 921   NORMALIZED FREE ENERGY PREDICTED BY IDOCK:   -2.80 KCAL/MOL
REMARK 922        TOTAL FREE ENERGY PREDICTED BY IDOCK:   -3.93 KCAL/MOL
REMARK 923 INTER-LIGAND FREE ENERGY PREDICTED BY IDOCK:   -3.62 KCAL/MOL
REMARK 924 INTRA-LIGAND FREE ENERGY PREDICTED BY IDOCK:   -0.31 KCAL/MOL
REMARK 927      BINDING AFFINITY PREDICTED BY RF-SCORE:    0.00 PKD
ROOT
HETATM    1  C   UNL     1      -8.748   5.117  65.201  1.00  0.00    -0.151 C  
HETATM    2  C   UNL     1      -8.098   6.489  65.313  1.00  0.00    -0.133 C  
ENDROOT
BRANCH   2   3
HETATM    3  C   UNL     1      -8.154   6.983  66.753  1.00  0.00    -0.109 C  
BRANCH   3   4
HETATM    4  O   UNL     1      -8.541   8.362  66.824  1.00  0.00    -0.114 OA 
BRANCH   4   5
HETATM    5  C   UNL     1      -9.777   8.611  67.353  1.00  0.00    -0.175 C  
HETATM    6  O   UNL     1     -10.783   7.942  67.148  1.00  0.00    -0.326 OA 
BRANCH   5   7
HETATM    7  C   UNL     1      -9.716   9.805  68.293  1.00  0.00    -0.145 C  
BRANCH   7   8
HETATM    8  N   UNL     1      -9.793  11.090  67.573  1.00  0.00    -0.168 NA 
HETATM    9  C   UNL     1     -10.714  11.287  66.551  1.00  0.00    -0.271 C  
HETATM   10  C   UNL     1     -10.833  12.410  65.826  1.00  0.00    -0.276 C  
HETATM   11  I   UNL     1     -12.225  12.610  64.344  1.00  0.00    -0.501 I  
HETATM   12  C   UNL     1      -9.891  13.543  66.136  1.00  0.00    -0.283 C  
HETATM   13  C   UNL     1      -8.893  13.313  67.234  1.00  0.00    -0.216 C  
HETATM   14  O   UNL     1      -9.940  14.606  65.520  1.00  0.00    -0.344 OA 
HETATM   15  I   UNL     1      -7.553  14.778  67.726  1.00  0.00    -0.228 I  
HETATM   16  C   UNL     1      -8.915  12.127  67.861  1.00  0.00    -0.184 C  
ENDBRANCH   7   8
ENDBRANCH   5   7
ENDBRANCH   4   5
ENDBRANCH   3   4
ENDBRANCH   2   3
TORSDOF 5
ENDMDL
MODEL      240
REMARK 921   NORMALIZED FREE ENERGY PREDICTED BY IDOCK:   -2.79 KCAL/MOL
REMARK 922        TOTAL FREE ENERGY PREDICTED BY IDOCK:   -3.93 KCAL/MOL
REMARK 923 INTER-LIGAND FREE ENERGY PREDICTED BY IDOCK:   -3.45 KCAL/MOL
REMARK 924 INTRA-LIGAND FREE ENERGY PREDICTED BY IDOCK:   -0.48 KCAL/MOL
REMARK 927      BINDING AFFINITY PREDICTED BY RF-SCORE:    0.00 PKD
ROOT
HETATM    1  C   UNL     1      -9.066   4.095  70.825  1.00  0.00    -0.175 C  
HETATM    2  C   UNL     1      -9.080   4.983  72.061  1.00  0.00    -0.153 C  
ENDROOT
BRANCH   2   3
HETATM    3  C   UNL     1     -10.469   5.573  72.270  1.00  0.00    -0.217 C  
BRANCH   3   4
HETATM    4  O   UNL     1     -10.404   6.933  72.724  1.00  0.00    -0.192 OA 
BRANCH   4   5
HETATM    5  C   UNL     1     -10.981   7.865  71.908  1.00  0.00    -0.256 C  
HETATM    6  O   UNL     1     -12.178   7.946  71.660  1.00  0.00    -0.287 OA 
BRANCH   5   7
HETATM    7  C   UNL     1      -9.931   8.840  71.398  1.00  0.00    -0.283 C  
BRANCH   7   8
HETATM    8  N   UNL     1      -9.901   8.913  69.925  1.00  0.00    -0.177 NA 
HETATM    9  C   UNL     1     -10.271  10.073  69.256  1.00  0.00    -0.214 C  
HETATM   10  C   UNL     1     -10.300  10.217  67.922  1.00  0.00    -0.194 C  
HETATM   11  I   UNL     1     -10.853  11.967  67.025  1.00  0.00    -0.356 I  
HETATM   12  C   UNL     1      -9.911   9.028  67.084  1.00  0.00    -0.224 C  
HETATM   13  C   UNL     1      -9.526   7.777  67.819  1.00  0.00    -0.143 C  
HETATM   14  O   UNL     1      -9.908   9.082  65.855  1.00  0.00    -0.276 OA 
HETATM   15  I   UNL     1      -8.998   6.096  66.779  1.00  0.00    -0.145 I  
HETATM   16  C   UNL     1      -9.548   7.808  69.160  1.00  0.00    -0.155 C  
ENDBRANCH   7   8
ENDBRANCH   5   7
ENDBRANCH   4   5
ENDBRANCH   3   4
ENDBRANCH   2   3
TORSDOF 5
ENDMDL
MODEL      241
REMARK 921   NORMALIZED FREE ENERGY PREDICTED BY IDOCK:   -2.79 KCAL/MOL
REMARK 922        TOTAL FREE ENERGY PREDICTED BY IDOCK:   -3.92 KCAL/MOL
REMARK 923 INTER-LIGAND FREE ENERGY PREDICTED BY IDOCK:   -3.62 KCAL/MOL
REMARK 924 INTRA-LIGAND FREE ENERGY PREDICTED BY IDOCK:   -0.30 KCAL/MOL
REMARK 927      BINDING AFFINITY PREDICTED BY RF-SCORE:    0.00 PKD
ROOT
HETATM    1  C   UNL     1      -9.868   1.851  63.740  1.00  0.00    -0.130 C  
HETATM    2  C   UNL     1      -9.170   2.819  64.685  1.00  0.00    -0.135 C  
ENDROOT
BRANCH   2   3
HETATM    3  C   UNL     1      -9.996   4.090  64.842  1.00  0.00    -0.205 C  
BRANCH   3   4
HETATM    4  O   UNL     1      -9.207   5.175  65.350  1.00  0.00    -0.159 OA 
BRANCH   4   5
HETATM    5  C   UNL     1      -9.290   5.398  66.696  1.00  0.00    -0.139 C  
HETATM    6  O   UNL     1      -8.353   5.331  67.483  1.00  0.00    -0.107 OA 
BRANCH   5   7
HETATM    7  C   UNL     1     -10.703   5.812  67.075  1.00  0.00    -0.289 C  
BRANCH   7   8
HETATM    8  N   UNL     1     -10.733   7.080  67.828  1.00  0.00    -0.232 NA 
HETATM    9  C   UNL     1     -10.633   8.304  67.177  1.00  0.00    -0.270 C  
HETATM   10  C   UNL     1     -10.623   9.501  67.784  1.00  0.00    -0.261 C  
HETATM   11  I   UNL     1     -10.478  11.252  66.742  1.00  0.00    -0.323 I  
HETATM   12  C   UNL     1     -10.720   9.521  69.287  1.00  0.00    -0.222 C  
HETATM   13  C   UNL     1     -10.815   8.192  69.978  1.00  0.00    -0.233 C  
HETATM   14  O   UNL     1     -10.722  10.578  69.916  1.00  0.00    -0.267 OA 
HETATM   15  I   UNL     1     -10.931   8.102  72.018  1.00  0.00    -0.436 I  
HETATM   16  C   UNL     1     -10.815   7.088  69.214  1.00  0.00    -0.214 C  
ENDBRANCH   7   8
ENDBRANCH   5   7
ENDBRANCH   4   5
ENDBRANCH   3   4
ENDBRANCH   2   3
TORSDOF 5
ENDMDL
MODEL      242
REMARK 921   NORMALIZED FREE ENERGY PREDICTED BY IDOCK:   -2.79 KCAL/MOL
REMARK 922        TOTAL FREE ENERGY PREDICTED BY IDOCK:   -3.92 KCAL/MOL
REMARK 923 INTER-LIGAND FREE ENERGY PREDICTED BY IDOCK:   -3.87 KCAL/MOL
REMARK 924 INTRA-LIGAND FREE ENERGY PREDICTED BY IDOCK:   -0.05 KCAL/MOL
REMARK 927      BINDING AFFINITY PREDICTED BY RF-SCORE:    0.00 PKD
ROOT
HETATM    1  C   UNL     1      -6.921  11.781  69.086  1.00  0.00    -0.091 C  
HETATM    2  C   UNL     1      -7.074  10.283  68.861  1.00  0.00    -0.075 C  
ENDROOT
BRANCH   2   3
HETATM    3  C   UNL     1      -8.267   9.751  69.645  1.00  0.00    -0.157 C  
BRANCH   3   4
HETATM    4  O   UNL     1      -8.670   8.455  69.181  1.00  0.00    -0.139 OA 
BRANCH   4   5
HETATM    5  C   UNL     1      -9.082   8.385  67.879  1.00  0.00    -0.133 C  
HETATM    6  O   UNL     1      -8.450   7.872  66.964  1.00  0.00    -0.120 OA 
BRANCH   5   7
HETATM    7  C   UNL     1     -10.476   8.975  67.736  1.00  0.00    -0.245 C  
BRANCH   7   8
HETATM    8  N   UNL     1     -10.514  10.094  66.775  1.00  0.00    -0.224 NA 
HETATM    9  C   UNL     1     -10.018   9.949  65.485  1.00  0.00    -0.292 C  
HETATM   10  C   UNL     1      -9.988  10.919  64.558  1.00  0.00    -0.317 C  
HETATM   11  I   UNL     1      -9.244  10.611  62.680  1.00  0.00    -0.331 I  
HETATM   12  C   UNL     1     -10.524  12.272  64.946  1.00  0.00    -0.289 C  
HETATM   13  C   UNL     1     -11.045  12.418  66.346  1.00  0.00    -0.301 C  
HETATM   14  O   UNL     1     -10.535  13.210  64.151  1.00  0.00    -0.421 OA 
HETATM   15  I   UNL     1     -11.779  14.217  66.986  1.00  0.00    -0.443 I  
HETATM   16  C   UNL     1     -11.003  11.340  67.145  1.00  0.00    -0.291 C  
ENDBRANCH   7   8
ENDBRANCH   5   7
ENDBRANCH   4   5
ENDBRANCH   3   4
ENDBRANCH   2   3
TORSDOF 5
ENDMDL
MODEL      243
REMARK 921   NORMALIZED FREE ENERGY PREDICTED BY IDOCK:   -2.78 KCAL/MOL
REMARK 922        TOTAL FREE ENERGY PREDICTED BY IDOCK:   -3.90 KCAL/MOL
REMARK 923 INTER-LIGAND FREE ENERGY PREDICTED BY IDOCK:   -3.83 KCAL/MOL
REMARK 924 INTRA-LIGAND FREE ENERGY PREDICTED BY IDOCK:   -0.07 KCAL/MOL
REMARK 927      BINDING AFFINITY PREDICTED BY RF-SCORE:    0.00 PKD
ROOT
HETATM    1  C   UNL     1      -9.719   4.181  63.033  1.00  0.00    -0.127 C  
HETATM    2  C   UNL     1     -10.445   3.798  64.314  1.00  0.00    -0.252 C  
ENDROOT
BRANCH   2   3
HETATM    3  C   UNL     1      -9.972   4.671  65.470  1.00  0.00    -0.183 C  
BRANCH   3   4
HETATM    4  O   UNL     1     -11.073   5.273  66.164  1.00  0.00    -0.144 OA 
BRANCH   4   5
HETATM    5  C   UNL     1     -10.748   6.183  67.130  1.00  0.00    -0.346 C  
HETATM    6  O   UNL     1     -10.973   7.386  67.075  1.00  0.00    -0.332 OA 
BRANCH   5   7
HETATM    7  C   UNL     1     -10.121   5.481  68.325  1.00  0.00    -0.173 C  
BRANCH   7   8
HETATM    8  N   UNL     1     -10.422   6.164  69.598  1.00  0.00    -0.225 NA 
HETATM    9  C   UNL     1      -9.407   6.522  70.478  1.00  0.00    -0.162 C  
HETATM   10  C   UNL     1      -9.592   7.118  71.666  1.00  0.00    -0.155 C  
HETATM   11  I   UNL     1      -8.035   7.612  72.892  1.00  0.00    -0.193 I  
HETATM   12  C   UNL     1     -11.008   7.416  72.084  1.00  0.00    -0.245 C  
HETATM   13  C   UNL     1     -12.095   7.013  71.130  1.00  0.00    -0.369 C  
HETATM   14  O   UNL     1     -11.259   7.964  73.155  1.00  0.00    -0.382 OA 
HETATM   15  I   UNL     1     -14.055   7.353  71.605  1.00  0.00    -0.270 I  
HETATM   16  C   UNL     1     -11.731   6.428  69.978  1.00  0.00    -0.275 C  
ENDBRANCH   7   8
ENDBRANCH   5   7
ENDBRANCH   4   5
ENDBRANCH   3   4
ENDBRANCH   2   3
TORSDOF 5
ENDMDL
MODEL      244
REMARK 921   NORMALIZED FREE ENERGY PREDICTED BY IDOCK:   -2.77 KCAL/MOL
REMARK 922        TOTAL FREE ENERGY PREDICTED BY IDOCK:   -3.89 KCAL/MOL
REMARK 923 INTER-LIGAND FREE ENERGY PREDICTED BY IDOCK:   -3.91 KCAL/MOL
REMARK 924 INTRA-LIGAND FREE ENERGY PREDICTED BY IDOCK:    0.03 KCAL/MOL
REMARK 927      BINDING AFFINITY PREDICTED BY RF-SCORE:    0.00 PKD
ROOT
HETATM    1  C   UNL     1     -11.168  15.331  70.910  1.00  0.00    -0.367 C  
HETATM    2  C   UNL     1     -10.810  16.182  69.699  1.00  0.00    -0.338 C  
ENDROOT
BRANCH   2   3
HETATM    3  C   UNL     1     -11.732  15.851  68.532  1.00  0.00    -0.292 C  
BRANCH   3   4
HETATM    4  O   UNL     1     -11.103  14.963  67.596  1.00  0.00    -0.290 OA 
BRANCH   4   5
HETATM    5  C   UNL     1      -9.758  15.132  67.420  1.00  0.00    -0.209 C  
HETATM    6  O   UNL     1      -9.232  16.082  66.853  1.00  0.00    -0.206 OA 
BRANCH   5   7
HETATM    7  C   UNL     1      -8.994  14.001  68.090  1.00  0.00    -0.183 C  
BRANCH   7   8
HETATM    8  N   UNL     1      -9.303  12.687  67.497  1.00  0.00    -0.182 NA 
HETATM    9  C   UNL     1      -9.459  12.537  66.124  1.00  0.00    -0.184 C  
HETATM   10  C   UNL     1      -9.768  11.388  65.505  1.00  0.00    -0.230 C  
HETATM   11  I   UNL     1      -9.972  11.262  63.476  1.00  0.00    -0.473 I  
HETATM   12  C   UNL     1      -9.970  10.166  66.361  1.00  0.00    -0.234 C  
HETATM   13  C   UNL     1      -9.811  10.344  67.844  1.00  0.00    -0.154 C  
HETATM   14  O   UNL     1     -10.250   9.075  65.868  1.00  0.00    -0.165 OA 
HETATM   15  I   UNL     1     -10.082   8.755  69.103  1.00  0.00    -0.219 I  
HETATM   16  C   UNL     1      -9.495  11.567  68.297  1.00  0.00    -0.189 C  
ENDBRANCH   7   8
ENDBRANCH   5   7
ENDBRANCH   4   5
ENDBRANCH   3   4
ENDBRANCH   2   3
TORSDOF 5
ENDMDL
MODEL      245
REMARK 921   NORMALIZED FREE ENERGY PREDICTED BY IDOCK:   -2.75 KCAL/MOL
REMARK 922        TOTAL FREE ENERGY PREDICTED BY IDOCK:   -3.86 KCAL/MOL
REMARK 923 INTER-LIGAND FREE ENERGY PREDICTED BY IDOCK:   -3.60 KCAL/MOL
REMARK 924 INTRA-LIGAND FREE ENERGY PREDICTED BY IDOCK:   -0.26 KCAL/MOL
REMARK 927      BINDING AFFINITY PREDICTED BY RF-SCORE:    0.00 PKD
ROOT
HETATM    1  C   UNL     1     -10.671   5.771  69.643  1.00  0.00    -0.416 C  
HETATM    2  C   UNL     1     -11.011   6.269  68.245  1.00  0.00    -0.408 C  
ENDROOT
BRANCH   2   3
HETATM    3  C   UNL     1     -10.492   7.689  68.051  1.00  0.00    -0.189 C  
BRANCH   3   4
HETATM    4  O   UNL     1     -10.617   8.116  66.687  1.00  0.00    -0.272 OA 
BRANCH   4   5
HETATM    5  C   UNL     1      -9.745   9.087  66.280  1.00  0.00    -0.275 C  
HETATM    6  O   UNL     1      -9.781   9.664  65.200  1.00  0.00    -0.300 OA 
BRANCH   5   7
HETATM    7  C   UNL     1      -8.755   9.404  67.391  1.00  0.00    -0.125 C  
BRANCH   7   8
HETATM    8  N   UNL     1      -8.684  10.848  67.683  1.00  0.00    -0.126 NA 
HETATM    9  C   UNL     1      -7.462  11.482  67.875  1.00  0.00    -0.103 C  
HETATM   10  C   UNL     1      -7.306  12.781  68.172  1.00  0.00    -0.118 C  
HETATM   11  I   UNL     1      -5.466  13.628  68.431  1.00  0.00    -0.123 I  
HETATM   12  C   UNL     1      -8.551  13.617  68.319  1.00  0.00    -0.170 C  
HETATM   13  C   UNL     1      -9.864  12.917  68.122  1.00  0.00    -0.227 C  
HETATM   14  O   UNL     1      -8.491  14.816  68.585  1.00  0.00    -0.155 OA 
HETATM   15  I   UNL     1     -11.618  13.952  68.316  1.00  0.00    -0.416 I  
HETATM   16  C   UNL     1      -9.837  11.609  67.824  1.00  0.00    -0.179 C  
ENDBRANCH   7   8
ENDBRANCH   5   7
ENDBRANCH   4   5
ENDBRANCH   3   4
ENDBRANCH   2   3
TORSDOF 5
ENDMDL
MODEL      246
REMARK 921   NORMALIZED FREE ENERGY PREDICTED BY IDOCK:   -2.74 KCAL/MOL
REMARK 922        TOTAL FREE ENERGY PREDICTED BY IDOCK:   -3.86 KCAL/MOL
REMARK 923 INTER-LIGAND FREE ENERGY PREDICTED BY IDOCK:   -3.57 KCAL/MOL
REMARK 924 INTRA-LIGAND FREE ENERGY PREDICTED BY IDOCK:   -0.29 KCAL/MOL
REMARK 927      BINDING AFFINITY PREDICTED BY RF-SCORE:    0.00 PKD
ROOT
HETATM    1  C   UNL     1      -9.518  10.939  64.717  1.00  0.00    -0.279 C  
HETATM    2  C   UNL     1     -11.037  10.996  64.648  1.00  0.00    -0.041 C  
ENDROOT
BRANCH   2   3
HETATM    3  C   UNL     1     -11.559  12.170  65.467  1.00  0.00    -0.343 C  
BRANCH   3   4
HETATM    4  O   UNL     1     -10.944  12.227  66.762  1.00  0.00    -0.253 OA 
BRANCH   4   5
HETATM    5  C   UNL     1     -10.667  13.477  67.241  1.00  0.00    -0.267 C  
HETATM    6  O   UNL     1     -11.185  13.988  68.227  1.00  0.00    -0.247 OA 
BRANCH   5   7
HETATM    7  C   UNL     1      -9.569  14.126  66.413  1.00  0.00    -0.293 C  
BRANCH   7   8
HETATM    8  N   UNL     1      -8.779  15.098  67.192  1.00  0.00    -0.201 NA 
HETATM    9  C   UNL     1      -9.057  16.459  67.134  1.00  0.00    -0.205 C  
HETATM   10  C   UNL     1      -8.373  17.412  67.786  1.00  0.00    -0.218 C  
HETATM   11  I   UNL     1      -8.859  19.392  67.645  1.00  0.00    -0.403 I  
HETATM   12  C   UNL     1      -7.211  16.978  68.639  1.00  0.00    -0.221 C  
HETATM   13  C   UNL     1      -6.914  15.507  68.682  1.00  0.00    -0.116 C  
HETATM   14  O   UNL     1      -6.538  17.791  69.270  1.00  0.00    -0.251 OA 
HETATM   15  I   UNL     1      -5.346  14.808  69.794  1.00  0.00    -0.106 I  
HETATM   16  C   UNL     1      -7.704  14.688  67.970  1.00  0.00    -0.132 C  
ENDBRANCH   7   8
ENDBRANCH   5   7
ENDBRANCH   4   5
ENDBRANCH   3   4
ENDBRANCH   2   3
TORSDOF 5
ENDMDL
MODEL      247
REMARK 921   NORMALIZED FREE ENERGY PREDICTED BY IDOCK:   -2.74 KCAL/MOL
REMARK 922        TOTAL FREE ENERGY PREDICTED BY IDOCK:   -3.85 KCAL/MOL
REMARK 923 INTER-LIGAND FREE ENERGY PREDICTED BY IDOCK:   -3.14 KCAL/MOL
REMARK 924 INTRA-LIGAND FREE ENERGY PREDICTED BY IDOCK:   -0.71 KCAL/MOL
REMARK 927      BINDING AFFINITY PREDICTED BY RF-SCORE:    0.00 PKD
ROOT
HETATM    1  C   UNL     1      -9.237   4.765  71.864  1.00  0.00    -0.171 C  
HETATM    2  C   UNL     1      -9.521   5.445  73.196  1.00  0.00    -0.149 C  
ENDROOT
BRANCH   2   3
HETATM    3  C   UNL     1     -10.970   5.913  73.251  1.00  0.00    -0.233 C  
BRANCH   3   4
HETATM    4  O   UNL     1     -11.068   7.341  73.157  1.00  0.00    -0.331 OA 
BRANCH   4   5
HETATM    5  C   UNL     1     -11.819   7.824  72.121  1.00  0.00    -0.324 C  
HETATM    6  O   UNL     1     -12.992   7.542  71.905  1.00  0.00    -0.314 OA 
BRANCH   5   7
HETATM    7  C   UNL     1     -11.010   8.820  71.305  1.00  0.00    -0.275 C  
BRANCH   7   8
HETATM    8  N   UNL     1     -10.047   8.157  70.406  1.00  0.00    -0.192 NA 
HETATM    9  C   UNL     1     -10.478   7.414  69.313  1.00  0.00    -0.220 C  
HETATM   10  C   UNL     1      -9.674   6.756  68.463  1.00  0.00    -0.133 C  
HETATM   11  I   UNL     1     -10.400   5.693  66.877  1.00  0.00    -0.344 I  
HETATM   12  C   UNL     1      -8.191   6.820  68.715  1.00  0.00    -0.121 C  
HETATM   13  C   UNL     1      -7.739   7.615  69.906  1.00  0.00    -0.097 C  
HETATM   14  O   UNL     1      -7.389   6.248  67.979  1.00  0.00    -0.084 OA 
HETATM   15  I   UNL     1      -5.748   7.753  70.353  1.00  0.00    -0.021 I  
HETATM   16  C   UNL     1      -8.681   8.215  70.651  1.00  0.00    -0.135 C  
ENDBRANCH   7   8
ENDBRANCH   5   7
ENDBRANCH   4   5
ENDBRANCH   3   4
ENDBRANCH   2   3
TORSDOF 5
ENDMDL
MODEL      248
REMARK 921   NORMALIZED FREE ENERGY PREDICTED BY IDOCK:   -2.73 KCAL/MOL
REMARK 922        TOTAL FREE ENERGY PREDICTED BY IDOCK:   -3.84 KCAL/MOL
REMARK 923 INTER-LIGAND FREE ENERGY PREDICTED BY IDOCK:   -3.53 KCAL/MOL
REMARK 924 INTRA-LIGAND FREE ENERGY PREDICTED BY IDOCK:   -0.32 KCAL/MOL
REMARK 927      BINDING AFFINITY PREDICTED BY RF-SCORE:    0.00 PKD
ROOT
HETATM    1  C   UNL     1      -8.922  16.354  67.655  1.00  0.00    -0.198 C  
HETATM    2  C   UNL     1      -8.832  15.415  66.460  1.00  0.00    -0.347 C  
ENDROOT
BRANCH   2   3
HETATM    3  C   UNL     1     -10.166  14.712  66.241  1.00  0.00    -0.292 C  
BRANCH   3   4
HETATM    4  O   UNL     1     -10.422  13.733  67.259  1.00  0.00    -0.261 OA 
BRANCH   4   5
HETATM    5  C   UNL     1     -11.002  12.569  66.839  1.00  0.00    -0.257 C  
HETATM    6  O   UNL     1     -12.195  12.303  66.918  1.00  0.00    -0.530 OA 
BRANCH   5   7
HETATM    7  C   UNL     1      -9.962  11.667  66.193  1.00  0.00    -0.221 C  
BRANCH   7   8
HETATM    8  N   UNL     1      -9.404  10.684  67.141  1.00  0.00    -0.154 NA 
HETATM    9  C   UNL     1      -9.993   9.437  67.312  1.00  0.00    -0.196 C  
HETATM   10  C   UNL     1      -9.571   8.496  68.171  1.00  0.00    -0.143 C  
HETATM   11  I   UNL     1     -10.499   6.685  68.349  1.00  0.00    -0.340 I  
HETATM   12  C   UNL     1      -8.371   8.818  69.022  1.00  0.00    -0.129 C  
HETATM   13  C   UNL     1      -7.752  10.173  68.837  1.00  0.00    -0.093 C  
HETATM   14  O   UNL     1      -7.921   8.007  69.829  1.00  0.00    -0.110 OA 
HETATM   15  I   UNL     1      -6.130  10.722  69.956  1.00  0.00    -0.131 I  
HETATM   16  C   UNL     1      -8.302  10.993  67.928  1.00  0.00    -0.124 C  
ENDBRANCH   7   8
ENDBRANCH   5   7
ENDBRANCH   4   5
ENDBRANCH   3   4
ENDBRANCH   2   3
TORSDOF 5
ENDMDL
MODEL      249
REMARK 921   NORMALIZED FREE ENERGY PREDICTED BY IDOCK:   -2.71 KCAL/MOL
REMARK 922        TOTAL FREE ENERGY PREDICTED BY IDOCK:   -3.82 KCAL/MOL
REMARK 923 INTER-LIGAND FREE ENERGY PREDICTED BY IDOCK:   -3.47 KCAL/MOL
REMARK 924 INTRA-LIGAND FREE ENERGY PREDICTED BY IDOCK:   -0.35 KCAL/MOL
REMARK 927      BINDING AFFINITY PREDICTED BY RF-SCORE:    0.00 PKD
ROOT
HETATM    1  C   UNL     1      -6.764  14.087  68.093  1.00  0.00    -0.125 C  
HETATM    2  C   UNL     1      -6.643  12.677  67.533  1.00  0.00    -0.156 C  
ENDROOT
BRANCH   2   3
HETATM    3  C   UNL     1      -7.628  11.747  68.230  1.00  0.00    -0.122 C  
BRANCH   3   4
HETATM    4  O   UNL     1      -8.089  10.710  67.352  1.00  0.00    -0.110 OA 
BRANCH   4   5
HETATM    5  C   UNL     1      -9.222  10.988  66.639  1.00  0.00    -0.167 C  
HETATM    6  O   UNL     1      -9.265  11.207  65.435  1.00  0.00    -0.210 OA 
BRANCH   5   7
HETATM    7  C   UNL     1     -10.442  10.920  67.545  1.00  0.00    -0.215 C  
BRANCH   7   8
HETATM    8  N   UNL     1     -10.614   9.589  68.156  1.00  0.00    -0.222 NA 
HETATM    9  C   UNL     1     -10.822   9.447  69.522  1.00  0.00    -0.213 C  
HETATM   10  C   UNL     1     -10.959   8.276  70.164  1.00  0.00    -0.222 C  
HETATM   11  I   UNL     1     -11.269   8.167  72.180  1.00  0.00    -0.463 I  
HETATM   12  C   UNL     1     -10.873   7.017  69.343  1.00  0.00    -0.227 C  
HETATM   13  C   UNL     1     -10.635   7.183  67.870  1.00  0.00    -0.208 C  
HETATM   14  O   UNL     1     -10.993   5.906  69.856  1.00  0.00    -0.344 OA 
HETATM   15  I   UNL     1     -10.482   5.539  66.663  1.00  0.00    -0.187 I  
HETATM   16  C   UNL     1     -10.525   8.432  67.391  1.00  0.00    -0.283 C  
ENDBRANCH   7   8
ENDBRANCH   5   7
ENDBRANCH   4   5
ENDBRANCH   3   4
ENDBRANCH   2   3
TORSDOF 5
ENDMDL
MODEL      250
REMARK 921   NORMALIZED FREE ENERGY PREDICTED BY IDOCK:   -2.71 KCAL/MOL
REMARK 922        TOTAL FREE ENERGY PREDICTED BY IDOCK:   -3.81 KCAL/MOL
REMARK 923 INTER-LIGAND FREE ENERGY PREDICTED BY IDOCK:   -3.59 KCAL/MOL
REMARK 924 INTRA-LIGAND FREE ENERGY PREDICTED BY IDOCK:   -0.22 KCAL/MOL
REMARK 927      BINDING AFFINITY PREDICTED BY RF-SCORE:    0.00 PKD
ROOT
HETATM    1  C   UNL     1     -10.434   5.286  71.182  1.00  0.00    -0.275 C  
HETATM    2  C   UNL     1     -10.544   5.948  72.548  1.00  0.00    -0.256 C  
ENDROOT
BRANCH   2   3
HETATM    3  C   UNL     1     -10.306   7.448  72.429  1.00  0.00    -0.222 C  
BRANCH   3   4
HETATM    4  O   UNL     1     -11.526   8.159  72.175  1.00  0.00    -0.300 OA 
BRANCH   4   5
HETATM    5  C   UNL     1     -11.440   9.203  71.297  1.00  0.00    -0.335 C  
HETATM    6  O   UNL     1     -12.384   9.879  70.906  1.00  0.00    -0.297 OA 
BRANCH   5   7
HETATM    7  C   UNL     1      -9.989   9.455  70.920  1.00  0.00    -0.283 C  
BRANCH   7   8
HETATM    8  N   UNL     1      -9.789   9.503  69.459  1.00  0.00    -0.182 NA 
HETATM    9  C   UNL     1      -9.117   8.484  68.794  1.00  0.00    -0.143 C  
HETATM   10  C   UNL     1      -8.866   8.460  67.475  1.00  0.00    -0.135 C  
HETATM   11  I   UNL     1      -7.874   6.914  66.581  1.00  0.00    -0.113 I  
HETATM   12  C   UNL     1      -9.340   9.630  66.654  1.00  0.00    -0.156 C  
HETATM   13  C   UNL     1     -10.052  10.729  67.387  1.00  0.00    -0.193 C  
HETATM   14  O   UNL     1      -9.153   9.680  65.439  1.00  0.00    -0.183 OA 
HETATM   15  I   UNL     1     -10.722  12.374  66.373  1.00  0.00    -0.323 I  
HETATM   16  C   UNL     1     -10.222  10.589  68.711  1.00  0.00    -0.190 C  
ENDBRANCH   7   8
ENDBRANCH   5   7
ENDBRANCH   4   5
ENDBRANCH   3   4
ENDBRANCH   2   3
TORSDOF 5
ENDMDL
MODEL      251
REMARK 921   NORMALIZED FREE ENERGY PREDICTED BY IDOCK:   -2.70 KCAL/MOL
REMARK 922        TOTAL FREE ENERGY PREDICTED BY IDOCK:   -3.80 KCAL/MOL
REMARK 923 INTER-LIGAND FREE ENERGY PREDICTED BY IDOCK:   -3.71 KCAL/MOL
REMARK 924 INTRA-LIGAND FREE ENERGY PREDICTED BY IDOCK:   -0.09 KCAL/MOL
REMARK 927      BINDING AFFINITY PREDICTED BY RF-SCORE:    0.00 PKD
ROOT
HETATM    1  C   UNL     1     -11.574  15.647  64.053  1.00  0.00     0.079 C  
HETATM    2  C   UNL     1     -11.525  15.610  65.574  1.00  0.00     0.073 C  
ENDROOT
BRANCH   2   3
HETATM    3  C   UNL     1     -10.290  16.346  66.079  1.00  0.00    -0.352 C  
BRANCH   3   4
HETATM    4  O   UNL     1     -10.497  16.888  67.392  1.00  0.00    -0.311 OA 
BRANCH   4   5
HETATM    5  C   UNL     1     -10.699  15.977  68.391  1.00  0.00    -0.289 C  
HETATM    6  O   UNL     1     -11.675  15.942  69.131  1.00  0.00    -0.376 OA 
BRANCH   5   7
HETATM    7  C   UNL     1      -9.566  14.963  68.415  1.00  0.00    -0.209 C  
BRANCH   7   8
HETATM    8  N   UNL     1     -10.045  13.583  68.203  1.00  0.00    -0.243 NA 
HETATM    9  C   UNL     1     -10.723  12.897  69.204  1.00  0.00    -0.016 C  
HETATM   10  C   UNL     1     -11.167  11.634  69.107  1.00  0.00    -0.263 C  
HETATM   11  I   UNL     1     -12.161  10.708  70.632  1.00  0.00    -0.508 I  
HETATM   12  C   UNL     1     -10.903  10.899  67.820  1.00  0.00    -0.259 C  
HETATM   13  C   UNL     1     -10.159  11.647  66.752  1.00  0.00    -0.213 C  
HETATM   14  O   UNL     1     -11.282   9.741  67.653  1.00  0.00    -0.178 OA 
HETATM   15  I   UNL     1      -9.730  10.738  64.971  1.00  0.00    -0.407 I  
HETATM   16  C   UNL     1      -9.790  12.910  67.015  1.00  0.00    -0.233 C  
ENDBRANCH   7   8
ENDBRANCH   5   7
ENDBRANCH   4   5
ENDBRANCH   3   4
ENDBRANCH   2   3
TORSDOF 5
ENDMDL
MODEL      252
REMARK 921   NORMALIZED FREE ENERGY PREDICTED BY IDOCK:   -2.64 KCAL/MOL
REMARK 922        TOTAL FREE ENERGY PREDICTED BY IDOCK:   -3.72 KCAL/MOL
REMARK 923 INTER-LIGAND FREE ENERGY PREDICTED BY IDOCK:   -3.37 KCAL/MOL
REMARK 924 INTRA-LIGAND FREE ENERGY PREDICTED BY IDOCK:   -0.35 KCAL/MOL
REMARK 927      BINDING AFFINITY PREDICTED BY RF-SCORE:    0.00 PKD
ROOT
HETATM    1  C   UNL     1      -7.626  10.273  67.131  1.00  0.00    -0.092 C  
HETATM    2  C   UNL     1      -8.199  10.324  65.722  1.00  0.00    -0.147 C  
ENDROOT
BRANCH   2   3
HETATM    3  C   UNL     1      -9.683  10.664  65.768  1.00  0.00    -0.221 C  
BRANCH   3   4
HETATM    4  O   UNL     1      -9.899  12.068  65.971  1.00  0.00    -0.228 OA 
BRANCH   4   5
HETATM    5  C   UNL     1     -11.115  12.419  66.488  1.00  0.00    -0.301 C  
HETATM    6  O   UNL     1     -12.192  12.281  65.920  1.00  0.00    -0.634 OA 
BRANCH   5   7
HETATM    7  C   UNL     1     -10.952  12.947  67.904  1.00  0.00    -0.241 C  
BRANCH   7   8
HETATM    8  N   UNL     1      -9.865  13.939  68.011  1.00  0.00    -0.227 NA 
HETATM    9  C   UNL     1     -10.013  15.223  67.498  1.00  0.00    -0.226 C  
HETATM   10  C   UNL     1      -9.069  16.177  67.527  1.00  0.00    -0.203 C  
HETATM   11  I   UNL     1      -9.379  18.041  66.751  1.00  0.00    -0.302 I  
HETATM   12  C   UNL     1      -7.745  15.829  68.154  1.00  0.00    -0.128 C  
HETATM   13  C   UNL     1      -7.595  14.436  68.692  1.00  0.00    -0.132 C  
HETATM   14  O   UNL     1      -6.832  16.650  68.222  1.00  0.00    -0.140 OA 
HETATM   15  I   UNL     1      -5.832  13.851  69.549  1.00  0.00    -0.118 I  
HETATM   16  C   UNL     1      -8.645  13.607  68.585  1.00  0.00    -0.031 C  
ENDBRANCH   7   8
ENDBRANCH   5   7
ENDBRANCH   4   5
ENDBRANCH   3   4
ENDBRANCH   2   3
TORSDOF 5
ENDMDL
MODEL      253
REMARK 921   NORMALIZED FREE ENERGY PREDICTED BY IDOCK:   -2.63 KCAL/MOL
REMARK 922        TOTAL FREE ENERGY PREDICTED BY IDOCK:   -3.72 KCAL/MOL
REMARK 923 INTER-LIGAND FREE ENERGY PREDICTED BY IDOCK:   -4.57 KCAL/MOL
REMARK 924 INTRA-LIGAND FREE ENERGY PREDICTED BY IDOCK:    0.86 KCAL/MOL
REMARK 927      BINDING AFFINITY PREDICTED BY RF-SCORE:    0.00 PKD
ROOT
HETATM    1  C   UNL     1     -12.156  12.961  63.373  1.00  0.00    -0.610 C  
HETATM    2  C   UNL     1     -11.256  13.002  64.600  1.00  0.00    -0.355 C  
ENDROOT
BRANCH   2   3
HETATM    3  C   UNL     1     -11.120  14.433  65.106  1.00  0.00    -0.362 C  
BRANCH   3   4
HETATM    4  O   UNL     1     -11.087  14.486  66.539  1.00  0.00    -0.318 OA 
BRANCH   4   5
HETATM    5  C   UNL     1     -10.388  13.490  67.161  1.00  0.00    -0.250 C  
HETATM    6  O   UNL     1      -9.332  13.636  67.765  1.00  0.00    -0.201 OA 
BRANCH   5   7
HETATM    7  C   UNL     1     -11.142  12.174  67.055  1.00  0.00    -0.294 C  
BRANCH   7   8
HETATM    8  N   UNL     1     -11.325  11.525  68.368  1.00  0.00    -0.252 NA 
HETATM    9  C   UNL     1     -10.827  10.252  68.615  1.00  0.00    -0.234 C  
HETATM   10  C   UNL     1     -10.972   9.578  69.767  1.00  0.00    -0.223 C  
HETATM   11  I   UNL     1     -10.198   7.708  70.042  1.00  0.00    -0.231 I  
HETATM   12  C   UNL     1     -11.742  10.248  70.874  1.00  0.00    -0.379 C  
HETATM   13  C   UNL     1     -12.286  11.618  70.589  1.00  0.00    -0.366 C  
HETATM   14  O   UNL     1     -11.914   9.698  71.960  1.00  0.00    -0.332 OA 
HETATM   15  I   UNL     1     -13.362  12.612  72.016  1.00  0.00     0.028 I  
HETATM   16  C   UNL     1     -12.043  12.148  69.380  1.00  0.00    -0.190 C  
ENDBRANCH   7   8
ENDBRANCH   5   7
ENDBRANCH   4   5
ENDBRANCH   3   4
ENDBRANCH   2   3
TORSDOF 5
ENDMDL
MODEL      254
REMARK 921   NORMALIZED FREE ENERGY PREDICTED BY IDOCK:   -2.63 KCAL/MOL
REMARK 922        TOTAL FREE ENERGY PREDICTED BY IDOCK:   -3.71 KCAL/MOL
REMARK 923 INTER-LIGAND FREE ENERGY PREDICTED BY IDOCK:   -3.58 KCAL/MOL
REMARK 924 INTRA-LIGAND FREE ENERGY PREDICTED BY IDOCK:   -0.13 KCAL/MOL
REMARK 927      BINDING AFFINITY PREDICTED BY RF-SCORE:    0.00 PKD
ROOT
HETATM    1  C   UNL     1     -11.845  10.327  70.605  1.00  0.00    -0.439 C  
HETATM    2  C   UNL     1     -12.317  11.336  69.568  1.00  0.00    -0.243 C  
ENDROOT
BRANCH   2   3
HETATM    3  C   UNL     1     -11.423  11.284  68.336  1.00  0.00    -0.307 C  
BRANCH   3   4
HETATM    4  O   UNL     1     -10.626  12.470  68.209  1.00  0.00    -0.217 OA 
BRANCH   4   5
HETATM    5  C   UNL     1      -9.811  12.531  67.113  1.00  0.00    -0.210 C  
HETATM    6  O   UNL     1      -9.219  11.579  66.617  1.00  0.00    -0.176 OA 
BRANCH   5   7
HETATM    7  C   UNL     1      -9.793  13.943  66.549  1.00  0.00    -0.290 C  
BRANCH   7   8
HETATM    8  N   UNL     1      -8.646  14.729  67.042  1.00  0.00    -0.228 NA 
HETATM    9  C   UNL     1      -7.865  14.275  68.099  1.00  0.00    -0.139 C  
HETATM   10  C   UNL     1      -6.824  14.937  68.627  1.00  0.00    -0.106 C  
HETATM   11  I   UNL     1      -5.729  14.187  70.180  1.00  0.00    -0.170 I  
HETATM   12  C   UNL     1      -6.479  16.279  68.038  1.00  0.00    -0.131 C  
HETATM   13  C   UNL     1      -7.338  16.763  66.905  1.00  0.00    -0.222 C  
HETATM   14  O   UNL     1      -5.537  16.944  68.464  1.00  0.00    -0.127 OA 
HETATM   15  I   UNL     1      -6.970  18.581  66.042  1.00  0.00    -0.262 I  
HETATM   16  C   UNL     1      -8.340  15.969  66.497  1.00  0.00    -0.313 C  
ENDBRANCH   7   8
ENDBRANCH   5   7
ENDBRANCH   4   5
ENDBRANCH   3   4
ENDBRANCH   2   3
TORSDOF 5
ENDMDL
MODEL      255
REMARK 921   NORMALIZED FREE ENERGY PREDICTED BY IDOCK:   -2.62 KCAL/MOL
REMARK 922        TOTAL FREE ENERGY PREDICTED BY IDOCK:   -3.70 KCAL/MOL
REMARK 923 INTER-LIGAND FREE ENERGY PREDICTED BY IDOCK:   -3.47 KCAL/MOL
REMARK 924 INTRA-LIGAND FREE ENERGY PREDICTED BY IDOCK:   -0.23 KCAL/MOL
REMARK 927      BINDING AFFINITY PREDICTED BY RF-SCORE:    0.00 PKD
ROOT
HETATM    1  C   UNL     1     -12.850  10.287  70.895  1.00  0.00    -0.463 C  
HETATM    2  C   UNL     1     -13.383   9.096  71.679  1.00  0.00    -0.444 C  
ENDROOT
BRANCH   2   3
HETATM    3  C   UNL     1     -12.230   8.233  72.176  1.00  0.00    -0.364 C  
BRANCH   3   4
HETATM    4  O   UNL     1     -12.006   7.104  71.319  1.00  0.00    -0.301 OA 
BRANCH   4   5
HETATM    5  C   UNL     1     -10.965   7.216  70.440  1.00  0.00    -0.265 C  
HETATM    6  O   UNL     1      -9.884   7.738  70.685  1.00  0.00    -0.181 OA 
BRANCH   5   7
HETATM    7  C   UNL     1     -11.312   6.536  69.125  1.00  0.00    -0.261 C  
BRANCH   7   8
HETATM    8  N   UNL     1     -10.318   5.516  68.741  1.00  0.00    -0.205 NA 
HETATM    9  C   UNL     1      -9.905   5.377  67.422  1.00  0.00    -0.154 C  
HETATM   10  C   UNL     1      -9.029   4.460  66.981  1.00  0.00    -0.119 C  
HETATM   11  I   UNL     1      -8.475   4.334  65.019  1.00  0.00    -0.132 I  
HETATM   12  C   UNL     1      -8.456   3.501  67.991  1.00  0.00    -0.093 C  
HETATM   13  C   UNL     1      -8.920   3.654  69.411  1.00  0.00    -0.114 C  
HETATM   14  O   UNL     1      -7.644   2.636  67.667  1.00  0.00    -0.060 OA 
HETATM   15  I   UNL     1      -8.220   2.394  70.861  1.00  0.00    -0.091 I  
HETATM   16  C   UNL     1      -9.801   4.631  69.679  1.00  0.00    -0.223 C  
ENDBRANCH   7   8
ENDBRANCH   5   7
ENDBRANCH   4   5
ENDBRANCH   3   4
ENDBRANCH   2   3
TORSDOF 5
ENDMDL
MODEL      256
REMARK 921   NORMALIZED FREE ENERGY PREDICTED BY IDOCK:   -2.62 KCAL/MOL
REMARK 922        TOTAL FREE ENERGY PREDICTED BY IDOCK:   -3.70 KCAL/MOL
REMARK 923 INTER-LIGAND FREE ENERGY PREDICTED BY IDOCK:   -3.33 KCAL/MOL
REMARK 924 INTRA-LIGAND FREE ENERGY PREDICTED BY IDOCK:   -0.37 KCAL/MOL
REMARK 927      BINDING AFFINITY PREDICTED BY RF-SCORE:    0.00 PKD
ROOT
HETATM    1  C   UNL     1     -10.595   7.294  73.440  1.00  0.00    -0.435 C  
HETATM    2  C   UNL     1     -11.626   7.546  72.349  1.00  0.00    -0.356 C  
ENDROOT
BRANCH   2   3
HETATM    3  C   UNL     1     -11.258   8.792  71.554  1.00  0.00    -0.307 C  
BRANCH   3   4
HETATM    4  O   UNL     1      -9.910   9.208  71.814  1.00  0.00    -0.299 OA 
BRANCH   4   5
HETATM    5  C   UNL     1      -9.121   9.407  70.716  1.00  0.00    -0.204 C  
HETATM    6  O   UNL     1      -7.897   9.361  70.705  1.00  0.00    -0.175 OA 
BRANCH   5   7
HETATM    7  C   UNL     1      -9.983   9.628  69.482  1.00  0.00    -0.209 C  
BRANCH   7   8
HETATM    8  N   UNL     1      -9.476   8.898  68.305  1.00  0.00    -0.139 NA 
HETATM    9  C   UNL     1      -8.671   9.526  67.363  1.00  0.00    -0.125 C  
HETATM   10  C   UNL     1      -8.191   8.948  66.251  1.00  0.00    -0.111 C  
HETATM   11  I   UNL     1      -7.007   9.951  64.923  1.00  0.00    -0.121 I  
HETATM   12  C   UNL     1      -8.558   7.509  65.999  1.00  0.00    -0.151 C  
HETATM   13  C   UNL     1      -9.438   6.846  67.019  1.00  0.00    -0.151 C  
HETATM   14  O   UNL     1      -8.153   6.907  65.006  1.00  0.00    -0.121 OA 
HETATM   15  I   UNL     1     -10.014   4.899  66.767  1.00  0.00    -0.269 I  
HETATM   16  C   UNL     1      -9.826   7.573  68.078  1.00  0.00    -0.151 C  
ENDBRANCH   7   8
ENDBRANCH   5   7
ENDBRANCH   4   5
ENDBRANCH   3   4
ENDBRANCH   2   3
TORSDOF 5
ENDMDL
MODEL      257
REMARK 921   NORMALIZED FREE ENERGY PREDICTED BY IDOCK:   -2.61 KCAL/MOL
REMARK 922        TOTAL FREE ENERGY PREDICTED BY IDOCK:   -3.68 KCAL/MOL
REMARK 923 INTER-LIGAND FREE ENERGY PREDICTED BY IDOCK:   -2.99 KCAL/MOL
REMARK 924 INTRA-LIGAND FREE ENERGY PREDICTED BY IDOCK:   -0.69 KCAL/MOL
REMARK 927      BINDING AFFINITY PREDICTED BY RF-SCORE:    0.00 PKD
ROOT
HETATM    1  C   UNL     1      -7.676   9.360  70.580  1.00  0.00    -0.177 C  
HETATM    2  C   UNL     1      -6.744   8.210  70.225  1.00  0.00    -0.037 C  
ENDROOT
BRANCH   2   3
HETATM    3  C   UNL     1      -6.940   7.054  71.198  1.00  0.00    -0.062 C  
BRANCH   3   4
HETATM    4  O   UNL     1      -8.318   6.665  71.288  1.00  0.00    -0.122 OA 
BRANCH   4   5
HETATM    5  C   UNL     1      -8.760   5.800  70.326  1.00  0.00    -0.137 C  
HETATM    6  O   UNL     1      -8.078   4.945  69.775  1.00  0.00    -0.069 OA 
BRANCH   5   7
HETATM    7  C   UNL     1     -10.248   6.001  70.082  1.00  0.00    -0.208 C  
BRANCH   7   8
HETATM    8  N   UNL     1     -10.555   7.353  69.577  1.00  0.00    -0.235 NA 
HETATM    9  C   UNL     1     -10.092   7.779  68.338  1.00  0.00    -0.192 C  
HETATM   10  C   UNL     1     -10.299   8.997  67.815  1.00  0.00    -0.246 C  
HETATM   11  I   UNL     1      -9.583   9.533  65.979  1.00  0.00    -0.332 I  
HETATM   12  C   UNL     1     -11.087   9.983  68.636  1.00  0.00    -0.174 C  
HETATM   13  C   UNL     1     -11.571   9.515  69.978  1.00  0.00    -0.048 C  
HETATM   14  O   UNL     1     -11.324  11.118  68.225  1.00  0.00    -0.247 OA 
HETATM   15  I   UNL     1     -12.635  10.778  71.185  1.00  0.00    -0.487 I  
HETATM   16  C   UNL     1     -11.276   8.258  70.345  1.00  0.00    -0.219 C  
ENDBRANCH   7   8
ENDBRANCH   5   7
ENDBRANCH   4   5
ENDBRANCH   3   4
ENDBRANCH   2   3
TORSDOF 5
ENDMDL
MODEL      258
REMARK 921   NORMALIZED FREE ENERGY PREDICTED BY IDOCK:   -2.60 KCAL/MOL
REMARK 922        TOTAL FREE ENERGY PREDICTED BY IDOCK:   -3.68 KCAL/MOL
REMARK 923 INTER-LIGAND FREE ENERGY PREDICTED BY IDOCK:   -3.40 KCAL/MOL
REMARK 924 INTRA-LIGAND FREE ENERGY PREDICTED BY IDOCK:   -0.28 KCAL/MOL
REMARK 927      BINDING AFFINITY PREDICTED BY RF-SCORE:    0.00 PKD
ROOT
HETATM    1  C   UNL     1      -9.454  10.651  64.400  1.00  0.00    -0.317 C  
HETATM    2  C   UNL     1     -10.263  11.493  65.377  1.00  0.00    -0.311 C  
ENDROOT
BRANCH   2   3
HETATM    3  C   UNL     1      -9.741  11.301  66.795  1.00  0.00    -0.193 C  
BRANCH   3   4
HETATM    4  O   UNL     1     -10.425  10.236  67.471  1.00  0.00    -0.209 OA 
BRANCH   4   5
HETATM    5  C   UNL     1      -9.734   9.625  68.480  1.00  0.00    -0.150 C  
HETATM    6  O   UNL     1      -9.191  10.200  69.416  1.00  0.00    -0.197 OA 
BRANCH   5   7
HETATM    7  C   UNL     1      -9.790   8.114  68.317  1.00  0.00    -0.171 C  
BRANCH   7   8
HETATM    8  N   UNL     1     -10.328   7.440  69.513  1.00  0.00    -0.211 NA 
HETATM    9  C   UNL     1     -11.604   7.724  69.984  1.00  0.00     0.127 C  
HETATM   10  C   UNL     1     -12.160   7.181  71.078  1.00  0.00    -0.350 C  
HETATM   11  I   UNL     1     -14.050   7.655  71.692  1.00  0.00    -0.387 I  
HETATM   12  C   UNL     1     -11.336   6.194  71.862  1.00  0.00    -0.296 C  
HETATM   13  C   UNL     1      -9.955   5.906  71.350  1.00  0.00    -0.185 C  
HETATM   14  O   UNL     1     -11.777   5.649  72.873  1.00  0.00    -0.250 OA 
HETATM   15  I   UNL     1      -8.742   4.596  72.348  1.00  0.00    -0.135 I  
HETATM   16  C   UNL     1      -9.557   6.537  70.235  1.00  0.00    -0.161 C  
ENDBRANCH   7   8
ENDBRANCH   5   7
ENDBRANCH   4   5
ENDBRANCH   3   4
ENDBRANCH   2   3
TORSDOF 5
ENDMDL
MODEL      259
REMARK 921   NORMALIZED FREE ENERGY PREDICTED BY IDOCK:   -2.58 KCAL/MOL
REMARK 922        TOTAL FREE ENERGY PREDICTED BY IDOCK:   -3.65 KCAL/MOL
REMARK 923 INTER-LIGAND FREE ENERGY PREDICTED BY IDOCK:   -3.66 KCAL/MOL
REMARK 924 INTRA-LIGAND FREE ENERGY PREDICTED BY IDOCK:    0.01 KCAL/MOL
REMARK 927      BINDING AFFINITY PREDICTED BY RF-SCORE:    0.00 PKD
ROOT
HETATM    1  C   UNL     1      -6.183  14.307  67.829  1.00  0.00    -0.152 C  
HETATM    2  C   UNL     1      -7.564  13.825  67.409  1.00  0.00    -0.153 C  
ENDROOT
BRANCH   2   3
HETATM    3  C   UNL     1      -7.555  12.315  67.202  1.00  0.00    -0.118 C  
BRANCH   3   4
HETATM    4  O   UNL     1      -8.845  11.827  66.808  1.00  0.00    -0.180 OA 
BRANCH   4   5
HETATM    5  C   UNL     1      -9.719  11.555  67.823  1.00  0.00    -0.174 C  
HETATM    6  O   UNL     1      -9.478  10.850  68.796  1.00  0.00    -0.183 OA 
BRANCH   5   7
HETATM    7  C   UNL     1     -11.022  12.311  67.612  1.00  0.00    -0.244 C  
BRANCH   7   8
HETATM    8  N   UNL     1     -11.136  13.489  68.493  1.00  0.00    -0.260 NA 
HETATM    9  C   UNL     1     -12.138  13.573  69.452  1.00  0.00    -0.289 C  
HETATM   10  C   UNL     1     -12.332  14.617  70.273  1.00  0.00    -0.349 C  
HETATM   11  I   UNL     1     -13.832  14.650  71.660  1.00  0.00    -0.613 I  
HETATM   12  C   UNL     1     -11.399  15.791  70.141  1.00  0.00    -0.355 C  
HETATM   13  C   UNL     1     -10.329  15.692  69.093  1.00  0.00    -0.241 C  
HETATM   14  O   UNL     1     -11.508  16.783  70.860  1.00  0.00    -0.071 OA 
HETATM   15  I   UNL     1      -9.018  17.238  68.815  1.00  0.00    -0.037 I  
HETATM   16  C   UNL     1     -10.275  14.570  68.358  1.00  0.00    -0.239 C  
ENDBRANCH   7   8
ENDBRANCH   5   7
ENDBRANCH   4   5
ENDBRANCH   3   4
ENDBRANCH   2   3
TORSDOF 5
ENDMDL
MODEL      260
REMARK 921   NORMALIZED FREE ENERGY PREDICTED BY IDOCK:   -2.58 KCAL/MOL
REMARK 922        TOTAL FREE ENERGY PREDICTED BY IDOCK:   -3.64 KCAL/MOL
REMARK 923 INTER-LIGAND FREE ENERGY PREDICTED BY IDOCK:   -3.99 KCAL/MOL
REMARK 924 INTRA-LIGAND FREE ENERGY PREDICTED BY IDOCK:    0.35 KCAL/MOL
REMARK 927      BINDING AFFINITY PREDICTED BY RF-SCORE:    0.00 PKD
ROOT
HETATM    1  C   UNL     1     -10.422  17.293  67.242  1.00  0.00    -0.319 C  
HETATM    2  C   UNL     1      -9.864  16.893  65.883  1.00  0.00    -0.241 C  
ENDROOT
BRANCH   2   3
HETATM    3  C   UNL     1     -10.794  15.894  65.205  1.00  0.00    -0.421 C  
BRANCH   3   4
HETATM    4  O   UNL     1     -10.716  14.599  65.816  1.00  0.00    -0.291 OA 
BRANCH   4   5
HETATM    5  C   UNL     1     -11.452  13.611  65.224  1.00  0.00    -0.308 C  
HETATM    6  O   UNL     1     -11.671  13.515  64.022  1.00  0.00    -0.409 OA 
BRANCH   5   7
HETATM    7  C   UNL     1     -11.908  12.600  66.264  1.00  0.00    -0.410 C  
BRANCH   7   8
HETATM    8  N   UNL     1     -10.780  11.863  66.864  1.00  0.00    -0.236 NA 
HETATM    9  C   UNL     1     -10.918  10.539  67.261  1.00  0.00    -0.260 C  
HETATM   10  C   UNL     1      -9.955   9.804  67.840  1.00  0.00    -0.163 C  
HETATM   11  I   UNL     1     -10.247   7.858  68.386  1.00  0.00    -0.195 I  
HETATM   12  C   UNL     1      -8.625  10.466  68.085  1.00  0.00    -0.125 C  
HETATM   13  C   UNL     1      -8.493  11.901  67.663  1.00  0.00    -0.156 C  
HETATM   14  O   UNL     1      -7.691   9.859  68.606  1.00  0.00    -0.078 OA 
HETATM   15  I   UNL     1      -6.737  12.904  67.966  1.00  0.00    -0.169 I  
HETATM   16  C   UNL     1      -9.559  12.485  67.093  1.00  0.00    -0.208 C  
ENDBRANCH   7   8
ENDBRANCH   5   7
ENDBRANCH   4   5
ENDBRANCH   3   4
ENDBRANCH   2   3
TORSDOF 5
ENDMDL
MODEL      261
REMARK 921   NORMALIZED FREE ENERGY PREDICTED BY IDOCK:   -2.57 KCAL/MOL
REMARK 922        TOTAL FREE ENERGY PREDICTED BY IDOCK:   -3.64 KCAL/MOL
REMARK 923 INTER-LIGAND FREE ENERGY PREDICTED BY IDOCK:   -3.43 KCAL/MOL
REMARK 924 INTRA-LIGAND FREE ENERGY PREDICTED BY IDOCK:   -0.20 KCAL/MOL
REMARK 927      BINDING AFFINITY PREDICTED BY RF-SCORE:    0.00 PKD
ROOT
HETATM    1  C   UNL     1     -11.289  12.960  65.911  1.00  0.00    -0.348 C  
HETATM    2  C   UNL     1     -11.803  13.027  67.342  1.00  0.00    -0.411 C  
ENDROOT
BRANCH   2   3
HETATM    3  C   UNL     1     -10.675  12.729  68.322  1.00  0.00    -0.239 C  
BRANCH   3   4
HETATM    4  O   UNL     1      -9.551  12.124  67.668  1.00  0.00    -0.182 OA 
BRANCH   4   5
HETATM    5  C   UNL     1      -9.165  10.903  68.146  1.00  0.00    -0.158 C  
HETATM    6  O   UNL     1      -8.461  10.719  69.131  1.00  0.00    -0.152 OA 
BRANCH   5   7
HETATM    7  C   UNL     1      -9.792   9.792  67.317  1.00  0.00    -0.181 C  
BRANCH   7   8
HETATM    8  N   UNL     1      -9.895   8.525  68.066  1.00  0.00    -0.163 NA 
HETATM    9  C   UNL     1     -10.661   8.435  69.222  1.00  0.00    -0.182 C  
HETATM   10  C   UNL     1     -10.788   7.334  69.978  1.00  0.00    -0.253 C  
HETATM   11  I   UNL     1     -11.943   7.294  71.663  1.00  0.00    -0.407 I  
HETATM   12  C   UNL     1     -10.037   6.102  69.547  1.00  0.00    -0.185 C  
HETATM   13  C   UNL     1      -9.204   6.216  68.303  1.00  0.00    -0.114 C  
HETATM   14  O   UNL     1     -10.106   5.052  70.184  1.00  0.00    -0.232 OA 
HETATM   15  I   UNL     1      -8.128   4.609  67.637  1.00  0.00    -0.099 I  
HETATM   16  C   UNL     1      -9.193   7.396  67.664  1.00  0.00    -0.127 C  
ENDBRANCH   7   8
ENDBRANCH   5   7
ENDBRANCH   4   5
ENDBRANCH   3   4
ENDBRANCH   2   3
TORSDOF 5
ENDMDL
MODEL      262
REMARK 921   NORMALIZED FREE ENERGY PREDICTED BY IDOCK:   -2.56 KCAL/MOL
REMARK 922        TOTAL FREE ENERGY PREDICTED BY IDOCK:   -3.62 KCAL/MOL
REMARK 923 INTER-LIGAND FREE ENERGY PREDICTED BY IDOCK:   -3.14 KCAL/MOL
REMARK 924 INTRA-LIGAND FREE ENERGY PREDICTED BY IDOCK:   -0.48 KCAL/MOL
REMARK 927      BINDING AFFINITY PREDICTED BY RF-SCORE:    0.00 PKD
ROOT
HETATM    1  C   UNL     1     -13.622   9.750  72.426  1.00  0.00    -0.328 C  
HETATM    2  C   UNL     1     -12.742   9.929  71.197  1.00  0.00    -0.462 C  
ENDROOT
BRANCH   2   3
HETATM    3  C   UNL     1     -11.302   9.553  71.520  1.00  0.00    -0.385 C  
BRANCH   3   4
HETATM    4  O   UNL     1     -10.834   8.483  70.686  1.00  0.00    -0.215 OA 
BRANCH   4   5
HETATM    5  C   UNL     1     -11.298   7.235  70.997  1.00  0.00    -0.274 C  
HETATM    6  O   UNL     1     -11.950   6.515  70.249  1.00  0.00    -0.394 OA 
BRANCH   5   7
HETATM    7  C   UNL     1     -10.830   6.831  72.386  1.00  0.00    -0.238 C  
BRANCH   7   8
HETATM    8  N   UNL     1      -9.373   6.610  72.446  1.00  0.00    -0.143 NA 
HETATM    9  C   UNL     1      -8.779   5.554  71.765  1.00  0.00    -0.136 C  
HETATM   10  C   UNL     1      -7.469   5.263  71.787  1.00  0.00    -0.091 C  
HETATM   11  I   UNL     1      -6.683   3.690  70.747  1.00  0.00    -0.033 I  
HETATM   12  C   UNL     1      -6.573   6.142  72.619  1.00  0.00    -0.064 C  
HETATM   13  C   UNL     1      -7.229   7.271  73.359  1.00  0.00    -0.072 C  
HETATM   14  O   UNL     1      -5.361   5.944  72.687  1.00  0.00    -0.024 OA 
HETATM   15  I   UNL     1      -6.110   8.516  74.535  1.00  0.00    -0.140 I  
HETATM   16  C   UNL     1      -8.556   7.422  73.222  1.00  0.00    -0.145 C  
ENDBRANCH   7   8
ENDBRANCH   5   7
ENDBRANCH   4   5
ENDBRANCH   3   4
ENDBRANCH   2   3
TORSDOF 5
ENDMDL
MODEL      263
REMARK 921   NORMALIZED FREE ENERGY PREDICTED BY IDOCK:   -2.54 KCAL/MOL
REMARK 922        TOTAL FREE ENERGY PREDICTED BY IDOCK:   -3.60 KCAL/MOL
REMARK 923 INTER-LIGAND FREE ENERGY PREDICTED BY IDOCK:   -3.30 KCAL/MOL
REMARK 924 INTRA-LIGAND FREE ENERGY PREDICTED BY IDOCK:   -0.30 KCAL/MOL
REMARK 927      BINDING AFFINITY PREDICTED BY RF-SCORE:    0.00 PKD
ROOT
HETATM    1  C   UNL     1      -6.487   7.368  69.758  1.00  0.00    -0.035 C  
HETATM    2  C   UNL     1      -7.590   6.448  70.263  1.00  0.00    -0.096 C  
ENDROOT
BRANCH   2   3
HETATM    3  C   UNL     1      -8.952   7.103  70.070  1.00  0.00    -0.142 C  
BRANCH   3   4
HETATM    4  O   UNL     1      -8.906   8.138  69.077  1.00  0.00    -0.143 OA 
BRANCH   4   5
HETATM    5  C   UNL     1      -9.755   9.192  69.269  1.00  0.00    -0.164 C  
HETATM    6  O   UNL     1     -10.855   9.127  69.805  1.00  0.00    -0.228 OA 
BRANCH   5   7
HETATM    7  C   UNL     1      -9.110  10.481  68.783  1.00  0.00    -0.166 C  
BRANCH   7   8
HETATM    8  N   UNL     1      -9.501  10.817  67.401  1.00  0.00    -0.154 NA 
HETATM    9  C   UNL     1      -8.871  10.224  66.313  1.00  0.00    -0.146 C  
HETATM   10  C   UNL     1      -9.143  10.492  65.026  1.00  0.00    -0.201 C  
HETATM   11  I   UNL     1      -8.166   9.565  63.490  1.00  0.00    -0.213 I  
HETATM   12  C   UNL     1     -10.206  11.518  64.736  1.00  0.00    -0.281 C  
HETATM   13  C   UNL     1     -10.869  12.160  65.920  1.00  0.00    -0.278 C  
HETATM   14  O   UNL     1     -10.515  11.815  63.584  1.00  0.00    -0.352 OA 
HETATM   15  I   UNL     1     -12.314  13.581  65.642  1.00  0.00    -0.480 I  
HETATM   16  C   UNL     1     -10.477  11.771  67.144  1.00  0.00    -0.220 C  
ENDBRANCH   7   8
ENDBRANCH   5   7
ENDBRANCH   4   5
ENDBRANCH   3   4
ENDBRANCH   2   3
TORSDOF 5
ENDMDL
MODEL      264
REMARK 921   NORMALIZED FREE ENERGY PREDICTED BY IDOCK:   -2.52 KCAL/MOL
REMARK 922        TOTAL FREE ENERGY PREDICTED BY IDOCK:   -3.57 KCAL/MOL
REMARK 923 INTER-LIGAND FREE ENERGY PREDICTED BY IDOCK:   -3.27 KCAL/MOL
REMARK 924 INTRA-LIGAND FREE ENERGY PREDICTED BY IDOCK:   -0.29 KCAL/MOL
REMARK 927      BINDING AFFINITY PREDICTED BY RF-SCORE:    0.00 PKD
ROOT
HETATM    1  C   UNL     1      -9.986   7.385  73.549  1.00  0.00    -0.377 C  
HETATM    2  C   UNL     1     -11.112   6.869  72.664  1.00  0.00    -0.306 C  
ENDROOT
BRANCH   2   3
HETATM    3  C   UNL     1     -10.738   7.020  71.195  1.00  0.00    -0.230 C  
BRANCH   3   4
HETATM    4  O   UNL     1     -11.608   7.940  70.519  1.00  0.00    -0.247 OA 
BRANCH   4   5
HETATM    5  C   UNL     1     -11.079   9.169  70.240  1.00  0.00    -0.239 C  
HETATM    6  O   UNL     1     -11.245  10.180  70.912  1.00  0.00    -0.337 OA 
BRANCH   5   7
HETATM    7  C   UNL     1     -10.194   9.093  69.006  1.00  0.00    -0.207 C  
BRANCH   7   8
HETATM    8  N   UNL     1      -9.255  10.228  68.919  1.00  0.00    -0.165 NA 
HETATM    9  C   UNL     1      -8.004  10.173  69.521  1.00  0.00    -0.165 C  
HETATM   10  C   UNL     1      -7.102  11.167  69.516  1.00  0.00    -0.088 C  
HETATM   11  I   UNL     1      -5.280  10.992  70.424  1.00  0.00    -0.114 I  
HETATM   12  C   UNL     1      -7.476  12.444  68.812  1.00  0.00    -0.056 C  
HETATM   13  C   UNL     1      -8.836  12.496  68.177  1.00  0.00    -0.191 C  
HETATM   14  O   UNL     1      -6.702  13.399  68.759  1.00  0.00    -0.094 OA 
HETATM   15  I   UNL     1      -9.455  14.189  67.211  1.00  0.00    -0.264 I  
HETATM   16  C   UNL     1      -9.613  11.406  68.275  1.00  0.00    -0.192 C  
ENDBRANCH   7   8
ENDBRANCH   5   7
ENDBRANCH   4   5
ENDBRANCH   3   4
ENDBRANCH   2   3
TORSDOF 5
ENDMDL
MODEL      265
REMARK 921   NORMALIZED FREE ENERGY PREDICTED BY IDOCK:   -2.51 KCAL/MOL
REMARK 922        TOTAL FREE ENERGY PREDICTED BY IDOCK:   -3.56 KCAL/MOL
REMARK 923 INTER-LIGAND FREE ENERGY PREDICTED BY IDOCK:   -3.09 KCAL/MOL
REMARK 924 INTRA-LIGAND FREE ENERGY PREDICTED BY IDOCK:   -0.48 KCAL/MOL
REMARK 927      BINDING AFFINITY PREDICTED BY RF-SCORE:    0.00 PKD
ROOT
HETATM    1  C   UNL     1     -10.639   9.182  67.392  1.00  0.00    -0.315 C  
HETATM    2  C   UNL     1      -9.269   9.498  66.808  1.00  0.00    -0.184 C  
ENDROOT
BRANCH   2   3
HETATM    3  C   UNL     1      -8.173   9.081  67.781  1.00  0.00    -0.109 C  
BRANCH   3   4
HETATM    4  O   UNL     1      -8.364   9.668  69.076  1.00  0.00    -0.111 OA 
BRANCH   4   5
HETATM    5  C   UNL     1      -8.035   8.882  70.145  1.00  0.00    -0.111 C  
HETATM    6  O   UNL     1      -7.627   9.290  71.226  1.00  0.00    -0.306 OA 
BRANCH   5   7
HETATM    7  C   UNL     1      -8.313   7.420  69.828  1.00  0.00    -0.134 C  
BRANCH   7   8
HETATM    8  N   UNL     1      -9.388   6.859  70.668  1.00  0.00    -0.162 NA 
HETATM    9  C   UNL     1      -9.224   5.646  71.326  1.00  0.00    -0.146 C  
HETATM   10  C   UNL     1     -10.157   5.050  72.085  1.00  0.00    -0.196 C  
HETATM   11  I   UNL     1      -9.824   3.265  73.022  1.00  0.00    -0.237 I  
HETATM   12  C   UNL     1     -11.487   5.742  72.228  1.00  0.00    -0.262 C  
HETATM   13  C   UNL     1     -11.654   7.045  71.501  1.00  0.00    -0.287 C  
HETATM   14  O   UNL     1     -12.391   5.262  72.910  1.00  0.00    -0.053 OA 
HETATM   15  I   UNL     1     -13.426   8.061  71.610  1.00  0.00    -0.252 I  
HETATM   16  C   UNL     1     -10.613   7.501  70.787  1.00  0.00    -0.220 C  
ENDBRANCH   7   8
ENDBRANCH   5   7
ENDBRANCH   4   5
ENDBRANCH   3   4
ENDBRANCH   2   3
TORSDOF 5
ENDMDL
MODEL      266
REMARK 921   NORMALIZED FREE ENERGY PREDICTED BY IDOCK:   -2.50 KCAL/MOL
REMARK 922        TOTAL FREE ENERGY PREDICTED BY IDOCK:   -3.55 KCAL/MOL
REMARK 923 INTER-LIGAND FREE ENERGY PREDICTED BY IDOCK:   -3.38 KCAL/MOL
REMARK 924 INTRA-LIGAND FREE ENERGY PREDICTED BY IDOCK:   -0.17 KCAL/MOL
REMARK 927      BINDING AFFINITY PREDICTED BY RF-SCORE:    0.00 PKD
ROOT
HETATM    1  C   UNL     1     -13.089  10.628  71.931  1.00  0.00    -0.563 C  
HETATM    2  C   UNL     1     -11.857  10.638  71.038  1.00  0.00    -0.396 C  
ENDROOT
BRANCH   2   3
HETATM    3  C   UNL     1     -10.953   9.458  71.373  1.00  0.00    -0.373 C  
BRANCH   3   4
HETATM    4  O   UNL     1     -10.053   9.158  70.296  1.00  0.00    -0.181 OA 
BRANCH   4   5
HETATM    5  C   UNL     1     -10.476   8.210  69.407  1.00  0.00    -0.220 C  
HETATM    6  O   UNL     1     -10.282   8.237  68.198  1.00  0.00    -0.197 OA 
BRANCH   5   7
HETATM    7  C   UNL     1     -11.169   7.073  70.141  1.00  0.00    -0.284 C  
BRANCH   7   8
HETATM    8  N   UNL     1     -10.213   6.073  70.655  1.00  0.00    -0.196 NA 
HETATM    9  C   UNL     1     -10.630   5.048  71.497  1.00  0.00    -0.105 C  
HETATM   10  C   UNL     1      -9.826   4.116  72.032  1.00  0.00    -0.174 C  
HETATM   11  I   UNL     1     -10.530   2.641  73.257  1.00  0.00    -0.276 I  
HETATM   12  C   UNL     1      -8.358   4.189  71.703  1.00  0.00    -0.091 C  
HETATM   13  C   UNL     1      -7.920   5.308  70.803  1.00  0.00    -0.098 C  
HETATM   14  O   UNL     1      -7.558   3.369  72.150  1.00  0.00    -0.054 OA 
HETATM   15  I   UNL     1      -5.946   5.512  70.306  1.00  0.00    -0.024 I  
HETATM   16  C   UNL     1      -8.860   6.153  70.352  1.00  0.00    -0.149 C  
ENDBRANCH   7   8
ENDBRANCH   5   7
ENDBRANCH   4   5
ENDBRANCH   3   4
ENDBRANCH   2   3
TORSDOF 5
ENDMDL
MODEL      267
REMARK 921   NORMALIZED FREE ENERGY PREDICTED BY IDOCK:   -2.45 KCAL/MOL
REMARK 922        TOTAL FREE ENERGY PREDICTED BY IDOCK:   -3.48 KCAL/MOL
REMARK 923 INTER-LIGAND FREE ENERGY PREDICTED BY IDOCK:   -3.18 KCAL/MOL
REMARK 924 INTRA-LIGAND FREE ENERGY PREDICTED BY IDOCK:   -0.30 KCAL/MOL
REMARK 927      BINDING AFFINITY PREDICTED BY RF-SCORE:    0.00 PKD
ROOT
HETATM    1  C   UNL     1     -11.964  14.239  66.792  1.00  0.00    -0.462 C  
HETATM    2  C   UNL     1     -10.534  14.028  67.267  1.00  0.00    -0.268 C  
ENDROOT
BRANCH   2   3
HETATM    3  C   UNL     1      -9.994  12.703  66.742  1.00  0.00    -0.234 C  
BRANCH   3   4
HETATM    4  O   UNL     1      -9.928  11.711  67.776  1.00  0.00    -0.175 OA 
BRANCH   4   5
HETATM    5  C   UNL     1     -10.936  10.788  67.787  1.00  0.00    -0.297 C  
HETATM    6  O   UNL     1     -11.852  10.749  68.600  1.00  0.00    -0.404 OA 
BRANCH   5   7
HETATM    7  C   UNL     1     -10.802   9.849  66.598  1.00  0.00     0.039 C  
BRANCH   7   8
HETATM    8  N   UNL     1      -9.975   8.668  66.907  1.00  0.00    -0.233 NA 
HETATM    9  C   UNL     1     -10.129   7.977  68.103  1.00  0.00    -0.197 C  
HETATM   10  C   UNL     1      -9.402   6.912  68.477  1.00  0.00    -0.134 C  
HETATM   11  I   UNL     1      -9.705   5.954  70.256  1.00  0.00    -0.254 I  
HETATM   12  C   UNL     1      -8.330   6.434  67.533  1.00  0.00    -0.117 C  
HETATM   13  C   UNL     1      -8.165   7.197  66.251  1.00  0.00    -0.124 C  
HETATM   14  O   UNL     1      -7.625   5.462  67.802  1.00  0.00    -0.086 OA 
HETATM   15  I   UNL     1      -6.728   6.645  64.905  1.00  0.00    -0.053 I  
HETATM   16  C   UNL     1      -8.984   8.239  66.034  1.00  0.00    -0.181 C  
ENDBRANCH   7   8
ENDBRANCH   5   7
ENDBRANCH   4   5
ENDBRANCH   3   4
ENDBRANCH   2   3
TORSDOF 5
ENDMDL
MODEL      268
REMARK 921   NORMALIZED FREE ENERGY PREDICTED BY IDOCK:   -2.45 KCAL/MOL
REMARK 922        TOTAL FREE ENERGY PREDICTED BY IDOCK:   -3.48 KCAL/MOL
REMARK 923 INTER-LIGAND FREE ENERGY PREDICTED BY IDOCK:   -3.22 KCAL/MOL
REMARK 924 INTRA-LIGAND FREE ENERGY PREDICTED BY IDOCK:   -0.26 KCAL/MOL
REMARK 927      BINDING AFFINITY PREDICTED BY RF-SCORE:    0.00 PKD
ROOT
HETATM    1  C   UNL     1     -12.232  12.568  63.431  1.00  0.00    -0.613 C  
HETATM    2  C   UNL     1     -11.609  12.439  64.813  1.00  0.00    -0.395 C  
ENDROOT
BRANCH   2   3
HETATM    3  C   UNL     1     -10.780  11.164  64.901  1.00  0.00    -0.248 C  
BRANCH   3   4
HETATM    4  O   UNL     1      -9.455  11.356  64.385  1.00  0.00    -0.212 OA 
BRANCH   4   5
HETATM    5  C   UNL     1      -8.839  10.244  63.884  1.00  0.00    -0.220 C  
HETATM    6  O   UNL     1      -9.215   9.604  62.910  1.00  0.00    -0.266 OA 
BRANCH   5   7
HETATM    7  C   UNL     1      -7.572   9.945  64.671  1.00  0.00    -0.139 C  
BRANCH   7   8
HETATM    8  N   UNL     1      -7.803   9.947  66.128  1.00  0.00    -0.107 NA 
HETATM    9  C   UNL     1      -7.181  10.878  66.952  1.00  0.00    -0.124 C  
HETATM   10  C   UNL     1      -7.311  10.934  68.286  1.00  0.00    -0.087 C  
HETATM   11  I   UNL     1      -6.360  12.344  69.417  1.00  0.00    -0.036 I  
HETATM   12  C   UNL     1      -8.192   9.905  68.945  1.00  0.00    -0.118 C  
HETATM   13  C   UNL     1      -8.847   8.898  68.045  1.00  0.00    -0.133 C  
HETATM   14  O   UNL     1      -8.365   9.893  70.162  1.00  0.00    -0.192 OA 
HETATM   15  I   UNL     1     -10.049   7.444  68.835  1.00  0.00    -0.210 I  
HETATM   16  C   UNL     1      -8.611   8.990  66.727  1.00  0.00    -0.123 C  
ENDBRANCH   7   8
ENDBRANCH   5   7
ENDBRANCH   4   5
ENDBRANCH   3   4
ENDBRANCH   2   3
TORSDOF 5
ENDMDL
MODEL      269
REMARK 921   NORMALIZED FREE ENERGY PREDICTED BY IDOCK:   -2.45 KCAL/MOL
REMARK 922        TOTAL FREE ENERGY PREDICTED BY IDOCK:   -3.48 KCAL/MOL
REMARK 923 INTER-LIGAND FREE ENERGY PREDICTED BY IDOCK:   -3.10 KCAL/MOL
REMARK 924 INTRA-LIGAND FREE ENERGY PREDICTED BY IDOCK:   -0.38 KCAL/MOL
REMARK 927      BINDING AFFINITY PREDICTED BY RF-SCORE:    0.00 PKD
ROOT
HETATM    1  C   UNL     1     -10.609   5.962  69.678  1.00  0.00    -0.383 C  
HETATM    2  C   UNL     1     -10.586   6.212  68.176  1.00  0.00    -0.328 C  
ENDROOT
BRANCH   2   3
HETATM    3  C   UNL     1     -10.404   7.698  67.892  1.00  0.00    -0.212 C  
BRANCH   3   4
HETATM    4  O   UNL     1      -9.841   7.923  66.591  1.00  0.00    -0.225 OA 
BRANCH   4   5
HETATM    5  C   UNL     1      -9.008   9.000  66.476  1.00  0.00    -0.146 C  
HETATM    6  O   UNL     1      -8.764   9.599  65.436  1.00  0.00    -0.141 OA 
BRANCH   5   7
HETATM    7  C   UNL     1      -8.472   9.398  67.843  1.00  0.00    -0.116 C  
BRANCH   7   8
HETATM    8  N   UNL     1      -8.533  10.855  68.065  1.00  0.00    -0.126 NA 
HETATM    9  C   UNL     1      -9.750  11.508  68.220  1.00  0.00    -0.198 C  
HETATM   10  C   UNL     1      -9.898  12.830  68.398  1.00  0.00    -0.196 C  
HETATM   11  I   UNL     1     -11.731  13.702  68.624  1.00  0.00    -0.390 I  
HETATM   12  C   UNL     1      -8.651  13.674  68.423  1.00  0.00    -0.151 C  
HETATM   13  C   UNL     1      -7.344  12.959  68.241  1.00  0.00    -0.118 C  
HETATM   14  O   UNL     1      -8.703  14.892  68.585  1.00  0.00    -0.164 OA 
HETATM   15  I   UNL     1      -5.589  14.010  68.239  1.00  0.00    -0.118 I  
HETATM   16  C   UNL     1      -7.378  11.627  68.079  1.00  0.00    -0.089 C  
ENDBRANCH   7   8
ENDBRANCH   5   7
ENDBRANCH   4   5
ENDBRANCH   3   4
ENDBRANCH   2   3
TORSDOF 5
ENDMDL
MODEL      270
REMARK 921   NORMALIZED FREE ENERGY PREDICTED BY IDOCK:   -2.44 KCAL/MOL
REMARK 922        TOTAL FREE ENERGY PREDICTED BY IDOCK:   -3.47 KCAL/MOL
REMARK 923 INTER-LIGAND FREE ENERGY PREDICTED BY IDOCK:   -3.26 KCAL/MOL
REMARK 924 INTRA-LIGAND FREE ENERGY PREDICTED BY IDOCK:   -0.21 KCAL/MOL
REMARK 927      BINDING AFFINITY PREDICTED BY RF-SCORE:    0.00 PKD
ROOT
HETATM    1  C   UNL     1      -9.928   4.241  62.646  1.00  0.00    -0.096 C  
HETATM    2  C   UNL     1     -10.169   3.471  63.937  1.00  0.00    -0.222 C  
ENDROOT
BRANCH   2   3
HETATM    3  C   UNL     1      -9.769   4.319  65.138  1.00  0.00    -0.194 C  
BRANCH   3   4
HETATM    4  O   UNL     1     -10.906   4.674  65.937  1.00  0.00    -0.274 OA 
BRANCH   4   5
HETATM    5  C   UNL     1     -10.704   5.660  66.863  1.00  0.00    -0.272 C  
HETATM    6  O   UNL     1     -11.231   6.766  66.847  1.00  0.00    -0.375 OA 
BRANCH   5   7
HETATM    7  C   UNL     1      -9.779   5.165  67.964  1.00  0.00    -0.146 C  
BRANCH   7   8
HETATM    8  N   UNL     1      -9.381   6.243  68.889  1.00  0.00    -0.129 NA 
HETATM    9  C   UNL     1      -8.324   7.094  68.586  1.00  0.00    -0.125 C  
HETATM   10  C   UNL     1      -7.878   8.080  69.380  1.00  0.00    -0.113 C  
HETATM   11  I   UNL     1      -6.319   9.288  68.848  1.00  0.00    -0.043 I  
HETATM   12  C   UNL     1      -8.568   8.275  70.705  1.00  0.00    -0.136 C  
HETATM   13  C   UNL     1      -9.699   7.341  71.024  1.00  0.00    -0.169 C  
HETATM   14  O   UNL     1      -8.221   9.160  71.485  1.00  0.00    -0.334 OA 
HETATM   15  I   UNL     1     -10.693   7.504  72.804  1.00  0.00    -0.462 I  
HETATM   16  C   UNL     1     -10.018   6.410  70.111  1.00  0.00    -0.171 C  
ENDBRANCH   7   8
ENDBRANCH   5   7
ENDBRANCH   4   5
ENDBRANCH   3   4
ENDBRANCH   2   3
TORSDOF 5
ENDMDL
MODEL      271
REMARK 921   NORMALIZED FREE ENERGY PREDICTED BY IDOCK:   -2.44 KCAL/MOL
REMARK 922        TOTAL FREE ENERGY PREDICTED BY IDOCK:   -3.46 KCAL/MOL
REMARK 923 INTER-LIGAND FREE ENERGY PREDICTED BY IDOCK:   -3.15 KCAL/MOL
REMARK 924 INTRA-LIGAND FREE ENERGY PREDICTED BY IDOCK:   -0.31 KCAL/MOL
REMARK 927      BINDING AFFINITY PREDICTED BY RF-SCORE:    0.00 PKD
ROOT
HETATM    1  C   UNL     1     -12.077  10.378  71.178  1.00  0.00    -0.487 C  
HETATM    2  C   UNL     1     -11.993   8.860  71.245  1.00  0.00    -0.365 C  
ENDROOT
BRANCH   2   3
HETATM    3  C   UNL     1     -10.639   8.384  70.735  1.00  0.00    -0.207 C  
BRANCH   3   4
HETATM    4  O   UNL     1     -10.343   7.053  71.182  1.00  0.00    -0.206 OA 
BRANCH   4   5
HETATM    5  C   UNL     1      -9.916   6.179  70.221  1.00  0.00    -0.183 C  
HETATM    6  O   UNL     1     -10.576   5.254  69.762  1.00  0.00    -0.307 OA 
BRANCH   5   7
HETATM    7  C   UNL     1      -8.521   6.557  69.748  1.00  0.00    -0.131 C  
BRANCH   7   8
HETATM    8  N   UNL     1      -8.441   6.680  68.281  1.00  0.00    -0.120 NA 
HETATM    9  C   UNL     1      -7.928   5.651  67.501  1.00  0.00    -0.102 C  
HETATM   10  C   UNL     1      -7.792   5.690  66.166  1.00  0.00    -0.100 C  
HETATM   11  I   UNL     1      -7.031   4.121  65.101  1.00  0.00    -0.060 I  
HETATM   12  C   UNL     1      -8.219   6.948  65.458  1.00  0.00    -0.135 C  
HETATM   13  C   UNL     1      -8.760   8.057  66.313  1.00  0.00    -0.153 C  
HETATM   14  O   UNL     1      -8.131   7.059  64.236  1.00  0.00    -0.119 OA 
HETATM   15  I   UNL     1      -9.352   9.818  65.457  1.00  0.00    -0.345 I  
HETATM   16  C   UNL     1      -8.830   7.848  67.637  1.00  0.00    -0.128 C  
ENDBRANCH   7   8
ENDBRANCH   5   7
ENDBRANCH   4   5
ENDBRANCH   3   4
ENDBRANCH   2   3
TORSDOF 5
ENDMDL
MODEL      272
REMARK 921   NORMALIZED FREE ENERGY PREDICTED BY IDOCK:   -2.41 KCAL/MOL
REMARK 922        TOTAL FREE ENERGY PREDICTED BY IDOCK:   -3.43 KCAL/MOL
REMARK 923 INTER-LIGAND FREE ENERGY PREDICTED BY IDOCK:   -3.10 KCAL/MOL
REMARK 924 INTRA-LIGAND FREE ENERGY PREDICTED BY IDOCK:   -0.33 KCAL/MOL
REMARK 927      BINDING AFFINITY PREDICTED BY RF-SCORE:    0.00 PKD
ROOT
HETATM    1  C   UNL     1     -10.205  10.789  64.382  1.00  0.00    -0.432 C  
HETATM    2  C   UNL     1     -10.259  10.851  65.901  1.00  0.00    -0.314 C  
ENDROOT
BRANCH   2   3
HETATM    3  C   UNL     1      -9.485   9.686  66.505  1.00  0.00    -0.181 C  
BRANCH   3   4
HETATM    4  O   UNL     1     -10.207   8.452  66.385  1.00  0.00    -0.265 OA 
BRANCH   4   5
HETATM    5  C   UNL     1     -10.318   7.709  67.527  1.00  0.00    -0.257 C  
HETATM    6  O   UNL     1      -9.972   8.072  68.644  1.00  0.00    -0.178 OA 
BRANCH   5   7
HETATM    7  C   UNL     1     -11.000   6.383  67.226  1.00  0.00    -0.392 C  
BRANCH   7   8
HETATM    8  N   UNL     1     -10.111   5.443  66.517  1.00  0.00    -0.195 NA 
HETATM    9  C   UNL     1     -10.522   4.807  65.352  1.00  0.00    -0.072 C  
HETATM   10  C   UNL     1      -9.791   3.918  64.661  1.00  0.00    -0.193 C  
HETATM   11  I   UNL     1     -10.477   3.036  62.951  1.00  0.00    -0.203 I  
HETATM   12  C   UNL     1      -8.423   3.577  65.191  1.00  0.00    -0.102 C  
HETATM   13  C   UNL     1      -7.997   4.262  66.457  1.00  0.00    -0.098 C  
HETATM   14  O   UNL     1      -7.691   2.776  64.612  1.00  0.00    -0.075 OA 
HETATM   15  I   UNL     1      -6.167   3.858  67.277  1.00  0.00    -0.038 I  
HETATM   16  C   UNL     1      -8.854   5.128  67.019  1.00  0.00    -0.109 C  
ENDBRANCH   7   8
ENDBRANCH   5   7
ENDBRANCH   4   5
ENDBRANCH   3   4
ENDBRANCH   2   3
TORSDOF 5
ENDMDL
MODEL      273
REMARK 921   NORMALIZED FREE ENERGY PREDICTED BY IDOCK:   -2.41 KCAL/MOL
REMARK 922        TOTAL FREE ENERGY PREDICTED BY IDOCK:   -3.43 KCAL/MOL
REMARK 923 INTER-LIGAND FREE ENERGY PREDICTED BY IDOCK:   -3.28 KCAL/MOL
REMARK 924 INTRA-LIGAND FREE ENERGY PREDICTED BY IDOCK:   -0.15 KCAL/MOL
REMARK 927      BINDING AFFINITY PREDICTED BY RF-SCORE:    0.00 PKD
ROOT
HETATM    1  C   UNL     1     -11.739  12.901  63.509  1.00  0.00    -0.576 C  
HETATM    2  C   UNL     1     -12.277  12.144  64.715  1.00  0.00    -0.341 C  
ENDROOT
BRANCH   2   3
HETATM    3  C   UNL     1     -11.652  12.682  65.997  1.00  0.00    -0.393 C  
BRANCH   3   4
HETATM    4  O   UNL     1     -11.588  11.676  67.018  1.00  0.00    -0.500 OA 
BRANCH   4   5
HETATM    5  C   UNL     1     -10.517  10.829  66.958  1.00  0.00    -0.247 C  
HETATM    6  O   UNL     1      -9.348  11.173  66.832  1.00  0.00    -0.171 OA 
BRANCH   5   7
HETATM    7  C   UNL     1     -10.974   9.390  67.139  1.00  0.00     0.085 C  
BRANCH   7   8
HETATM    8  N   UNL     1      -9.917   8.534  67.710  1.00  0.00    -0.179 NA 
HETATM    9  C   UNL     1      -9.486   7.389  67.049  1.00  0.00    -0.158 C  
HETATM   10  C   UNL     1      -8.554   6.540  67.508  1.00  0.00    -0.119 C  
HETATM   11  I   UNL     1      -7.979   4.882  66.463  1.00  0.00    -0.107 I  
HETATM   12  C   UNL     1      -7.932   6.844  68.845  1.00  0.00    -0.116 C  
HETATM   13  C   UNL     1      -8.415   8.076  69.554  1.00  0.00    -0.131 C  
HETATM   14  O   UNL     1      -7.067   6.117  69.332  1.00  0.00    -0.065 OA 
HETATM   15  I   UNL     1      -7.652   8.574  71.385  1.00  0.00    -0.118 I  
HETATM   16  C   UNL     1      -9.355   8.818  68.947  1.00  0.00    -0.145 C  
ENDBRANCH   7   8
ENDBRANCH   5   7
ENDBRANCH   4   5
ENDBRANCH   3   4
ENDBRANCH   2   3
TORSDOF 5
ENDMDL
MODEL      274
REMARK 921   NORMALIZED FREE ENERGY PREDICTED BY IDOCK:   -2.41 KCAL/MOL
REMARK 922        TOTAL FREE ENERGY PREDICTED BY IDOCK:   -3.43 KCAL/MOL
REMARK 923 INTER-LIGAND FREE ENERGY PREDICTED BY IDOCK:   -3.13 KCAL/MOL
REMARK 924 INTRA-LIGAND FREE ENERGY PREDICTED BY IDOCK:   -0.30 KCAL/MOL
REMARK 927      BINDING AFFINITY PREDICTED BY RF-SCORE:    0.00 PKD
ROOT
HETATM    1  C   UNL     1     -10.601   3.611  74.467  1.00  0.00    -0.187 C  
HETATM    2  C   UNL     1     -10.689   4.647  73.356  1.00  0.00    -0.322 C  
ENDROOT
BRANCH   2   3
HETATM    3  C   UNL     1      -9.387   4.682  72.564  1.00  0.00    -0.131 C  
BRANCH   3   4
HETATM    4  O   UNL     1      -9.457   5.609  71.471  1.00  0.00    -0.149 OA 
BRANCH   4   5
HETATM    5  C   UNL     1     -10.076   5.156  70.340  1.00  0.00    -0.262 C  
HETATM    6  O   UNL     1      -9.817   4.106  69.763  1.00  0.00    -0.215 OA 
BRANCH   5   7
HETATM    7  C   UNL     1     -11.186   6.110  69.930  1.00  0.00    -0.414 C  
BRANCH   7   8
HETATM    8  N   UNL     1     -10.664   7.388  69.410  1.00  0.00    -0.231 NA 
HETATM    9  C   UNL     1      -9.518   7.429  68.624  1.00  0.00    -0.139 C  
HETATM   10  C   UNL     1      -8.959   8.547  68.134  1.00  0.00    -0.142 C  
HETATM   11  I   UNL     1      -7.274   8.508  66.980  1.00  0.00    -0.080 I  
HETATM   12  C   UNL     1      -9.617   9.859  68.469  1.00  0.00    -0.153 C  
HETATM   13  C   UNL     1     -10.846   9.802  69.329  1.00  0.00    -0.216 C  
HETATM   14  O   UNL     1      -9.168  10.926  68.054  1.00  0.00    -0.148 OA 
HETATM   15  I   UNL     1     -11.808  11.527  69.860  1.00  0.00    -0.352 I  
HETATM   16  C   UNL     1     -11.273   8.595  69.730  1.00  0.00     0.016 C  
ENDBRANCH   7   8
ENDBRANCH   5   7
ENDBRANCH   4   5
ENDBRANCH   3   4
ENDBRANCH   2   3
TORSDOF 5
ENDMDL
MODEL      275
REMARK 921   NORMALIZED FREE ENERGY PREDICTED BY IDOCK:   -2.40 KCAL/MOL
REMARK 922        TOTAL FREE ENERGY PREDICTED BY IDOCK:   -3.41 KCAL/MOL
REMARK 923 INTER-LIGAND FREE ENERGY PREDICTED BY IDOCK:   -2.99 KCAL/MOL
REMARK 924 INTRA-LIGAND FREE ENERGY PREDICTED BY IDOCK:   -0.42 KCAL/MOL
REMARK 927      BINDING AFFINITY PREDICTED BY RF-SCORE:    0.00 PKD
ROOT
HETATM    1  C   UNL     1     -11.722   9.329  71.292  1.00  0.00    -0.416 C  
HETATM    2  C   UNL     1     -11.209  10.170  70.131  1.00  0.00    -0.377 C  
ENDROOT
BRANCH   2   3
HETATM    3  C   UNL     1      -9.730   9.894  69.893  1.00  0.00    -0.235 C  
BRANCH   3   4
HETATM    4  O   UNL     1      -9.533   8.879  68.898  1.00  0.00    -0.150 OA 
BRANCH   4   5
HETATM    5  C   UNL     1      -8.258   8.406  68.768  1.00  0.00    -0.119 C  
HETATM    6  O   UNL     1      -7.582   8.463  67.747  1.00  0.00    -0.099 OA 
BRANCH   5   7
HETATM    7  C   UNL     1      -7.763   7.855  70.096  1.00  0.00    -0.088 C  
BRANCH   7   8
HETATM    8  N   UNL     1      -8.419   6.584  70.455  1.00  0.00    -0.130 NA 
HETATM    9  C   UNL     1      -8.932   6.376  71.730  1.00  0.00    -0.139 C  
HETATM   10  C   UNL     1      -9.518   5.244  72.149  1.00  0.00    -0.143 C  
HETATM   11  I   UNL     1     -10.250   5.031  74.045  1.00  0.00    -0.345 I  
HETATM   12  C   UNL     1      -9.621   4.107  71.168  1.00  0.00    -0.179 C  
HETATM   13  C   UNL     1      -9.051   4.340  69.798  1.00  0.00    -0.117 C  
HETATM   14  O   UNL     1     -10.148   3.039  71.475  1.00  0.00    -0.117 OA 
HETATM   15  I   UNL     1      -9.120   2.856  68.392  1.00  0.00    -0.229 I  
HETATM   16  C   UNL     1      -8.502   5.538  69.545  1.00  0.00    -0.105 C  
ENDBRANCH   7   8
ENDBRANCH   5   7
ENDBRANCH   4   5
ENDBRANCH   3   4
ENDBRANCH   2   3
TORSDOF 5
ENDMDL
MODEL      276
REMARK 921   NORMALIZED FREE ENERGY PREDICTED BY IDOCK:   -2.39 KCAL/MOL
REMARK 922        TOTAL FREE ENERGY PREDICTED BY IDOCK:   -3.41 KCAL/MOL
REMARK 923 INTER-LIGAND FREE ENERGY PREDICTED BY IDOCK:   -3.60 KCAL/MOL
REMARK 924 INTRA-LIGAND FREE ENERGY PREDICTED BY IDOCK:    0.20 KCAL/MOL
REMARK 927      BINDING AFFINITY PREDICTED BY RF-SCORE:    0.00 PKD
ROOT
HETATM    1  C   UNL     1      -7.614  10.223  67.169  1.00  0.00    -0.092 C  
HETATM    2  C   UNL     1      -8.737  10.011  66.163  1.00  0.00    -0.153 C  
ENDROOT
BRANCH   2   3
HETATM    3  C   UNL     1     -10.089  10.069  66.863  1.00  0.00    -0.229 C  
BRANCH   3   4
HETATM    4  O   UNL     1     -10.540  11.421  67.032  1.00  0.00    -0.225 OA 
BRANCH   4   5
HETATM    5  C   UNL     1     -11.152  11.705  68.221  1.00  0.00    -0.234 C  
HETATM    6  O   UNL     1     -12.106  11.096  68.689  1.00  0.00    -0.556 OA 
BRANCH   5   7
HETATM    7  C   UNL     1     -10.435  12.849  68.921  1.00  0.00    -0.082 C  
BRANCH   7   8
HETATM    8  N   UNL     1     -10.273  14.027  68.048  1.00  0.00    -0.232 NA 
HETATM    9  C   UNL     1      -9.419  15.066  68.396  1.00  0.00    -0.201 C  
HETATM   10  C   UNL     1      -9.233  16.185  67.678  1.00  0.00    -0.205 C  
HETATM   11  I   UNL     1      -7.949  17.660  68.267  1.00  0.00    -0.289 I  
HETATM   12  C   UNL     1     -10.016  16.330  66.400  1.00  0.00    -0.300 C  
HETATM   13  C   UNL     1     -10.945  15.207  66.042  1.00  0.00    -0.332 C  
HETATM   14  O   UNL     1      -9.898  17.323  65.684  1.00  0.00    -0.548 OA 
HETATM   15  I   UNL     1     -12.072  15.309  64.338  1.00  0.00     0.375 I  
HETATM   16  C   UNL     1     -11.006  14.156  66.875  1.00  0.00    -0.300 C  
ENDBRANCH   7   8
ENDBRANCH   5   7
ENDBRANCH   4   5
ENDBRANCH   3   4
ENDBRANCH   2   3
TORSDOF 5
ENDMDL
MODEL      277
REMARK 921   NORMALIZED FREE ENERGY PREDICTED BY IDOCK:   -2.38 KCAL/MOL
REMARK 922        TOTAL FREE ENERGY PREDICTED BY IDOCK:   -3.39 KCAL/MOL
REMARK 923 INTER-LIGAND FREE ENERGY PREDICTED BY IDOCK:   -3.48 KCAL/MOL
REMARK 924 INTRA-LIGAND FREE ENERGY PREDICTED BY IDOCK:    0.08 KCAL/MOL
REMARK 927      BINDING AFFINITY PREDICTED BY RF-SCORE:    0.00 PKD
ROOT
HETATM    1  C   UNL     1     -10.607  16.356  67.980  1.00  0.00    -0.314 C  
HETATM    2  C   UNL     1      -9.462  15.369  67.804  1.00  0.00    -0.204 C  
ENDROOT
BRANCH   2   3
HETATM    3  C   UNL     1      -9.624  14.603  66.496  1.00  0.00    -0.289 C  
BRANCH   3   4
HETATM    4  O   UNL     1     -10.628  13.584  66.600  1.00  0.00    -0.276 OA 
BRANCH   4   5
HETATM    5  C   UNL     1     -10.312  12.509  67.383  1.00  0.00    -0.216 C  
HETATM    6  O   UNL     1      -9.441  12.492  68.245  1.00  0.00    -0.210 OA 
BRANCH   5   7
HETATM    7  C   UNL     1     -11.246  11.347  67.082  1.00  0.00    -0.296 C  
BRANCH   7   8
HETATM    8  N   UNL     1     -10.514  10.090  66.832  1.00  0.00    -0.233 NA 
HETATM    9  C   UNL     1     -10.495   9.071  67.777  1.00  0.00    -0.245 C  
HETATM   10  C   UNL     1      -9.834   7.910  67.645  1.00  0.00    -0.165 C  
HETATM   11  I   UNL     1      -9.868   6.465  69.088  1.00  0.00    -0.198 I  
HETATM   12  C   UNL     1      -9.044   7.698  66.380  1.00  0.00    -0.174 C  
HETATM   13  C   UNL     1      -9.063   8.812  65.374  1.00  0.00    -0.134 C  
HETATM   14  O   UNL     1      -8.416   6.659  66.183  1.00  0.00    -0.123 OA 
HETATM   15  I   UNL     1      -8.010   8.637  63.629  1.00  0.00    -0.119 I  
HETATM   16  C   UNL     1      -9.782   9.906  65.666  1.00  0.00    -0.279 C  
ENDBRANCH   7   8
ENDBRANCH   5   7
ENDBRANCH   4   5
ENDBRANCH   3   4
ENDBRANCH   2   3
TORSDOF 5
ENDMDL
MODEL      278
REMARK 921   NORMALIZED FREE ENERGY PREDICTED BY IDOCK:   -2.38 KCAL/MOL
REMARK 922        TOTAL FREE ENERGY PREDICTED BY IDOCK:   -3.39 KCAL/MOL
REMARK 923 INTER-LIGAND FREE ENERGY PREDICTED BY IDOCK:   -3.08 KCAL/MOL
REMARK 924 INTRA-LIGAND FREE ENERGY PREDICTED BY IDOCK:   -0.30 KCAL/MOL
REMARK 927      BINDING AFFINITY PREDICTED BY RF-SCORE:    0.00 PKD
ROOT
HETATM    1  C   UNL     1      -9.428  16.916  68.953  1.00  0.00    -0.241 C  
HETATM    2  C   UNL     1      -7.923  17.142  68.948  1.00  0.00    -0.208 C  
ENDROOT
BRANCH   2   3
HETATM    3  C   UNL     1      -7.202  15.877  68.500  1.00  0.00    -0.128 C  
BRANCH   3   4
HETATM    4  O   UNL     1      -7.953  14.697  68.821  1.00  0.00    -0.141 OA 
BRANCH   4   5
HETATM    5  C   UNL     1      -7.619  13.567  68.128  1.00  0.00    -0.138 C  
HETATM    6  O   UNL     1      -6.560  12.960  68.232  1.00  0.00    -0.075 OA 
BRANCH   5   7
HETATM    7  C   UNL     1      -8.781  13.124  67.253  1.00  0.00    -0.210 C  
BRANCH   7   8
HETATM    8  N   UNL     1      -9.330  11.819  67.667  1.00  0.00    -0.176 NA 
HETATM    9  C   UNL     1     -10.277  11.728  68.680  1.00  0.00    -0.201 C  
HETATM   10  C   UNL     1     -10.807  10.583  69.138  1.00  0.00    -0.237 C  
HETATM   11  I   UNL     1     -12.202  10.547  70.631  1.00  0.00    -0.491 I  
HETATM   12  C   UNL     1     -10.334   9.297  68.514  1.00  0.00    -0.209 C  
HETATM   13  C   UNL     1      -9.302   9.409  67.430  1.00  0.00    -0.126 C  
HETATM   14  O   UNL     1     -10.775   8.207  68.876  1.00  0.00    -0.176 OA 
HETATM   15  I   UNL     1      -8.575   7.724  66.527  1.00  0.00    -0.191 I  
HETATM   16  C   UNL     1      -8.882  10.638  67.091  1.00  0.00    -0.137 C  
ENDBRANCH   7   8
ENDBRANCH   5   7
ENDBRANCH   4   5
ENDBRANCH   3   4
ENDBRANCH   2   3
TORSDOF 5
ENDMDL
MODEL      279
REMARK 921   NORMALIZED FREE ENERGY PREDICTED BY IDOCK:   -2.35 KCAL/MOL
REMARK 922        TOTAL FREE ENERGY PREDICTED BY IDOCK:   -3.36 KCAL/MOL
REMARK 923 INTER-LIGAND FREE ENERGY PREDICTED BY IDOCK:   -2.84 KCAL/MOL
REMARK 924 INTRA-LIGAND FREE ENERGY PREDICTED BY IDOCK:   -0.51 KCAL/MOL
REMARK 927      BINDING AFFINITY PREDICTED BY RF-SCORE:    0.00 PKD
ROOT
HETATM    1  C   UNL     1     -10.329  10.971  64.331  1.00  0.00    -0.424 C  
HETATM    2  C   UNL     1     -11.017  12.028  65.184  1.00  0.00    -0.359 C  
ENDROOT
BRANCH   2   3
HETATM    3  C   UNL     1     -10.053  12.568  66.233  1.00  0.00    -0.250 C  
BRANCH   3   4
HETATM    4  O   UNL     1     -10.114  11.809  67.449  1.00  0.00    -0.193 OA 
BRANCH   4   5
HETATM    5  C   UNL     1      -8.917  11.556  68.059  1.00  0.00    -0.170 C  
HETATM    6  O   UNL     1      -8.036  12.383  68.260  1.00  0.00    -0.147 OA 
BRANCH   5   7
HETATM    7  C   UNL     1      -8.856  10.107  68.517  1.00  0.00    -0.127 C  
BRANCH   7   8
HETATM    8  N   UNL     1      -8.616   9.175  67.399  1.00  0.00    -0.115 NA 
HETATM    9  C   UNL     1      -9.279   7.956  67.325  1.00  0.00    -0.142 C  
HETATM   10  C   UNL     1      -9.101   7.039  66.362  1.00  0.00    -0.160 C  
HETATM   11  I   UNL     1     -10.128   5.274  66.332  1.00  0.00    -0.262 I  
HETATM   12  C   UNL     1      -8.098   7.348  65.281  1.00  0.00    -0.131 C  
HETATM   13  C   UNL     1      -7.379   8.662  65.380  1.00  0.00    -0.084 C  
HETATM   14  O   UNL     1      -7.882   6.561  64.362  1.00  0.00    -0.107 OA 
HETATM   15  I   UNL     1      -5.983   9.176  63.976  1.00  0.00    -0.076 I  
HETATM   16  C   UNL     1      -7.683   9.466  66.411  1.00  0.00    -0.097 C  
ENDBRANCH   7   8
ENDBRANCH   5   7
ENDBRANCH   4   5
ENDBRANCH   3   4
ENDBRANCH   2   3
TORSDOF 5
ENDMDL
MODEL      280
REMARK 921   NORMALIZED FREE ENERGY PREDICTED BY IDOCK:   -2.35 KCAL/MOL
REMARK 922        TOTAL FREE ENERGY PREDICTED BY IDOCK:   -3.35 KCAL/MOL
REMARK 923 INTER-LIGAND FREE ENERGY PREDICTED BY IDOCK:   -3.00 KCAL/MOL
REMARK 924 INTRA-LIGAND FREE ENERGY PREDICTED BY IDOCK:   -0.35 KCAL/MOL
REMARK 927      BINDING AFFINITY PREDICTED BY RF-SCORE:    0.00 PKD
ROOT
HETATM    1  C   UNL     1      -7.050   7.243  71.456  1.00  0.00    -0.067 C  
HETATM    2  C   UNL     1      -7.647   8.191  72.487  1.00  0.00    -0.157 C  
ENDROOT
BRANCH   2   3
HETATM    3  C   UNL     1      -9.092   8.517  72.129  1.00  0.00    -0.249 C  
BRANCH   3   4
HETATM    4  O   UNL     1      -9.501   7.854  70.924  1.00  0.00    -0.156 OA 
BRANCH   4   5
HETATM    5  C   UNL     1     -10.746   8.171  70.458  1.00  0.00    -0.225 C  
HETATM    6  O   UNL     1     -11.713   8.451  71.157  1.00  0.00    -0.276 OA 
BRANCH   5   7
HETATM    7  C   UNL     1     -10.749   8.194  68.938  1.00  0.00    -0.064 C  
BRANCH   7   8
HETATM    8  N   UNL     1     -10.207   9.454  68.395  1.00  0.00    -0.190 NA 
HETATM    9  C   UNL     1      -8.964   9.493  67.775  1.00  0.00    -0.122 C  
HETATM   10  C   UNL     1      -8.383  10.597  67.280  1.00  0.00    -0.120 C  
HETATM   11  I   UNL     1      -6.551  10.556  66.378  1.00  0.00    -0.127 I  
HETATM   12  C   UNL     1      -9.131  11.897  67.414  1.00  0.00    -0.178 C  
HETATM   13  C   UNL     1     -10.467  11.844  68.097  1.00  0.00    -0.207 C  
HETATM   14  O   UNL     1      -8.668  12.952  66.982  1.00  0.00    -0.206 OA 
HETATM   15  I   UNL     1     -11.560  13.555  68.349  1.00  0.00    -0.423 I  
HETATM   16  C   UNL     1     -10.901  10.650  68.530  1.00  0.00    -0.233 C  
ENDBRANCH   7   8
ENDBRANCH   5   7
ENDBRANCH   4   5
ENDBRANCH   3   4
ENDBRANCH   2   3
TORSDOF 5
ENDMDL
MODEL      281
REMARK 921   NORMALIZED FREE ENERGY PREDICTED BY IDOCK:   -2.34 KCAL/MOL
REMARK 922        TOTAL FREE ENERGY PREDICTED BY IDOCK:   -3.34 KCAL/MOL
REMARK 923 INTER-LIGAND FREE ENERGY PREDICTED BY IDOCK:   -2.93 KCAL/MOL
REMARK 924 INTRA-LIGAND FREE ENERGY PREDICTED BY IDOCK:   -0.42 KCAL/MOL
REMARK 927      BINDING AFFINITY PREDICTED BY RF-SCORE:    0.00 PKD
ROOT
HETATM    1  C   UNL     1      -6.688   9.762  70.744  1.00  0.00    -0.081 C  
HETATM    2  C   UNL     1      -6.004   8.633  69.987  1.00  0.00    -0.027 C  
ENDROOT
BRANCH   2   3
HETATM    3  C   UNL     1      -6.260   7.301  70.681  1.00  0.00    -0.035 C  
BRANCH   3   4
HETATM    4  O   UNL     1      -7.626   6.885  70.541  1.00  0.00    -0.087 OA 
BRANCH   4   5
HETATM    5  C   UNL     1      -8.010   6.503  69.286  1.00  0.00    -0.111 C  
HETATM    6  O   UNL     1      -7.253   6.147  68.391  1.00  0.00    -0.079 OA 
BRANCH   5   7
HETATM    7  C   UNL     1      -9.527   6.517  69.174  1.00  0.00    -0.135 C  
BRANCH   7   8
HETATM    8  N   UNL     1     -10.095   7.856  69.418  1.00  0.00    -0.191 NA 
HETATM    9  C   UNL     1     -11.135   8.041  70.320  1.00  0.00    -0.224 C  
HETATM   10  C   UNL     1     -11.729   9.216  70.581  1.00  0.00    -0.209 C  
HETATM   11  I   UNL     1     -13.251   9.393  71.932  1.00  0.00    -0.570 I  
HETATM   12  C   UNL     1     -11.238  10.427  69.833  1.00  0.00    -0.306 C  
HETATM   13  C   UNL     1     -10.123  10.211  68.851  1.00  0.00    -0.200 C  
HETATM   14  O   UNL     1     -11.728  11.540  70.019  1.00  0.00    -0.311 OA 
HETATM   15  I   UNL     1      -9.391  11.783  67.766  1.00  0.00    -0.202 I  
HETATM   16  C   UNL     1      -9.641   8.966  68.717  1.00  0.00    -0.157 C  
ENDBRANCH   7   8
ENDBRANCH   5   7
ENDBRANCH   4   5
ENDBRANCH   3   4
ENDBRANCH   2   3
TORSDOF 5
ENDMDL
MODEL      282
REMARK 921   NORMALIZED FREE ENERGY PREDICTED BY IDOCK:   -2.33 KCAL/MOL
REMARK 922        TOTAL FREE ENERGY PREDICTED BY IDOCK:   -3.32 KCAL/MOL
REMARK 923 INTER-LIGAND FREE ENERGY PREDICTED BY IDOCK:   -3.03 KCAL/MOL
REMARK 924 INTRA-LIGAND FREE ENERGY PREDICTED BY IDOCK:   -0.29 KCAL/MOL
REMARK 927      BINDING AFFINITY PREDICTED BY RF-SCORE:    0.00 PKD
ROOT
HETATM    1  C   UNL     1     -12.306  12.797  63.389  1.00  0.00    -0.531 C  
HETATM    2  C   UNL     1     -11.965  12.274  64.777  1.00  0.00    -0.429 C  
ENDROOT
BRANCH   2   3
HETATM    3  C   UNL     1     -11.355  13.385  65.623  1.00  0.00    -0.298 C  
BRANCH   3   4
HETATM    4  O   UNL     1     -11.072  12.939  66.957  1.00  0.00    -0.260 OA 
BRANCH   4   5
HETATM    5  C   UNL     1     -10.037  13.566  67.592  1.00  0.00    -0.229 C  
HETATM    6  O   UNL     1     -10.153  14.440  68.442  1.00  0.00    -0.230 OA 
BRANCH   5   7
HETATM    7  C   UNL     1      -8.710  12.975  67.143  1.00  0.00    -0.204 C  
BRANCH   7   8
HETATM    8  N   UNL     1      -8.109  12.101  68.168  1.00  0.00    -0.153 NA 
HETATM    9  C   UNL     1      -7.147  12.582  69.047  1.00  0.00    -0.037 C  
HETATM   10  C   UNL     1      -6.529  11.851  69.989  1.00  0.00     0.002 C  
HETATM   11  I   UNL     1      -5.128  12.648  71.244  1.00  0.00    -0.048 I  
HETATM   12  C   UNL     1      -6.900  10.396  70.096  1.00  0.00    -0.153 C  
HETATM   13  C   UNL     1      -7.931   9.886  69.132  1.00  0.00    -0.112 C  
HETATM   14  O   UNL     1      -6.382   9.661  70.936  1.00  0.00    -0.082 OA 
HETATM   15  I   UNL     1      -8.496   7.920  69.177  1.00  0.00    -0.138 I  
HETATM   16  C   UNL     1      -8.452  10.758  68.254  1.00  0.00    -0.130 C  
ENDBRANCH   7   8
ENDBRANCH   5   7
ENDBRANCH   4   5
ENDBRANCH   3   4
ENDBRANCH   2   3
TORSDOF 5
ENDMDL
MODEL      283
REMARK 921   NORMALIZED FREE ENERGY PREDICTED BY IDOCK:   -2.32 KCAL/MOL
REMARK 922        TOTAL FREE ENERGY PREDICTED BY IDOCK:   -3.31 KCAL/MOL
REMARK 923 INTER-LIGAND FREE ENERGY PREDICTED BY IDOCK:   -2.97 KCAL/MOL
REMARK 924 INTRA-LIGAND FREE ENERGY PREDICTED BY IDOCK:   -0.34 KCAL/MOL
REMARK 927      BINDING AFFINITY PREDICTED BY RF-SCORE:    0.00 PKD
ROOT
HETATM    1  C   UNL     1      -9.371   9.148  70.816  1.00  0.00    -0.325 C  
HETATM    2  C   UNL     1      -9.670   7.928  71.676  1.00  0.00    -0.207 C  
ENDROOT
BRANCH   2   3
HETATM    3  C   UNL     1     -10.753   7.077  71.026  1.00  0.00    -0.233 C  
BRANCH   3   4
HETATM    4  O   UNL     1     -10.760   7.228  69.599  1.00  0.00    -0.231 OA 
BRANCH   4   5
HETATM    5  C   UNL     1     -10.565   6.087  68.873  1.00  0.00    -0.290 C  
HETATM    6  O   UNL     1     -10.054   5.057  69.297  1.00  0.00    -0.204 OA 
BRANCH   5   7
HETATM    7  C   UNL     1     -11.137   6.249  67.474  1.00  0.00    -0.279 C  
BRANCH   7   8
HETATM    8  N   UNL     1     -10.199   5.796  66.429  1.00  0.00    -0.166 NA 
HETATM    9  C   UNL     1     -10.472   4.672  65.658  1.00  0.00    -0.227 C  
HETATM   10  C   UNL     1      -9.664   4.174  64.709  1.00  0.00    -0.184 C  
HETATM   11  I   UNL     1     -10.153   2.516  63.620  1.00  0.00    -0.103 I  
HETATM   12  C   UNL     1      -8.357   4.881  64.464  1.00  0.00    -0.132 C  
HETATM   13  C   UNL     1      -8.069   6.086  65.312  1.00  0.00    -0.134 C  
HETATM   14  O   UNL     1      -7.565   4.489  63.609  1.00  0.00    -0.061 OA 
HETATM   15  I   UNL     1      -6.315   7.111  65.078  1.00  0.00    -0.037 I  
HETATM   16  C   UNL     1      -8.992   6.450  66.216  1.00  0.00    -0.156 C  
ENDBRANCH   7   8
ENDBRANCH   5   7
ENDBRANCH   4   5
ENDBRANCH   3   4
ENDBRANCH   2   3
TORSDOF 5
ENDMDL
MODEL      284
REMARK 921   NORMALIZED FREE ENERGY PREDICTED BY IDOCK:   -2.31 KCAL/MOL
REMARK 922        TOTAL FREE ENERGY PREDICTED BY IDOCK:   -3.30 KCAL/MOL
REMARK 923 INTER-LIGAND FREE ENERGY PREDICTED BY IDOCK:   -2.87 KCAL/MOL
REMARK 924 INTRA-LIGAND FREE ENERGY PREDICTED BY IDOCK:   -0.43 KCAL/MOL
REMARK 927      BINDING AFFINITY PREDICTED BY RF-SCORE:    0.00 PKD
ROOT
HETATM    1  C   UNL     1      -7.184   8.192  72.683  1.00  0.00    -0.127 C  
HETATM    2  C   UNL     1      -8.172   7.047  72.858  1.00  0.00    -0.119 C  
ENDROOT
BRANCH   2   3
HETATM    3  C   UNL     1      -9.384   7.513  73.655  1.00  0.00    -0.277 C  
BRANCH   3   4
HETATM    4  O   UNL     1     -10.360   8.144  72.813  1.00  0.00    -0.313 OA 
BRANCH   4   5
HETATM    5  C   UNL     1     -11.383   7.347  72.381  1.00  0.00    -0.297 C  
HETATM    6  O   UNL     1     -11.826   6.375  72.981  1.00  0.00     0.088 OA 
BRANCH   5   7
HETATM    7  C   UNL     1     -11.947   7.879  71.072  1.00  0.00    -0.252 C  
BRANCH   7   8
HETATM    8  N   UNL     1     -11.053   7.618  69.929  1.00  0.00    -0.202 NA 
HETATM    9  C   UNL     1     -10.782   8.605  68.989  1.00  0.00    -0.101 C  
HETATM   10  C   UNL     1     -10.006   8.445  67.905  1.00  0.00    -0.184 C  
HETATM   11  I   UNL     1      -9.660   9.959  66.578  1.00  0.00    -0.296 I  
HETATM   12  C   UNL     1      -9.386   7.091  67.686  1.00  0.00    -0.122 C  
HETATM   13  C   UNL     1      -9.696   6.030  68.702  1.00  0.00    -0.127 C  
HETATM   14  O   UNL     1      -8.659   6.866  66.720  1.00  0.00    -0.114 OA 
HETATM   15  I   UNL     1      -8.922   4.148  68.491  1.00  0.00    -0.209 I  
HETATM   16  C   UNL     1     -10.492   6.363  69.730  1.00  0.00    -0.215 C  
ENDBRANCH   7   8
ENDBRANCH   5   7
ENDBRANCH   4   5
ENDBRANCH   3   4
ENDBRANCH   2   3
TORSDOF 5
ENDMDL
MODEL      285
REMARK 921   NORMALIZED FREE ENERGY PREDICTED BY IDOCK:   -2.30 KCAL/MOL
REMARK 922        TOTAL FREE ENERGY PREDICTED BY IDOCK:   -3.29 KCAL/MOL
REMARK 923 INTER-LIGAND FREE ENERGY PREDICTED BY IDOCK:   -2.94 KCAL/MOL
REMARK 924 INTRA-LIGAND FREE ENERGY PREDICTED BY IDOCK:   -0.35 KCAL/MOL
REMARK 927      BINDING AFFINITY PREDICTED BY RF-SCORE:    0.00 PKD
ROOT
HETATM    1  C   UNL     1      -7.218   9.194  70.696  1.00  0.00    -0.106 C  
HETATM    2  C   UNL     1      -7.882   7.846  70.941  1.00  0.00    -0.088 C  
ENDROOT
BRANCH   2   3
HETATM    3  C   UNL     1      -9.039   7.999  71.921  1.00  0.00    -0.156 C  
BRANCH   3   4
HETATM    4  O   UNL     1      -9.912   9.074  71.546  1.00  0.00    -0.295 OA 
BRANCH   4   5
HETATM    5  C   UNL     1     -11.095   8.712  70.967  1.00  0.00    -0.264 C  
HETATM    6  O   UNL     1     -11.661   7.637  71.125  1.00  0.00    -0.282 OA 
BRANCH   5   7
HETATM    7  C   UNL     1     -11.653   9.864  70.145  1.00  0.00    -0.218 C  
BRANCH   7   8
HETATM    8  N   UNL     1     -10.710  10.318  69.105  1.00  0.00    -0.214 NA 
HETATM    9  C   UNL     1     -10.649  11.653  68.724  1.00  0.00    -0.212 C  
HETATM   10  C   UNL     1      -9.845  12.146  67.770  1.00  0.00    -0.199 C  
HETATM   11  I   UNL     1      -9.820  14.130  67.282  1.00  0.00    -0.255 I  
HETATM   12  C   UNL     1      -8.945  11.179  67.048  1.00  0.00    -0.154 C  
HETATM   13  C   UNL     1      -9.030   9.738  67.459  1.00  0.00    -0.131 C  
HETATM   14  O   UNL     1      -8.176  11.554  66.165  1.00  0.00    -0.107 OA 
HETATM   15  I   UNL     1      -7.865   8.335  66.532  1.00  0.00    -0.097 I  
HETATM   16  C   UNL     1      -9.889   9.416  68.439  1.00  0.00    -0.160 C  
ENDBRANCH   7   8
ENDBRANCH   5   7
ENDBRANCH   4   5
ENDBRANCH   3   4
ENDBRANCH   2   3
TORSDOF 5
ENDMDL
MODEL      286
REMARK 921   NORMALIZED FREE ENERGY PREDICTED BY IDOCK:   -2.29 KCAL/MOL
REMARK 922        TOTAL FREE ENERGY PREDICTED BY IDOCK:   -3.27 KCAL/MOL
REMARK 923 INTER-LIGAND FREE ENERGY PREDICTED BY IDOCK:   -2.90 KCAL/MOL
REMARK 924 INTRA-LIGAND FREE ENERGY PREDICTED BY IDOCK:   -0.38 KCAL/MOL
REMARK 927      BINDING AFFINITY PREDICTED BY RF-SCORE:    0.00 PKD
ROOT
HETATM    1  C   UNL     1      -9.160   2.030  66.218  1.00  0.00    -0.050 C  
HETATM    2  C   UNL     1      -8.546   3.412  66.047  1.00  0.00    -0.118 C  
ENDROOT
BRANCH   2   3
HETATM    3  C   UNL     1      -8.366   4.081  67.404  1.00  0.00    -0.098 C  
BRANCH   3   4
HETATM    4  O   UNL     1      -8.758   5.461  67.370  1.00  0.00    -0.109 OA 
BRANCH   4   5
HETATM    5  C   UNL     1     -10.078   5.716  67.617  1.00  0.00    -0.172 C  
HETATM    6  O   UNL     1     -10.787   6.472  66.964  1.00  0.00    -0.328 OA 
BRANCH   5   7
HETATM    7  C   UNL     1     -10.567   4.872  68.783  1.00  0.00     0.286 C  
BRANCH   7   8
HETATM    8  N   UNL     1     -10.633   5.639  70.041  1.00  0.00    -0.301 NA 
HETATM    9  C   UNL     1     -11.650   6.560  70.269  1.00  0.00    -0.409 C  
HETATM   10  C   UNL     1     -11.770   7.319  71.369  1.00  0.00    -0.287 C  
HETATM   11  I   UNL     1     -13.304   8.643  71.618  1.00  0.00    -0.347 I  
HETATM   12  C   UNL     1     -10.719   7.169  72.437  1.00  0.00    -0.241 C  
HETATM   13  C   UNL     1      -9.620   6.181  72.174  1.00  0.00    -0.150 C  
HETATM   14  O   UNL     1     -10.762   7.826  73.476  1.00  0.00    -0.292 OA 
HETATM   15  I   UNL     1      -8.130   5.912  73.549  1.00  0.00    -0.108 I  
HETATM   16  C   UNL     1      -9.655   5.500  71.018  1.00  0.00    -0.170 C  
ENDBRANCH   7   8
ENDBRANCH   5   7
ENDBRANCH   4   5
ENDBRANCH   3   4
ENDBRANCH   2   3
TORSDOF 5
ENDMDL
MODEL      287
REMARK 921   NORMALIZED FREE ENERGY PREDICTED BY IDOCK:   -2.27 KCAL/MOL
REMARK 922        TOTAL FREE ENERGY PREDICTED BY IDOCK:   -3.25 KCAL/MOL
REMARK 923 INTER-LIGAND FREE ENERGY PREDICTED BY IDOCK:   -3.12 KCAL/MOL
REMARK 924 INTRA-LIGAND FREE ENERGY PREDICTED BY IDOCK:   -0.13 KCAL/MOL
REMARK 927      BINDING AFFINITY PREDICTED BY RF-SCORE:    0.00 PKD
ROOT
HETATM    1  C   UNL     1     -12.226  13.628  66.319  1.00  0.00    -0.484 C  
HETATM    2  C   UNL     1     -11.869  13.661  67.798  1.00  0.00    -0.403 C  
ENDROOT
BRANCH   2   3
HETATM    3  C   UNL     1     -10.798  12.622  68.105  1.00  0.00    -0.227 C  
BRANCH   3   4
HETATM    4  O   UNL     1     -10.708  11.633  67.070  1.00  0.00    -0.229 OA 
BRANCH   4   5
HETATM    5  C   UNL     1      -9.465  11.432  66.539  1.00  0.00    -0.200 C  
HETATM    6  O   UNL     1      -9.198  11.430  65.343  1.00  0.00    -0.210 OA 
BRANCH   5   7
HETATM    7  C   UNL     1      -8.437  11.277  67.649  1.00  0.00    -0.124 C  
BRANCH   7   8
HETATM    8  N   UNL     1      -8.341   9.888  68.135  1.00  0.00    -0.109 NA 
HETATM    9  C   UNL     1      -7.306   9.490  68.972  1.00  0.00    -0.072 C  
HETATM   10  C   UNL     1      -7.127   8.244  69.437  1.00  0.00    -0.055 C  
HETATM   11  I   UNL     1      -5.574   7.752  70.671  1.00  0.00    -0.025 I  
HETATM   12  C   UNL     1      -8.118   7.192  69.014  1.00  0.00    -0.121 C  
HETATM   13  C   UNL     1      -9.224   7.632  68.099  1.00  0.00    -0.138 C  
HETATM   14  O   UNL     1      -8.025   6.029  69.401  1.00  0.00    -0.100 OA 
HETATM   15  I   UNL     1     -10.616   6.283  67.447  1.00  0.00    -0.480 I  
HETATM   16  C   UNL     1      -9.256   8.923  67.733  1.00  0.00    -0.141 C  
ENDBRANCH   7   8
ENDBRANCH   5   7
ENDBRANCH   4   5
ENDBRANCH   3   4
ENDBRANCH   2   3
TORSDOF 5
ENDMDL
MODEL      288
REMARK 921   NORMALIZED FREE ENERGY PREDICTED BY IDOCK:   -2.27 KCAL/MOL
REMARK 922        TOTAL FREE ENERGY PREDICTED BY IDOCK:   -3.24 KCAL/MOL
REMARK 923 INTER-LIGAND FREE ENERGY PREDICTED BY IDOCK:   -3.56 KCAL/MOL
REMARK 924 INTRA-LIGAND FREE ENERGY PREDICTED BY IDOCK:    0.32 KCAL/MOL
REMARK 927      BINDING AFFINITY PREDICTED BY RF-SCORE:    0.00 PKD
ROOT
HETATM    1  C   UNL     1     -11.425  14.821  64.697  1.00  0.00    -0.381 C  
HETATM    2  C   UNL     1     -12.209  13.577  64.303  1.00  0.00    -0.450 C  
ENDROOT
BRANCH   2   3
HETATM    3  C   UNL     1     -11.264  12.500  63.784  1.00  0.00    -0.462 C  
BRANCH   3   4
HETATM    4  O   UNL     1     -11.117  11.427  64.725  1.00  0.00    -0.275 OA 
BRANCH   4   5
HETATM    5  C   UNL     1     -11.242  11.764  66.044  1.00  0.00    -0.296 C  
HETATM    6  O   UNL     1     -12.286  11.737  66.685  1.00  0.00    -0.368 OA 
BRANCH   5   7
HETATM    7  C   UNL     1      -9.883  12.115  66.628  1.00  0.00    -0.211 C  
BRANCH   7   8
HETATM    8  N   UNL     1      -9.213  10.947  67.231  1.00  0.00    -0.151 NA 
HETATM    9  C   UNL     1      -9.919   9.785  67.519  1.00  0.00    -0.184 C  
HETATM   10  C   UNL     1      -9.397   8.689  68.092  1.00  0.00    -0.137 C  
HETATM   11  I   UNL     1     -10.512   7.020  68.473  1.00  0.00    -0.219 I  
HETATM   12  C   UNL     1      -7.937   8.722  68.459  1.00  0.00    -0.112 C  
HETATM   13  C   UNL     1      -7.190   9.988  68.154  1.00  0.00    -0.081 C  
HETATM   14  O   UNL     1      -7.384   7.756  68.983  1.00  0.00    -0.084 OA 
HETATM   15  I   UNL     1      -5.207  10.149  68.628  1.00  0.00    -0.037 I  
HETATM   16  C   UNL     1      -7.868  10.990  67.573  1.00  0.00    -0.116 C  
ENDBRANCH   7   8
ENDBRANCH   5   7
ENDBRANCH   4   5
ENDBRANCH   3   4
ENDBRANCH   2   3
TORSDOF 5
ENDMDL
MODEL      289
REMARK 921   NORMALIZED FREE ENERGY PREDICTED BY IDOCK:   -2.26 KCAL/MOL
REMARK 922        TOTAL FREE ENERGY PREDICTED BY IDOCK:   -3.23 KCAL/MOL
REMARK 923 INTER-LIGAND FREE ENERGY PREDICTED BY IDOCK:   -2.90 KCAL/MOL
REMARK 924 INTRA-LIGAND FREE ENERGY PREDICTED BY IDOCK:   -0.34 KCAL/MOL
REMARK 927      BINDING AFFINITY PREDICTED BY RF-SCORE:    0.00 PKD
ROOT
HETATM    1  C   UNL     1      -9.977   7.994  72.602  1.00  0.00    -0.358 C  
HETATM    2  C   UNL     1     -10.574   8.979  71.608  1.00  0.00    -0.434 C  
ENDROOT
BRANCH   2   3
HETATM    3  C   UNL     1      -9.531   9.381  70.573  1.00  0.00    -0.269 C  
BRANCH   3   4
HETATM    4  O   UNL     1     -10.141   9.882  69.374  1.00  0.00    -0.186 OA 
BRANCH   4   5
HETATM    5  C   UNL     1      -9.920   9.152  68.240  1.00  0.00    -0.175 C  
HETATM    6  O   UNL     1     -10.717   9.016  67.319  1.00  0.00    -0.269 OA 
BRANCH   5   7
HETATM    7  C   UNL     1      -8.511   8.581  68.247  1.00  0.00    -0.135 C  
BRANCH   7   8
HETATM    8  N   UNL     1      -8.470   7.180  67.787  1.00  0.00    -0.120 NA 
HETATM    9  C   UNL     1      -8.619   6.127  68.681  1.00  0.00    -0.113 C  
HETATM   10  C   UNL     1      -8.567   4.826  68.354  1.00  0.00    -0.097 C  
HETATM   11  I   UNL     1      -8.804   3.343  69.738  1.00  0.00    -0.205 I  
HETATM   12  C   UNL     1      -8.320   4.479  66.909  1.00  0.00    -0.105 C  
HETATM   13  C   UNL     1      -8.147   5.627  65.957  1.00  0.00    -0.109 C  
HETATM   14  O   UNL     1      -8.263   3.311  66.530  1.00  0.00    -0.093 OA 
HETATM   15  I   UNL     1      -7.788   5.270  63.975  1.00  0.00    -0.112 I  
HETATM   16  C   UNL     1      -8.233   6.870  66.454  1.00  0.00    -0.117 C  
ENDBRANCH   7   8
ENDBRANCH   5   7
ENDBRANCH   4   5
ENDBRANCH   3   4
ENDBRANCH   2   3
TORSDOF 5
ENDMDL
MODEL      290
REMARK 921   NORMALIZED FREE ENERGY PREDICTED BY IDOCK:   -2.26 KCAL/MOL
REMARK 922        TOTAL FREE ENERGY PREDICTED BY IDOCK:   -3.23 KCAL/MOL
REMARK 923 INTER-LIGAND FREE ENERGY PREDICTED BY IDOCK:   -3.03 KCAL/MOL
REMARK 924 INTRA-LIGAND FREE ENERGY PREDICTED BY IDOCK:   -0.20 KCAL/MOL
REMARK 927      BINDING AFFINITY PREDICTED BY RF-SCORE:    0.00 PKD
ROOT
HETATM    1  C   UNL     1     -10.238  11.001  64.564  1.00  0.00    -0.406 C  
HETATM    2  C   UNL     1     -10.761  11.766  65.771  1.00  0.00    -0.328 C  
ENDROOT
BRANCH   2   3
HETATM    3  C   UNL     1     -10.089  11.267  67.044  1.00  0.00    -0.206 C  
BRANCH   3   4
HETATM    4  O   UNL     1     -10.809  10.172  67.628  1.00  0.00    -0.265 OA 
BRANCH   4   5
HETATM    5  C   UNL     1     -10.051   9.215  68.242  1.00  0.00    -0.191 C  
HETATM    6  O   UNL     1      -8.876   8.974  67.991  1.00  0.00    -0.129 OA 
BRANCH   5   7
HETATM    7  C   UNL     1     -10.853   8.531  69.338  1.00  0.00    -0.091 C  
BRANCH   7   8
HETATM    8  N   UNL     1     -10.042   7.572  70.112  1.00  0.00    -0.193 NA 
HETATM    9  C   UNL     1      -9.304   7.984  71.215  1.00  0.00    -0.150 C  
HETATM   10  C   UNL     1      -8.518   7.188  71.957  1.00  0.00    -0.107 C  
HETATM   11  I   UNL     1      -7.473   7.882  73.569  1.00  0.00    -0.205 I  
HETATM   12  C   UNL     1      -8.422   5.738  71.561  1.00  0.00    -0.128 C  
HETATM   13  C   UNL     1      -9.214   5.310  70.360  1.00  0.00    -0.148 C  
HETATM   14  O   UNL     1      -7.727   4.945  72.193  1.00  0.00    -0.090 OA 
HETATM   15  I   UNL     1      -9.141   3.368  69.721  1.00  0.00    -0.223 I  
HETATM   16  C   UNL     1      -9.953   6.239  69.734  1.00  0.00    -0.168 C  
ENDBRANCH   7   8
ENDBRANCH   5   7
ENDBRANCH   4   5
ENDBRANCH   3   4
ENDBRANCH   2   3
TORSDOF 5
ENDMDL
MODEL      291
REMARK 921   NORMALIZED FREE ENERGY PREDICTED BY IDOCK:   -2.25 KCAL/MOL
REMARK 922        TOTAL FREE ENERGY PREDICTED BY IDOCK:   -3.23 KCAL/MOL
REMARK 923 INTER-LIGAND FREE ENERGY PREDICTED BY IDOCK:   -2.85 KCAL/MOL
REMARK 924 INTRA-LIGAND FREE ENERGY PREDICTED BY IDOCK:   -0.38 KCAL/MOL
REMARK 927      BINDING AFFINITY PREDICTED BY RF-SCORE:    0.00 PKD
ROOT
HETATM    1  C   UNL     1     -10.806  12.101  63.436  1.00  0.00    -0.474 C  
HETATM    2  C   UNL     1     -10.759  11.925  64.948  1.00  0.00    -0.350 C  
ENDROOT
BRANCH   2   3
HETATM    3  C   UNL     1     -10.293  10.519  65.300  1.00  0.00    -0.229 C  
BRANCH   3   4
HETATM    4  O   UNL     1      -9.400  10.523  66.424  1.00  0.00    -0.162 OA 
BRANCH   4   5
HETATM    5  C   UNL     1      -8.123  10.105  66.176  1.00  0.00    -0.123 C  
HETATM    6  O   UNL     1      -7.514  10.271  65.126  1.00  0.00    -0.139 OA 
BRANCH   5   7
HETATM    7  C   UNL     1      -7.531   9.458  67.419  1.00  0.00    -0.091 C  
BRANCH   7   8
HETATM    8  N   UNL     1      -8.160   8.161  67.729  1.00  0.00    -0.126 NA 
HETATM    9  C   UNL     1      -8.608   7.869  69.012  1.00  0.00    -0.135 C  
HETATM   10  C   UNL     1      -9.164   6.706  69.388  1.00  0.00    -0.142 C  
HETATM   11  I   UNL     1      -9.800   6.369  71.300  1.00  0.00    -0.219 I  
HETATM   12  C   UNL     1      -9.307   5.631  68.343  1.00  0.00    -0.119 C  
HETATM   13  C   UNL     1      -8.807   5.955  66.965  1.00  0.00    -0.112 C  
HETATM   14  O   UNL     1      -9.810   4.541  68.608  1.00  0.00    -0.156 OA 
HETATM   15  I   UNL     1      -8.933   4.561  65.474  1.00  0.00    -0.159 I  
HETATM   16  C   UNL     1      -8.280   7.172  66.761  1.00  0.00    -0.114 C  
ENDBRANCH   7   8
ENDBRANCH   5   7
ENDBRANCH   4   5
ENDBRANCH   3   4
ENDBRANCH   2   3
TORSDOF 5
ENDMDL
MODEL      292
REMARK 921   NORMALIZED FREE ENERGY PREDICTED BY IDOCK:   -2.25 KCAL/MOL
REMARK 922        TOTAL FREE ENERGY PREDICTED BY IDOCK:   -3.23 KCAL/MOL
REMARK 923 INTER-LIGAND FREE ENERGY PREDICTED BY IDOCK:   -3.22 KCAL/MOL
REMARK 924 INTRA-LIGAND FREE ENERGY PREDICTED BY IDOCK:   -0.00 KCAL/MOL
REMARK 927      BINDING AFFINITY PREDICTED BY RF-SCORE:    0.00 PKD
ROOT
HETATM    1  C   UNL     1      -8.662   4.741  65.243  1.00  0.00    -0.142 C  
HETATM    2  C   UNL     1      -8.460   6.218  64.934  1.00  0.00    -0.017 C  
ENDROOT
BRANCH   2   3
HETATM    3  C   UNL     1      -7.352   6.792  65.807  1.00  0.00    -0.075 C  
BRANCH   3   4
HETATM    4  O   UNL     1      -7.790   7.958  66.520  1.00  0.00    -0.094 OA 
BRANCH   4   5
HETATM    5  C   UNL     1      -8.012   9.075  65.763  1.00  0.00    -0.103 C  
HETATM    6  O   UNL     1      -7.143   9.828  65.341  1.00  0.00    -0.101 OA 
BRANCH   5   7
HETATM    7  C   UNL     1      -9.495   9.218  65.459  1.00  0.00    -0.240 C  
BRANCH   7   8
HETATM    8  N   UNL     1     -10.130  10.287  66.253  1.00  0.00    -0.232 NA 
HETATM    9  C   UNL     1     -10.737  10.012  67.472  1.00  0.00    -0.281 C  
HETATM   10  C   UNL     1     -11.361  10.916  68.244  1.00  0.00    -0.308 C  
HETATM   11  I   UNL     1     -12.222  10.418  70.028  1.00  0.00    -0.056 I  
HETATM   12  C   UNL     1     -11.416  12.336  67.747  1.00  0.00    -0.329 C  
HETATM   13  C   UNL     1     -10.768  12.617  66.423  1.00  0.00    -0.255 C  
HETATM   14  O   UNL     1     -11.966  13.223  68.399  1.00  0.00    -0.340 OA 
HETATM   15  I   UNL     1     -10.800  14.509  65.645  1.00  0.00    -0.409 I  
HETATM   16  C   UNL     1     -10.182  11.593  65.783  1.00  0.00    -0.240 C  
ENDBRANCH   7   8
ENDBRANCH   5   7
ENDBRANCH   4   5
ENDBRANCH   3   4
ENDBRANCH   2   3
TORSDOF 5
ENDMDL
MODEL      293
REMARK 921   NORMALIZED FREE ENERGY PREDICTED BY IDOCK:   -2.25 KCAL/MOL
REMARK 922        TOTAL FREE ENERGY PREDICTED BY IDOCK:   -3.22 KCAL/MOL
REMARK 923 INTER-LIGAND FREE ENERGY PREDICTED BY IDOCK:   -3.03 KCAL/MOL
REMARK 924 INTRA-LIGAND FREE ENERGY PREDICTED BY IDOCK:   -0.19 KCAL/MOL
REMARK 927      BINDING AFFINITY PREDICTED BY RF-SCORE:    0.00 PKD
ROOT
HETATM    1  C   UNL     1      -7.176   9.799  69.614  1.00  0.00    -0.097 C  
HETATM    2  C   UNL     1      -7.177   9.028  68.302  1.00  0.00    -0.078 C  
ENDROOT
BRANCH   2   3
HETATM    3  C   UNL     1      -7.930   7.713  68.464  1.00  0.00    -0.123 C  
BRANCH   3   4
HETATM    4  O   UNL     1      -8.221   7.111  67.195  1.00  0.00    -0.116 OA 
BRANCH   4   5
HETATM    5  C   UNL     1      -9.542   6.875  66.932  1.00  0.00    -0.162 C  
HETATM    6  O   UNL     1     -10.295   7.643  66.344  1.00  0.00    -0.135 OA 
BRANCH   5   7
HETATM    7  C   UNL     1      -9.935   5.488  67.414  1.00  0.00    -0.162 C  
BRANCH   7   8
HETATM    8  N   UNL     1     -10.248   5.463  68.855  1.00  0.00    -0.197 NA 
HETATM    9  C   UNL     1      -9.671   4.521  69.699  1.00  0.00    -0.218 C  
HETATM   10  C   UNL     1      -9.920   4.409  71.013  1.00  0.00    -0.172 C  
HETATM   11  I   UNL     1      -9.017   2.994  72.178  1.00  0.00    -0.164 I  
HETATM   12  C   UNL     1     -10.907   5.370  71.620  1.00  0.00    -0.162 C  
HETATM   13  C   UNL     1     -11.533   6.374  70.696  1.00  0.00    -0.362 C  
HETATM   14  O   UNL     1     -11.185   5.334  72.818  1.00  0.00    -0.270 OA 
HETATM   15  I   UNL     1     -12.902   7.715  71.411  1.00  0.00    -0.223 I  
HETATM   16  C   UNL     1     -11.166   6.349  69.405  1.00  0.00    -0.394 C  
ENDBRANCH   7   8
ENDBRANCH   5   7
ENDBRANCH   4   5
ENDBRANCH   3   4
ENDBRANCH   2   3
TORSDOF 5
ENDMDL
MODEL      294
REMARK 921   NORMALIZED FREE ENERGY PREDICTED BY IDOCK:   -2.24 KCAL/MOL
REMARK 922        TOTAL FREE ENERGY PREDICTED BY IDOCK:   -3.21 KCAL/MOL
REMARK 923 INTER-LIGAND FREE ENERGY PREDICTED BY IDOCK:   -2.82 KCAL/MOL
REMARK 924 INTRA-LIGAND FREE ENERGY PREDICTED BY IDOCK:   -0.39 KCAL/MOL
REMARK 927      BINDING AFFINITY PREDICTED BY RF-SCORE:    0.00 PKD
ROOT
HETATM    1  C   UNL     1      -9.972   7.998  72.604  1.00  0.00    -0.358 C  
HETATM    2  C   UNL     1     -10.600   8.986  71.631  1.00  0.00    -0.434 C  
ENDROOT
BRANCH   2   3
HETATM    3  C   UNL     1      -9.578   9.420  70.588  1.00  0.00    -0.268 C  
BRANCH   3   4
HETATM    4  O   UNL     1     -10.212   9.870  69.381  1.00  0.00    -0.189 OA 
BRANCH   4   5
HETATM    5  C   UNL     1      -9.917   9.162  68.250  1.00  0.00    -0.175 C  
HETATM    6  O   UNL     1     -10.695   8.940  67.330  1.00  0.00    -0.272 OA 
BRANCH   5   7
HETATM    7  C   UNL     1      -8.455   8.743  68.258  1.00  0.00    -0.130 C  
BRANCH   7   8
HETATM    8  N   UNL     1      -8.268   7.353  67.800  1.00  0.00    -0.118 NA 
HETATM    9  C   UNL     1      -7.791   7.076  66.525  1.00  0.00    -0.106 C  
HETATM   10  C   UNL     1      -7.618   5.845  66.018  1.00  0.00    -0.086 C  
HETATM   11  I   UNL     1      -6.903   5.534  64.130  1.00  0.00    -0.050 I  
HETATM   12  C   UNL     1      -7.976   4.674  66.893  1.00  0.00    -0.102 C  
HETATM   13  C   UNL     1      -8.502   4.987  68.264  1.00  0.00    -0.098 C  
HETATM   14  O   UNL     1      -7.841   3.515  66.503  1.00  0.00    -0.083 OA 
HETATM   15  I   UNL     1      -9.038   3.472  69.530  1.00  0.00    -0.232 I  
HETATM   16  C   UNL     1      -8.608   6.279  68.612  1.00  0.00    -0.121 C  
ENDBRANCH   7   8
ENDBRANCH   5   7
ENDBRANCH   4   5
ENDBRANCH   3   4
ENDBRANCH   2   3
TORSDOF 5
ENDMDL
MODEL      295
REMARK 921   NORMALIZED FREE ENERGY PREDICTED BY IDOCK:   -2.24 KCAL/MOL
REMARK 922        TOTAL FREE ENERGY PREDICTED BY IDOCK:   -3.20 KCAL/MOL
REMARK 923 INTER-LIGAND FREE ENERGY PREDICTED BY IDOCK:   -3.22 KCAL/MOL
REMARK 924 INTRA-LIGAND FREE ENERGY PREDICTED BY IDOCK:    0.02 KCAL/MOL
REMARK 927      BINDING AFFINITY PREDICTED BY RF-SCORE:    0.00 PKD
ROOT
HETATM    1  C   UNL     1     -10.648   4.326  74.223  1.00  0.00    -0.307 C  
HETATM    2  C   UNL     1     -10.762   5.812  73.916  1.00  0.00    -0.197 C  
ENDROOT
BRANCH   2   3
HETATM    3  C   UNL     1     -10.793   6.039  72.410  1.00  0.00    -0.247 C  
BRANCH   3   4
HETATM    4  O   UNL     1     -11.874   6.901  72.027  1.00  0.00    -0.291 OA 
BRANCH   4   5
HETATM    5  C   UNL     1     -11.532   7.999  71.287  1.00  0.00    -0.269 C  
HETATM    6  O   UNL     1     -12.294   8.905  70.971  1.00  0.00    -0.270 OA 
BRANCH   5   7
HETATM    7  C   UNL     1     -10.047   7.973  70.963  1.00  0.00    -0.186 C  
BRANCH   7   8
HETATM    8  N   UNL     1      -9.778   7.479  69.599  1.00  0.00    -0.167 NA 
HETATM    9  C   UNL     1      -9.746   8.347  68.515  1.00  0.00    -0.160 C  
HETATM   10  C   UNL     1      -9.538   7.980  67.240  1.00  0.00    -0.162 C  
HETATM   11  I   UNL     1      -9.502   9.331  65.709  1.00  0.00    -0.214 I  
HETATM   12  C   UNL     1      -9.332   6.515  66.961  1.00  0.00    -0.139 C  
HETATM   13  C   UNL     1      -9.383   5.587  68.140  1.00  0.00    -0.111 C  
HETATM   14  O   UNL     1      -9.132   6.101  65.821  1.00  0.00    -0.135 OA 
HETATM   15  I   UNL     1      -9.135   3.574  67.872  1.00  0.00    -0.231 I  
HETATM   16  C   UNL     1      -9.598   6.124  69.351  1.00  0.00    -0.137 C  
ENDBRANCH   7   8
ENDBRANCH   5   7
ENDBRANCH   4   5
ENDBRANCH   3   4
ENDBRANCH   2   3
TORSDOF 5
ENDMDL
MODEL      296
REMARK 921   NORMALIZED FREE ENERGY PREDICTED BY IDOCK:   -2.23 KCAL/MOL
REMARK 922        TOTAL FREE ENERGY PREDICTED BY IDOCK:   -3.19 KCAL/MOL
REMARK 923 INTER-LIGAND FREE ENERGY PREDICTED BY IDOCK:   -2.92 KCAL/MOL
REMARK 924 INTRA-LIGAND FREE ENERGY PREDICTED BY IDOCK:   -0.28 KCAL/MOL
REMARK 927      BINDING AFFINITY PREDICTED BY RF-SCORE:    0.00 PKD
ROOT
HETATM    1  C   UNL     1     -10.963  16.274  69.707  1.00  0.00    -0.354 C  
HETATM    2  C   UNL     1      -9.996  15.522  68.804  1.00  0.00    -0.214 C  
ENDROOT
BRANCH   2   3
HETATM    3  C   UNL     1     -10.752  14.522  67.939  1.00  0.00    -0.245 C  
BRANCH   3   4
HETATM    4  O   UNL     1     -10.583  13.178  68.413  1.00  0.00    -0.239 OA 
BRANCH   4   5
HETATM    5  C   UNL     1     -10.627  12.197  67.462  1.00  0.00    -0.214 C  
HETATM    6  O   UNL     1     -10.284  12.327  66.293  1.00  0.00    -0.221 OA 
BRANCH   5   7
HETATM    7  C   UNL     1     -11.102  10.890  68.077  1.00  0.00    -0.293 C  
BRANCH   7   8
HETATM    8  N   UNL     1     -10.009   9.911  68.227  1.00  0.00    -0.147 NA 
HETATM    9  C   UNL     1      -8.948  10.147  69.093  1.00  0.00    -0.175 C  
HETATM   10  C   UNL     1      -7.900   9.327  69.270  1.00  0.00    -0.085 C  
HETATM   11  I   UNL     1      -6.386   9.757  70.572  1.00  0.00    -0.087 I  
HETATM   12  C   UNL     1      -7.865   8.056  68.463  1.00  0.00    -0.115 C  
HETATM   13  C   UNL     1      -9.011   7.819  67.522  1.00  0.00    -0.123 C  
HETATM   14  O   UNL     1      -6.942   7.251  68.572  1.00  0.00    -0.073 OA 
HETATM   15  I   UNL     1      -9.057   6.134  66.364  1.00  0.00    -0.131 I  
HETATM   16  C   UNL     1      -9.982   8.745  67.473  1.00  0.00    -0.198 C  
ENDBRANCH   7   8
ENDBRANCH   5   7
ENDBRANCH   4   5
ENDBRANCH   3   4
ENDBRANCH   2   3
TORSDOF 5
ENDMDL
MODEL      297
REMARK 921   NORMALIZED FREE ENERGY PREDICTED BY IDOCK:   -2.22 KCAL/MOL
REMARK 922        TOTAL FREE ENERGY PREDICTED BY IDOCK:   -3.18 KCAL/MOL
REMARK 923 INTER-LIGAND FREE ENERGY PREDICTED BY IDOCK:   -3.59 KCAL/MOL
REMARK 924 INTRA-LIGAND FREE ENERGY PREDICTED BY IDOCK:    0.41 KCAL/MOL
REMARK 927      BINDING AFFINITY PREDICTED BY RF-SCORE:    0.00 PKD
ROOT
HETATM    1  C   UNL     1     -11.234   9.887  70.859  1.00  0.00    -0.433 C  
HETATM    2  C   UNL     1     -10.478  10.256  69.590  1.00  0.00    -0.286 C  
ENDROOT
BRANCH   2   3
HETATM    3  C   UNL     1      -9.117   9.572  69.569  1.00  0.00    -0.185 C  
BRANCH   3   4
HETATM    4  O   UNL     1      -8.049  10.513  69.746  1.00  0.00    -0.116 OA 
BRANCH   4   5
HETATM    5  C   UNL     1      -7.585  11.114  68.609  1.00  0.00    -0.127 C  
HETATM    6  O   UNL     1      -6.662  10.701  67.916  1.00  0.00    -0.064 OA 
BRANCH   5   7
HETATM    7  C   UNL     1      -8.423  12.339  68.282  1.00  0.00    -0.173 C  
BRANCH   7   8
HETATM    8  N   UNL     1      -8.995  12.281  66.923  1.00  0.00    -0.203 NA 
HETATM    9  C   UNL     1      -9.880  13.254  66.474  1.00  0.00    -0.281 C  
HETATM   10  C   UNL     1     -10.468  13.263  65.268  1.00  0.00    -0.313 C  
HETATM   11  I   UNL     1     -11.754  14.743  64.692  1.00  0.00    -0.245 I  
HETATM   12  C   UNL     1     -10.154  12.128  64.330  1.00  0.00    -0.274 C  
HETATM   13  C   UNL     1      -9.207  11.077  64.832  1.00  0.00    -0.188 C  
HETATM   14  O   UNL     1     -10.649  12.068  63.206  1.00  0.00    -0.418 OA 
HETATM   15  I   UNL     1      -8.724   9.480  63.648  1.00  0.00    -0.126 I  
HETATM   16  C   UNL     1      -8.705  11.226  66.068  1.00  0.00    -0.164 C  
ENDBRANCH   7   8
ENDBRANCH   5   7
ENDBRANCH   4   5
ENDBRANCH   3   4
ENDBRANCH   2   3
TORSDOF 5
ENDMDL
MODEL      298
REMARK 921   NORMALIZED FREE ENERGY PREDICTED BY IDOCK:   -2.20 KCAL/MOL
REMARK 922        TOTAL FREE ENERGY PREDICTED BY IDOCK:   -3.16 KCAL/MOL
REMARK 923 INTER-LIGAND FREE ENERGY PREDICTED BY IDOCK:   -2.81 KCAL/MOL
REMARK 924 INTRA-LIGAND FREE ENERGY PREDICTED BY IDOCK:   -0.35 KCAL/MOL
REMARK 927      BINDING AFFINITY PREDICTED BY RF-SCORE:    0.00 PKD
ROOT
HETATM    1  C   UNL     1     -10.036   3.515  73.573  1.00  0.00    -0.193 C  
HETATM    2  C   UNL     1     -10.007   5.021  73.792  1.00  0.00    -0.195 C  
ENDROOT
BRANCH   2   3
HETATM    3  C   UNL     1      -9.992   5.748  72.452  1.00  0.00    -0.169 C  
BRANCH   3   4
HETATM    4  O   UNL     1     -11.316   6.092  72.022  1.00  0.00    -0.269 OA 
BRANCH   4   5
HETATM    5  C   UNL     1     -11.434   7.257  71.316  1.00  0.00    -0.276 C  
HETATM    6  O   UNL     1     -12.485   7.841  71.084  1.00  0.00    -0.296 OA 
BRANCH   5   7
HETATM    7  C   UNL     1     -10.060   7.767  70.912  1.00  0.00    -0.187 C  
BRANCH   7   8
HETATM    8  N   UNL     1      -9.852   7.725  69.452  1.00  0.00    -0.173 NA 
HETATM    9  C   UNL     1      -9.500   6.543  68.811  1.00  0.00    -0.128 C  
HETATM   10  C   UNL     1      -9.264   6.420  67.496  1.00  0.00    -0.112 C  
HETATM   11  I   UNL     1      -8.756   4.637  66.640  1.00  0.00    -0.116 I  
HETATM   12  C   UNL     1      -9.382   7.659  66.648  1.00  0.00    -0.190 C  
HETATM   13  C   UNL     1      -9.751   8.932  67.354  1.00  0.00    -0.176 C  
HETATM   14  O   UNL     1      -9.187   7.628  65.434  1.00  0.00     0.148 OA 
HETATM   15  I   UNL     1      -9.920  10.678  66.303  1.00  0.00    -0.295 I  
HETATM   16  C   UNL     1      -9.956   8.874  68.680  1.00  0.00    -0.177 C  
ENDBRANCH   7   8
ENDBRANCH   5   7
ENDBRANCH   4   5
ENDBRANCH   3   4
ENDBRANCH   2   3
TORSDOF 5
ENDMDL
MODEL      299
REMARK 921   NORMALIZED FREE ENERGY PREDICTED BY IDOCK:   -2.20 KCAL/MOL
REMARK 922        TOTAL FREE ENERGY PREDICTED BY IDOCK:   -3.15 KCAL/MOL
REMARK 923 INTER-LIGAND FREE ENERGY PREDICTED BY IDOCK:   -2.83 KCAL/MOL
REMARK 924 INTRA-LIGAND FREE ENERGY PREDICTED BY IDOCK:   -0.32 KCAL/MOL
REMARK 927      BINDING AFFINITY PREDICTED BY RF-SCORE:    0.00 PKD
ROOT
HETATM    1  C   UNL     1      -9.110  16.265  67.400  1.00  0.00    -0.203 C  
HETATM    2  C   UNL     1      -7.690  16.721  67.098  1.00  0.00    -0.213 C  
ENDROOT
BRANCH   2   3
HETATM    3  C   UNL     1      -6.696  15.628  67.470  1.00  0.00    -0.191 C  
BRANCH   3   4
HETATM    4  O   UNL     1      -7.121  14.898  68.630  1.00  0.00    -0.102 OA 
BRANCH   4   5
HETATM    5  C   UNL     1      -6.552  13.667  68.806  1.00  0.00    -0.101 C  
HETATM    6  O   UNL     1      -6.115  13.234  69.866  1.00  0.00    -0.125 OA 
BRANCH   5   7
HETATM    7  C   UNL     1      -6.599  12.876  67.509  1.00  0.00    -0.157 C  
BRANCH   7   8
HETATM    8  N   UNL     1      -7.639  11.831  67.526  1.00  0.00    -0.126 NA 
HETATM    9  C   UNL     1      -7.460  10.628  66.853  1.00  0.00    -0.115 C  
HETATM   10  C   UNL     1      -8.363   9.637  66.793  1.00  0.00    -0.117 C  
HETATM   11  I   UNL     1      -8.008   7.898  65.781  1.00  0.00    -0.129 I  
HETATM   12  C   UNL     1      -9.675   9.845  67.501  1.00  0.00    -0.160 C  
HETATM   13  C   UNL     1      -9.861  11.153  68.213  1.00  0.00    -0.189 C  
HETATM   14  O   UNL     1     -10.551   8.982  67.496  1.00  0.00    -0.265 OA 
HETATM   15  I   UNL     1     -11.613  11.550  69.192  1.00  0.00    -0.457 I  
HETATM   16  C   UNL     1      -8.850  12.035  68.176  1.00  0.00    -0.182 C  
ENDBRANCH   7   8
ENDBRANCH   5   7
ENDBRANCH   4   5
ENDBRANCH   3   4
ENDBRANCH   2   3
TORSDOF 5
ENDMDL
MODEL      300
REMARK 921   NORMALIZED FREE ENERGY PREDICTED BY IDOCK:   -2.16 KCAL/MOL
REMARK 922        TOTAL FREE ENERGY PREDICTED BY IDOCK:   -3.10 KCAL/MOL
REMARK 923 INTER-LIGAND FREE ENERGY PREDICTED BY IDOCK:   -2.95 KCAL/MOL
REMARK 924 INTRA-LIGAND FREE ENERGY PREDICTED BY IDOCK:   -0.16 KCAL/MOL
REMARK 927      BINDING AFFINITY PREDICTED BY RF-SCORE:    0.00 PKD
ROOT
HETATM    1  C   UNL     1     -10.750   7.127  73.791  1.00  0.00    -0.191 C  
HETATM    2  C   UNL     1     -11.097   6.118  72.706  1.00  0.00    -0.294 C  
ENDROOT
BRANCH   2   3
HETATM    3  C   UNL     1     -10.700   6.657  71.338  1.00  0.00    -0.229 C  
BRANCH   3   4
HETATM    4  O   UNL     1     -11.584   7.702  70.904  1.00  0.00    -0.281 OA 
BRANCH   4   5
HETATM    5  C   UNL     1     -10.985   8.826  70.409  1.00  0.00    -0.235 C  
HETATM    6  O   UNL     1     -11.564   9.866  70.117  1.00  0.00    -0.253 OA 
BRANCH   5   7
HETATM    7  C   UNL     1      -9.479   8.630  70.331  1.00  0.00    -0.170 C  
BRANCH   7   8
HETATM    8  N   UNL     1      -9.017   8.371  68.955  1.00  0.00    -0.146 NA 
HETATM    9  C   UNL     1      -8.188   7.293  68.667  1.00  0.00    -0.125 C  
HETATM   10  C   UNL     1      -7.699   7.001  67.451  1.00  0.00    -0.110 C  
HETATM   11  I   UNL     1      -6.490   5.388  67.121  1.00  0.00    -0.051 I  
HETATM   12  C   UNL     1      -8.069   7.914  66.313  1.00  0.00    -0.110 C  
HETATM   13  C   UNL     1      -8.955   9.082  66.640  1.00  0.00    -0.135 C  
HETATM   14  O   UNL     1      -7.665   7.711  65.169  1.00  0.00    -0.095 OA 
HETATM   15  I   UNL     1      -9.504  10.397  65.173  1.00  0.00    -0.391 I  
HETATM   16  C   UNL     1      -9.357   9.224  67.912  1.00  0.00    -0.129 C  
ENDBRANCH   7   8
ENDBRANCH   5   7
ENDBRANCH   4   5
ENDBRANCH   3   4
ENDBRANCH   2   3
TORSDOF 5
ENDMDL
MODEL      301
REMARK 921   NORMALIZED FREE ENERGY PREDICTED BY IDOCK:   -2.15 KCAL/MOL
REMARK 922        TOTAL FREE ENERGY PREDICTED BY IDOCK:   -3.10 KCAL/MOL
REMARK 923 INTER-LIGAND FREE ENERGY PREDICTED BY IDOCK:   -2.84 KCAL/MOL
REMARK 924 INTRA-LIGAND FREE ENERGY PREDICTED BY IDOCK:   -0.25 KCAL/MOL
REMARK 927      BINDING AFFINITY PREDICTED BY RF-SCORE:    0.00 PKD
ROOT
HETATM    1  C   UNL     1      -8.684   5.052  64.436  1.00  0.00    -0.119 C  
HETATM    2  C   UNL     1      -8.111   6.022  65.460  1.00  0.00    -0.133 C  
ENDROOT
BRANCH   2   3
HETATM    3  C   UNL     1      -8.826   5.861  66.796  1.00  0.00    -0.118 C  
BRANCH   3   4
HETATM    4  O   UNL     1      -8.917   7.107  67.501  1.00  0.00    -0.122 OA 
BRANCH   4   5
HETATM    5  C   UNL     1     -10.136   7.401  68.043  1.00  0.00    -0.179 C  
HETATM    6  O   UNL     1     -10.654   8.512  68.061  1.00  0.00    -0.207 OA 
BRANCH   5   7
HETATM    7  C   UNL     1     -10.799   6.136  68.566  1.00  0.00    -0.314 C  
BRANCH   7   8
HETATM    8  N   UNL     1     -10.223   5.690  69.848  1.00  0.00    -0.226 NA 
HETATM    9  C   UNL     1      -9.844   6.606  70.823  1.00  0.00    -0.183 C  
HETATM   10  C   UNL     1      -9.288   6.291  72.003  1.00  0.00    -0.152 C  
HETATM   11  I   UNL     1      -8.769   7.709  73.378  1.00  0.00    -0.340 I  
HETATM   12  C   UNL     1      -9.045   4.833  72.291  1.00  0.00    -0.126 C  
HETATM   13  C   UNL     1      -9.447   3.855  71.225  1.00  0.00    -0.159 C  
HETATM   14  O   UNL     1      -8.544   4.463  73.351  1.00  0.00    -0.097 OA 
HETATM   15  I   UNL     1      -9.146   1.851  71.505  1.00  0.00    -0.188 I  
HETATM   16  C   UNL     1      -9.996   4.344  70.103  1.00  0.00    -0.179 C  
ENDBRANCH   7   8
ENDBRANCH   5   7
ENDBRANCH   4   5
ENDBRANCH   3   4
ENDBRANCH   2   3
TORSDOF 5
ENDMDL
MODEL      302
REMARK 921   NORMALIZED FREE ENERGY PREDICTED BY IDOCK:   -2.15 KCAL/MOL
REMARK 922        TOTAL FREE ENERGY PREDICTED BY IDOCK:   -3.10 KCAL/MOL
REMARK 923 INTER-LIGAND FREE ENERGY PREDICTED BY IDOCK:   -2.78 KCAL/MOL
REMARK 924 INTRA-LIGAND FREE ENERGY PREDICTED BY IDOCK:   -0.31 KCAL/MOL
REMARK 927      BINDING AFFINITY PREDICTED BY RF-SCORE:    0.00 PKD
ROOT
HETATM    1  C   UNL     1      -7.826   5.418  71.398  1.00  0.00    -0.110 C  
HETATM    2  C   UNL     1      -8.729   6.641  71.486  1.00  0.00    -0.131 C  
ENDROOT
BRANCH   2   3
HETATM    3  C   UNL     1      -9.508   6.815  70.189  1.00  0.00    -0.158 C  
BRANCH   3   4
HETATM    4  O   UNL     1      -8.866   6.150  69.092  1.00  0.00    -0.123 OA 
BRANCH   4   5
HETATM    5  C   UNL     1      -9.693   5.509  68.212  1.00  0.00    -0.132 C  
HETATM    6  O   UNL     1      -9.736   4.298  68.033  1.00  0.00    -0.157 OA 
BRANCH   5   7
HETATM    7  C   UNL     1     -10.610   6.511  67.528  1.00  0.00    -0.280 C  
BRANCH   7   8
HETATM    8  N   UNL     1      -9.873   7.430  66.639  1.00  0.00    -0.209 NA 
HETATM    9  C   UNL     1     -10.267   8.755  66.490  1.00  0.00    -0.244 C  
HETATM   10  C   UNL     1      -9.674   9.649  65.685  1.00  0.00    -0.293 C  
HETATM   11  I   UNL     1     -10.321  11.581  65.535  1.00  0.00    -0.351 I  
HETATM   12  C   UNL     1      -8.495   9.181  64.872  1.00  0.00    -0.175 C  
HETATM   13  C   UNL     1      -8.088   7.745  65.033  1.00  0.00    -0.139 C  
HETATM   14  O   UNL     1      -7.895   9.942  64.114  1.00  0.00    -0.131 OA 
HETATM   15  I   UNL     1      -6.513   6.999  63.963  1.00  0.00    -0.045 I  
HETATM   16  C   UNL     1      -8.792   6.988  65.888  1.00  0.00    -0.103 C  
ENDBRANCH   7   8
ENDBRANCH   5   7
ENDBRANCH   4   5
ENDBRANCH   3   4
ENDBRANCH   2   3
TORSDOF 5
ENDMDL
MODEL      303
REMARK 921   NORMALIZED FREE ENERGY PREDICTED BY IDOCK:   -2.15 KCAL/MOL
REMARK 922        TOTAL FREE ENERGY PREDICTED BY IDOCK:   -3.10 KCAL/MOL
REMARK 923 INTER-LIGAND FREE ENERGY PREDICTED BY IDOCK:   -3.14 KCAL/MOL
REMARK 924 INTRA-LIGAND FREE ENERGY PREDICTED BY IDOCK:    0.04 KCAL/MOL
REMARK 927      BINDING AFFINITY PREDICTED BY RF-SCORE:    0.00 PKD
ROOT
HETATM    1  C   UNL     1      -6.795   6.804  69.547  1.00  0.00    -0.054 C  
HETATM    2  C   UNL     1      -6.858   5.301  69.779  1.00  0.00    -0.056 C  
ENDROOT
BRANCH   2   3
HETATM    3  C   UNL     1      -7.891   4.668  68.854  1.00  0.00    -0.071 C  
BRANCH   3   4
HETATM    4  O   UNL     1      -8.277   5.563  67.801  1.00  0.00    -0.101 OA 
BRANCH   4   5
HETATM    5  C   UNL     1      -9.108   5.044  66.848  1.00  0.00    -0.117 C  
HETATM    6  O   UNL     1      -8.838   4.103  66.110  1.00  0.00    -0.113 OA 
BRANCH   5   7
HETATM    7  C   UNL     1     -10.450   5.757  66.875  1.00  0.00    -0.285 C  
BRANCH   7   8
HETATM    8  N   UNL     1     -10.544   6.733  67.977  1.00  0.00    -0.210 NA 
HETATM    9  C   UNL     1     -10.825   6.325  69.276  1.00  0.00    -0.342 C  
HETATM   10  C   UNL     1     -10.957   7.146  70.330  1.00  0.00    -0.263 C  
HETATM   11  I   UNL     1     -11.364   6.453  72.208  1.00  0.00    -0.320 I  
HETATM   12  C   UNL     1     -10.797   8.623  70.087  1.00  0.00    -0.233 C  
HETATM   13  C   UNL     1     -10.507   9.052  68.678  1.00  0.00    -0.200 C  
HETATM   14  O   UNL     1     -10.898   9.439  71.002  1.00  0.00    -0.281 OA 
HETATM   15  I   UNL     1     -10.290  11.036  68.232  1.00  0.00    -0.259 I  
HETATM   16  C   UNL     1     -10.404   8.095  67.742  1.00  0.00    -0.233 C  
ENDBRANCH   7   8
ENDBRANCH   5   7
ENDBRANCH   4   5
ENDBRANCH   3   4
ENDBRANCH   2   3
TORSDOF 5
ENDMDL
MODEL      304
REMARK 921   NORMALIZED FREE ENERGY PREDICTED BY IDOCK:   -2.13 KCAL/MOL
REMARK 922        TOTAL FREE ENERGY PREDICTED BY IDOCK:   -3.07 KCAL/MOL
REMARK 923 INTER-LIGAND FREE ENERGY PREDICTED BY IDOCK:   -2.82 KCAL/MOL
REMARK 924 INTRA-LIGAND FREE ENERGY PREDICTED BY IDOCK:   -0.25 KCAL/MOL
REMARK 927      BINDING AFFINITY PREDICTED BY RF-SCORE:    0.00 PKD
ROOT
HETATM    1  C   UNL     1      -6.162   5.570  69.397  1.00  0.00    -0.029 C  
HETATM    2  C   UNL     1      -7.047   4.333  69.353  1.00  0.00    -0.050 C  
ENDROOT
BRANCH   2   3
HETATM    3  C   UNL     1      -8.152   4.511  68.319  1.00  0.00    -0.083 C  
BRANCH   3   4
HETATM    4  O   UNL     1      -7.798   5.488  67.329  1.00  0.00    -0.099 OA 
BRANCH   4   5
HETATM    5  C   UNL     1      -8.798   6.334  66.938  1.00  0.00    -0.115 C  
HETATM    6  O   UNL     1      -9.754   6.024  66.237  1.00  0.00    -0.151 OA 
BRANCH   5   7
HETATM    7  C   UNL     1      -8.593   7.710  67.552  1.00  0.00    -0.119 C  
BRANCH   7   8
HETATM    8  N   UNL     1      -9.553   7.987  68.638  1.00  0.00    -0.147 NA 
HETATM    9  C   UNL     1     -10.176   9.224  68.747  1.00  0.00    -0.205 C  
HETATM   10  C   UNL     1     -11.037   9.570  69.717  1.00  0.00    -0.191 C  
HETATM   11  I   UNL     1     -11.911  11.415  69.792  1.00  0.00    -0.428 I  
HETATM   12  C   UNL     1     -11.346   8.544  70.774  1.00  0.00    -0.266 C  
HETATM   13  C   UNL     1     -10.657   7.216  70.652  1.00  0.00    -0.225 C  
HETATM   14  O   UNL     1     -12.129   8.783  71.692  1.00  0.00    -0.298 OA 
HETATM   15  I   UNL     1     -10.989   5.754  72.043  1.00  0.00    -0.252 I  
HETATM   16  C   UNL     1      -9.826   7.036  69.613  1.00  0.00    -0.164 C  
ENDBRANCH   7   8
ENDBRANCH   5   7
ENDBRANCH   4   5
ENDBRANCH   3   4
ENDBRANCH   2   3
TORSDOF 5
ENDMDL
MODEL      305
REMARK 921   NORMALIZED FREE ENERGY PREDICTED BY IDOCK:   -2.12 KCAL/MOL
REMARK 922        TOTAL FREE ENERGY PREDICTED BY IDOCK:   -3.05 KCAL/MOL
REMARK 923 INTER-LIGAND FREE ENERGY PREDICTED BY IDOCK:   -2.87 KCAL/MOL
REMARK 924 INTRA-LIGAND FREE ENERGY PREDICTED BY IDOCK:   -0.18 KCAL/MOL
REMARK 927      BINDING AFFINITY PREDICTED BY RF-SCORE:    0.00 PKD
ROOT
HETATM    1  C   UNL     1     -11.506  12.687  63.575  1.00  0.00    -0.557 C  
HETATM    2  C   UNL     1     -10.406  12.386  64.583  1.00  0.00    -0.332 C  
ENDROOT
BRANCH   2   3
HETATM    3  C   UNL     1     -10.884  11.349  65.592  1.00  0.00    -0.218 C  
BRANCH   3   4
HETATM    4  O   UNL     1     -10.445  10.029  65.242  1.00  0.00    -0.139 OA 
BRANCH   4   5
HETATM    5  C   UNL     1      -9.135   9.912  64.868  1.00  0.00    -0.224 C  
HETATM    6  O   UNL     1      -8.722   9.944  63.715  1.00  0.00    -0.176 OA 
BRANCH   5   7
HETATM    7  C   UNL     1      -8.245   9.804  66.096  1.00  0.00    -0.120 C  
BRANCH   7   8
HETATM    8  N   UNL     1      -8.386   8.504  66.779  1.00  0.00    -0.108 NA 
HETATM    9  C   UNL     1      -7.965   7.326  66.172  1.00  0.00    -0.112 C  
HETATM   10  C   UNL     1      -8.081   6.100  66.707  1.00  0.00    -0.109 C  
HETATM   11  I   UNL     1      -7.427   4.423  65.742  1.00  0.00    -0.083 I  
HETATM   12  C   UNL     1      -8.724   5.989  68.064  1.00  0.00    -0.112 C  
HETATM   13  C   UNL     1      -9.186   7.268  68.702  1.00  0.00    -0.136 C  
HETATM   14  O   UNL     1      -8.862   4.903  68.623  1.00  0.00    -0.096 OA 
HETATM   15  I   UNL     1     -10.090   7.232  70.537  1.00  0.00    -0.207 I  
HETATM   16  C   UNL     1      -8.988   8.411  68.027  1.00  0.00    -0.138 C  
ENDBRANCH   7   8
ENDBRANCH   5   7
ENDBRANCH   4   5
ENDBRANCH   3   4
ENDBRANCH   2   3
TORSDOF 5
ENDMDL
MODEL      306
REMARK 921   NORMALIZED FREE ENERGY PREDICTED BY IDOCK:   -2.08 KCAL/MOL
REMARK 922        TOTAL FREE ENERGY PREDICTED BY IDOCK:   -3.01 KCAL/MOL
REMARK 923 INTER-LIGAND FREE ENERGY PREDICTED BY IDOCK:   -2.65 KCAL/MOL
REMARK 924 INTRA-LIGAND FREE ENERGY PREDICTED BY IDOCK:   -0.35 KCAL/MOL
REMARK 927      BINDING AFFINITY PREDICTED BY RF-SCORE:    0.00 PKD
ROOT
HETATM    1  C   UNL     1      -6.270  11.566  69.743  1.00  0.00    -0.138 C  
HETATM    2  C   UNL     1      -7.426  10.837  69.074  1.00  0.00    -0.118 C  
ENDROOT
BRANCH   2   3
HETATM    3  C   UNL     1      -7.955   9.738  69.988  1.00  0.00    -0.184 C  
BRANCH   3   4
HETATM    4  O   UNL     1      -9.312   9.395  69.673  1.00  0.00    -0.166 OA 
BRANCH   4   5
HETATM    5  C   UNL     1      -9.495   8.211  69.015  1.00  0.00    -0.155 C  
HETATM    6  O   UNL     1     -10.432   7.951  68.271  1.00  0.00    -0.202 OA 
BRANCH   5   7
HETATM    7  C   UNL     1      -8.327   7.275  69.284  1.00  0.00    -0.132 C  
BRANCH   7   8
HETATM    8  N   UNL     1      -8.749   6.027  69.949  1.00  0.00    -0.130 NA 
HETATM    9  C   UNL     1      -8.688   4.806  69.288  1.00  0.00    -0.083 C  
HETATM   10  C   UNL     1      -9.078   3.630  69.806  1.00  0.00    -0.124 C  
HETATM   11  I   UNL     1      -8.944   1.880  68.760  1.00  0.00    -0.212 I  
HETATM   12  C   UNL     1      -9.632   3.634  71.206  1.00  0.00    -0.174 C  
HETATM   13  C   UNL     1      -9.704   4.961  71.903  1.00  0.00    -0.163 C  
HETATM   14  O   UNL     1     -10.005   2.597  71.751  1.00  0.00    -0.161 OA 
HETATM   15  I   UNL     1     -10.458   5.085  73.800  1.00  0.00    -0.367 I  
HETATM   16  C   UNL     1      -9.267   6.042  71.238  1.00  0.00    -0.146 C  
ENDBRANCH   7   8
ENDBRANCH   5   7
ENDBRANCH   4   5
ENDBRANCH   3   4
ENDBRANCH   2   3
TORSDOF 5
ENDMDL
MODEL      307
REMARK 921   NORMALIZED FREE ENERGY PREDICTED BY IDOCK:   -2.08 KCAL/MOL
REMARK 922        TOTAL FREE ENERGY PREDICTED BY IDOCK:   -3.00 KCAL/MOL
REMARK 923 INTER-LIGAND FREE ENERGY PREDICTED BY IDOCK:   -2.98 KCAL/MOL
REMARK 924 INTRA-LIGAND FREE ENERGY PREDICTED BY IDOCK:   -0.02 KCAL/MOL
REMARK 927      BINDING AFFINITY PREDICTED BY RF-SCORE:    0.00 PKD
ROOT
HETATM    1  C   UNL     1      -7.139   9.808  69.685  1.00  0.00    -0.083 C  
HETATM    2  C   UNL     1      -7.241   9.263  68.268  1.00  0.00    -0.077 C  
ENDROOT
BRANCH   2   3
HETATM    3  C   UNL     1      -8.022   7.955  68.262  1.00  0.00    -0.122 C  
BRANCH   3   4
HETATM    4  O   UNL     1      -8.586   7.681  66.971  1.00  0.00    -0.118 OA 
BRANCH   4   5
HETATM    5  C   UNL     1      -8.793   8.765  66.165  1.00  0.00    -0.168 C  
HETATM    6  O   UNL     1      -7.947   9.285  65.447  1.00  0.00    -0.104 OA 
BRANCH   5   7
HETATM    7  C   UNL     1     -10.249   9.198  66.230  1.00  0.00    -0.187 C  
BRANCH   7   8
HETATM    8  N   UNL     1     -10.465  10.291  67.197  1.00  0.00    -0.241 NA 
HETATM    9  C   UNL     1     -11.232  10.097  68.340  1.00  0.00    -0.177 C  
HETATM   10  C   UNL     1     -11.503  11.040  69.256  1.00  0.00    -0.300 C  
HETATM   11  I   UNL     1     -12.637  10.660  70.912  1.00  0.00    -0.505 I  
HETATM   12  C   UNL     1     -10.942  12.418  69.024  1.00  0.00    -0.197 C  
HETATM   13  C   UNL     1     -10.127  12.618  67.779  1.00  0.00    -0.220 C  
HETATM   14  O   UNL     1     -11.142  13.335  69.819  1.00  0.00    -0.044 OA 
HETATM   15  I   UNL     1      -9.332  14.455  67.356  1.00  0.00    -0.234 I  
HETATM   16  C   UNL     1      -9.950  11.561  66.971  1.00  0.00    -0.200 C  
ENDBRANCH   7   8
ENDBRANCH   5   7
ENDBRANCH   4   5
ENDBRANCH   3   4
ENDBRANCH   2   3
TORSDOF 5
ENDMDL
MODEL      308
REMARK 921   NORMALIZED FREE ENERGY PREDICTED BY IDOCK:   -2.08 KCAL/MOL
REMARK 922        TOTAL FREE ENERGY PREDICTED BY IDOCK:   -3.00 KCAL/MOL
REMARK 923 INTER-LIGAND FREE ENERGY PREDICTED BY IDOCK:   -2.59 KCAL/MOL
REMARK 924 INTRA-LIGAND FREE ENERGY PREDICTED BY IDOCK:   -0.40 KCAL/MOL
REMARK 927      BINDING AFFINITY PREDICTED BY RF-SCORE:    0.00 PKD
ROOT
HETATM    1  C   UNL     1     -10.486   8.283  67.430  1.00  0.00    -0.353 C  
HETATM    2  C   UNL     1      -9.306   7.920  66.540  1.00  0.00    -0.255 C  
ENDROOT
BRANCH   2   3
HETATM    3  C   UNL     1      -8.258   7.157  67.341  1.00  0.00    -0.116 C  
BRANCH   3   4
HETATM    4  O   UNL     1      -7.559   8.016  68.252  1.00  0.00    -0.104 OA 
BRANCH   4   5
HETATM    5  C   UNL     1      -6.805   7.391  69.207  1.00  0.00    -0.053 C  
HETATM    6  O   UNL     1      -5.860   7.893  69.803  1.00  0.00    -0.023 OA 
BRANCH   5   7
HETATM    7  C   UNL     1      -7.350   5.998  69.478  1.00  0.00    -0.076 C  
BRANCH   7   8
HETATM    8  N   UNL     1      -8.157   5.941  70.711  1.00  0.00    -0.117 NA 
HETATM    9  C   UNL     1      -9.314   6.699  70.847  1.00  0.00    -0.157 C  
HETATM   10  C   UNL     1     -10.090   6.730  71.942  1.00  0.00    -0.180 C  
HETATM   11  I   UNL     1     -11.780   7.873  72.049  1.00  0.00    -0.446 I  
HETATM   12  C   UNL     1      -9.673   5.886  73.117  1.00  0.00    -0.158 C  
HETATM   13  C   UNL     1      -8.415   5.083  72.962  1.00  0.00    -0.111 C  
HETATM   14  O   UNL     1     -10.334   5.857  74.154  1.00  0.00    -0.262 OA 
HETATM   15  I   UNL     1      -7.745   3.916  74.502  1.00  0.00    -0.075 I  
HETATM   16  C   UNL     1      -7.760   5.166  71.793  1.00  0.00    -0.108 C  
ENDBRANCH   7   8
ENDBRANCH   5   7
ENDBRANCH   4   5
ENDBRANCH   3   4
ENDBRANCH   2   3
TORSDOF 5
ENDMDL
MODEL      309
REMARK 921   NORMALIZED FREE ENERGY PREDICTED BY IDOCK:   -2.07 KCAL/MOL
REMARK 922        TOTAL FREE ENERGY PREDICTED BY IDOCK:   -2.99 KCAL/MOL
REMARK 923 INTER-LIGAND FREE ENERGY PREDICTED BY IDOCK:   -2.65 KCAL/MOL
REMARK 924 INTRA-LIGAND FREE ENERGY PREDICTED BY IDOCK:   -0.34 KCAL/MOL
REMARK 927      BINDING AFFINITY PREDICTED BY RF-SCORE:    0.00 PKD
ROOT
HETATM    1  C   UNL     1      -7.402   9.929  70.213  1.00  0.00    -0.166 C  
HETATM    2  C   UNL     1      -7.217   8.794  69.215  1.00  0.00    -0.062 C  
ENDROOT
BRANCH   2   3
HETATM    3  C   UNL     1      -8.486   7.956  69.129  1.00  0.00    -0.137 C  
BRANCH   3   4
HETATM    4  O   UNL     1      -8.785   7.586  67.775  1.00  0.00    -0.123 OA 
BRANCH   4   5
HETATM    5  C   UNL     1     -10.111   7.494  67.457  1.00  0.00    -0.200 C  
HETATM    6  O   UNL     1     -10.736   8.308  66.788  1.00  0.00    -0.267 OA 
BRANCH   5   7
HETATM    7  C   UNL     1     -10.693   6.197  67.997  1.00  0.00    -0.295 C  
BRANCH   7   8
HETATM    8  N   UNL     1     -10.104   5.008  67.353  1.00  0.00    -0.179 NA 
HETATM    9  C   UNL     1     -10.335   4.730  66.011  1.00  0.00    -0.293 C  
HETATM   10  C   UNL     1      -9.864   3.658  65.354  1.00  0.00    -0.085 C  
HETATM   11  I   UNL     1     -10.251   3.335  63.374  1.00  0.00    -0.253 I  
HETATM   12  C   UNL     1      -9.027   2.676  66.130  1.00  0.00    -0.137 C  
HETATM   13  C   UNL     1      -8.796   2.982  67.582  1.00  0.00    -0.134 C  
HETATM   14  O   UNL     1      -8.555   1.673  65.599  1.00  0.00    -0.098 OA 
HETATM   15  I   UNL     1      -7.690   1.706  68.736  1.00  0.00    -0.055 I  
HETATM   16  C   UNL     1      -9.340   4.103  68.079  1.00  0.00    -0.162 C  
ENDBRANCH   7   8
ENDBRANCH   5   7
ENDBRANCH   4   5
ENDBRANCH   3   4
ENDBRANCH   2   3
TORSDOF 5
ENDMDL
MODEL      310
REMARK 921   NORMALIZED FREE ENERGY PREDICTED BY IDOCK:   -2.07 KCAL/MOL
REMARK 922        TOTAL FREE ENERGY PREDICTED BY IDOCK:   -2.99 KCAL/MOL
REMARK 923 INTER-LIGAND FREE ENERGY PREDICTED BY IDOCK:   -2.97 KCAL/MOL
REMARK 924 INTRA-LIGAND FREE ENERGY PREDICTED BY IDOCK:   -0.02 KCAL/MOL
REMARK 927      BINDING AFFINITY PREDICTED BY RF-SCORE:    0.00 PKD
ROOT
HETATM    1  C   UNL     1     -10.590   7.247  73.267  1.00  0.00    -0.428 C  
HETATM    2  C   UNL     1     -11.233   6.758  71.977  1.00  0.00    -0.297 C  
ENDROOT
BRANCH   2   3
HETATM    3  C   UNL     1     -10.382   7.159  70.779  1.00  0.00    -0.206 C  
BRANCH   3   4
HETATM    4  O   UNL     1     -10.865   6.567  69.565  1.00  0.00    -0.245 OA 
BRANCH   4   5
HETATM    5  C   UNL     1     -10.518   7.206  68.407  1.00  0.00    -0.197 C  
HETATM    6  O   UNL     1     -10.907   6.901  67.286  1.00  0.00    -0.309 OA 
BRANCH   5   7
HETATM    7  C   UNL     1      -9.629   8.401  68.712  1.00  0.00    -0.149 C  
BRANCH   7   8
HETATM    8  N   UNL     1      -9.080   9.018  67.490  1.00  0.00    -0.132 NA 
HETATM    9  C   UNL     1      -9.902   9.692  66.595  1.00  0.00    -0.224 C  
HETATM   10  C   UNL     1      -9.493  10.257  65.448  1.00  0.00    -0.232 C  
HETATM   11  I   UNL     1     -10.777  11.235  64.195  1.00  0.00    -0.198 I  
HETATM   12  C   UNL     1      -8.033  10.146  65.098  1.00  0.00    -0.146 C  
HETATM   13  C   UNL     1      -7.158   9.404  66.067  1.00  0.00    -0.091 C  
HETATM   14  O   UNL     1      -7.580  10.641  64.067  1.00  0.00     0.015 OA 
HETATM   15  I   UNL     1      -5.162   9.177  65.681  1.00  0.00    -0.037 I  
HETATM   16  C   UNL     1      -7.733   8.904  67.171  1.00  0.00    -0.095 C  
ENDBRANCH   7   8
ENDBRANCH   5   7
ENDBRANCH   4   5
ENDBRANCH   3   4
ENDBRANCH   2   3
TORSDOF 5
ENDMDL
MODEL      311
REMARK 921   NORMALIZED FREE ENERGY PREDICTED BY IDOCK:   -2.07 KCAL/MOL
REMARK 922        TOTAL FREE ENERGY PREDICTED BY IDOCK:   -2.99 KCAL/MOL
REMARK 923 INTER-LIGAND FREE ENERGY PREDICTED BY IDOCK:   -3.03 KCAL/MOL
REMARK 924 INTRA-LIGAND FREE ENERGY PREDICTED BY IDOCK:    0.05 KCAL/MOL
REMARK 927      BINDING AFFINITY PREDICTED BY RF-SCORE:    0.00 PKD
ROOT
HETATM    1  C   UNL     1      -7.179   8.468  72.673  1.00  0.00    -0.068 C  
HETATM    2  C   UNL     1      -8.467   7.657  72.622  1.00  0.00    -0.166 C  
ENDROOT
BRANCH   2   3
HETATM    3  C   UNL     1      -9.649   8.519  73.048  1.00  0.00    -0.025 C  
BRANCH   3   4
HETATM    4  O   UNL     1     -10.214   9.230  71.937  1.00  0.00    -0.269 OA 
BRANCH   4   5
HETATM    5  C   UNL     1     -11.166   8.562  71.219  1.00  0.00    -0.265 C  
HETATM    6  O   UNL     1     -11.078   7.404  70.831  1.00  0.00    -0.252 OA 
BRANCH   5   7
HETATM    7  C   UNL     1     -12.391   9.443  71.024  1.00  0.00    -0.258 C  
BRANCH   7   8
HETATM    8  N   UNL     1     -12.053  10.751  70.433  1.00  0.00    -0.323 NA 
HETATM    9  C   UNL     1     -12.746  11.901  70.790  1.00  0.00    -0.153 C  
HETATM   10  C   UNL     1     -12.524  13.124  70.282  1.00  0.00    -0.163 C  
HETATM   11  I   UNL     1     -13.592  14.762  70.875  1.00  0.00     0.089 I  
HETATM   12  C   UNL     1     -11.448  13.260  69.238  1.00  0.00    -0.288 C  
HETATM   13  C   UNL     1     -10.716  12.008  68.852  1.00  0.00    -0.185 C  
HETATM   14  O   UNL     1     -11.182  14.347  68.728  1.00  0.00    -0.236 OA 
HETATM   15  I   UNL     1      -9.247  12.075  67.429  1.00  0.00    -0.203 I  
HETATM   16  C   UNL     1     -11.064  10.866  69.464  1.00  0.00    -0.268 C  
ENDBRANCH   7   8
ENDBRANCH   5   7
ENDBRANCH   4   5
ENDBRANCH   3   4
ENDBRANCH   2   3
TORSDOF 5
ENDMDL
MODEL      312
REMARK 921   NORMALIZED FREE ENERGY PREDICTED BY IDOCK:   -2.06 KCAL/MOL
REMARK 922        TOTAL FREE ENERGY PREDICTED BY IDOCK:   -2.98 KCAL/MOL
REMARK 923 INTER-LIGAND FREE ENERGY PREDICTED BY IDOCK:   -2.73 KCAL/MOL
REMARK 924 INTRA-LIGAND FREE ENERGY PREDICTED BY IDOCK:   -0.25 KCAL/MOL
REMARK 927      BINDING AFFINITY PREDICTED BY RF-SCORE:    0.00 PKD
ROOT
HETATM    1  C   UNL     1      -9.610   7.249  73.861  1.00  0.00    -0.322 C  
HETATM    2  C   UNL     1     -10.802   6.759  73.050  1.00  0.00    -0.314 C  
ENDROOT
BRANCH   2   3
HETATM    3  C   UNL     1     -10.439   6.682  71.573  1.00  0.00    -0.215 C  
BRANCH   3   4
HETATM    4  O   UNL     1     -11.339   7.456  70.765  1.00  0.00    -0.269 OA 
BRANCH   4   5
HETATM    5  C   UNL     1     -10.875   8.672  70.348  1.00  0.00    -0.227 C  
HETATM    6  O   UNL     1     -10.548   9.595  71.083  1.00  0.00    -0.321 OA 
BRANCH   5   7
HETATM    7  C   UNL     1     -10.757   8.697  68.832  1.00  0.00    -0.082 C  
BRANCH   7   8
HETATM    8  N   UNL     1      -9.444   9.195  68.380  1.00  0.00    -0.142 NA 
HETATM    9  C   UNL     1      -8.411   8.318  68.072  1.00  0.00    -0.129 C  
HETATM   10  C   UNL     1      -7.179   8.684  67.683  1.00  0.00    -0.084 C  
HETATM   11  I   UNL     1      -5.723   7.321  67.244  1.00  0.00    -0.032 I  
HETATM   12  C   UNL     1      -6.891  10.158  67.579  1.00  0.00    -0.077 C  
HETATM   13  C   UNL     1      -8.011  11.095  67.927  1.00  0.00    -0.114 C  
HETATM   14  O   UNL     1      -5.789  10.574  67.225  1.00  0.00    -0.048 OA 
HETATM   15  I   UNL     1      -7.723  13.118  67.840  1.00  0.00    -0.199 I  
HETATM   16  C   UNL     1      -9.184  10.557  68.296  1.00  0.00    -0.152 C  
ENDBRANCH   7   8
ENDBRANCH   5   7
ENDBRANCH   4   5
ENDBRANCH   3   4
ENDBRANCH   2   3
TORSDOF 5
ENDMDL
MODEL      313
REMARK 921   NORMALIZED FREE ENERGY PREDICTED BY IDOCK:   -2.06 KCAL/MOL
REMARK 922        TOTAL FREE ENERGY PREDICTED BY IDOCK:   -2.97 KCAL/MOL
REMARK 923 INTER-LIGAND FREE ENERGY PREDICTED BY IDOCK:   -2.74 KCAL/MOL
REMARK 924 INTRA-LIGAND FREE ENERGY PREDICTED BY IDOCK:   -0.23 KCAL/MOL
REMARK 927      BINDING AFFINITY PREDICTED BY RF-SCORE:    0.00 PKD
ROOT
HETATM    1  C   UNL     1     -10.439  18.986  67.159  1.00  0.00    -0.522 C  
HETATM    2  C   UNL     1     -10.028  18.559  68.560  1.00  0.00    -0.419 C  
ENDROOT
BRANCH   2   3
HETATM    3  C   UNL     1      -9.472  17.141  68.538  1.00  0.00    -0.282 C  
BRANCH   3   4
HETATM    4  O   UNL     1      -8.368  17.019  67.630  1.00  0.00    -0.187 OA 
BRANCH   4   5
HETATM    5  C   UNL     1      -7.813  15.774  67.524  1.00  0.00    -0.159 C  
HETATM    6  O   UNL     1      -6.722  15.525  67.026  1.00  0.00    -0.266 OA 
BRANCH   5   7
HETATM    7  C   UNL     1      -8.716  14.739  68.176  1.00  0.00    -0.168 C  
BRANCH   7   8
HETATM    8  N   UNL     1      -8.078  13.412  68.261  1.00  0.00    -0.147 NA 
HETATM    9  C   UNL     1      -7.181  13.111  69.280  1.00  0.00     0.155 C  
HETATM   10  C   UNL     1      -6.535  11.942  69.416  1.00  0.00    -0.119 C  
HETATM   11  I   UNL     1      -5.237  11.588  70.954  1.00  0.00    -0.045 I  
HETATM   12  C   UNL     1      -6.792  10.878  68.383  1.00  0.00    -0.068 C  
HETATM   13  C   UNL     1      -7.752  11.221  67.281  1.00  0.00    -0.138 C  
HETATM   14  O   UNL     1      -6.242   9.780  68.442  1.00  0.00    -0.050 OA 
HETATM   15  I   UNL     1      -8.161   9.855  65.814  1.00  0.00    -0.145 I  
HETATM   16  C   UNL     1      -8.315  12.439  67.299  1.00  0.00    -0.184 C  
ENDBRANCH   7   8
ENDBRANCH   5   7
ENDBRANCH   4   5
ENDBRANCH   3   4
ENDBRANCH   2   3
TORSDOF 5
ENDMDL
MODEL      314
REMARK 921   NORMALIZED FREE ENERGY PREDICTED BY IDOCK:   -2.05 KCAL/MOL
REMARK 922        TOTAL FREE ENERGY PREDICTED BY IDOCK:   -2.96 KCAL/MOL
REMARK 923 INTER-LIGAND FREE ENERGY PREDICTED BY IDOCK:   -2.76 KCAL/MOL
REMARK 924 INTRA-LIGAND FREE ENERGY PREDICTED BY IDOCK:   -0.20 KCAL/MOL
REMARK 927      BINDING AFFINITY PREDICTED BY RF-SCORE:    0.00 PKD
ROOT
HETATM    1  C   UNL     1      -6.265   9.776  68.972  1.00  0.00    -0.041 C  
HETATM    2  C   UNL     1      -6.137   9.156  67.588  1.00  0.00    -0.054 C  
ENDROOT
BRANCH   2   3
HETATM    3  C   UNL     1      -6.542   7.688  67.628  1.00  0.00    -0.062 C  
BRANCH   3   4
HETATM    4  O   UNL     1      -7.198   7.286  66.416  1.00  0.00    -0.075 OA 
BRANCH   4   5
HETATM    5  C   UNL     1      -8.438   7.818  66.201  1.00  0.00    -0.138 C  
HETATM    6  O   UNL     1      -8.683   8.769  65.467  1.00  0.00    -0.166 OA 
BRANCH   5   7
HETATM    7  C   UNL     1      -9.491   7.019  66.951  1.00  0.00    -0.160 C  
BRANCH   7   8
HETATM    8  N   UNL     1      -9.793   7.593  68.276  1.00  0.00    -0.161 NA 
HETATM    9  C   UNL     1      -9.465   6.915  69.444  1.00  0.00    -0.148 C  
HETATM   10  C   UNL     1      -9.727   7.349  70.687  1.00  0.00    -0.175 C  
HETATM   11  I   UNL     1      -9.200   6.284  72.348  1.00  0.00    -0.142 I  
HETATM   12  C   UNL     1     -10.439   8.668  70.829  1.00  0.00    -0.204 C  
HETATM   13  C   UNL     1     -10.799   9.384  69.559  1.00  0.00    -0.213 C  
HETATM   14  O   UNL     1     -10.711   9.135  71.933  1.00  0.00    -0.357 OA 
HETATM   15  I   UNL     1     -11.785  11.174  69.635  1.00  0.00    -0.486 I  
HETATM   16  C   UNL     1     -10.457   8.807  68.397  1.00  0.00    -0.176 C  
ENDBRANCH   7   8
ENDBRANCH   5   7
ENDBRANCH   4   5
ENDBRANCH   3   4
ENDBRANCH   2   3
TORSDOF 5
ENDMDL
MODEL      315
REMARK 921   NORMALIZED FREE ENERGY PREDICTED BY IDOCK:   -2.05 KCAL/MOL
REMARK 922        TOTAL FREE ENERGY PREDICTED BY IDOCK:   -2.96 KCAL/MOL
REMARK 923 INTER-LIGAND FREE ENERGY PREDICTED BY IDOCK:   -2.76 KCAL/MOL
REMARK 924 INTRA-LIGAND FREE ENERGY PREDICTED BY IDOCK:   -0.20 KCAL/MOL
REMARK 927      BINDING AFFINITY PREDICTED BY RF-SCORE:    0.00 PKD
ROOT
HETATM    1  C   UNL     1     -11.924  13.082  66.897  1.00  0.00    -0.415 C  
HETATM    2  C   UNL     1     -11.482  12.590  68.268  1.00  0.00    -0.355 C  
ENDROOT
BRANCH   2   3
HETATM    3  C   UNL     1     -10.576  11.373  68.124  1.00  0.00    -0.189 C  
BRANCH   3   4
HETATM    4  O   UNL     1     -10.983  10.537  67.031  1.00  0.00    -0.257 OA 
BRANCH   4   5
HETATM    5  C   UNL     1     -10.034  10.291  66.078  1.00  0.00    -0.245 C  
HETATM    6  O   UNL     1     -10.253  10.138  64.883  1.00  0.00    -0.300 OA 
BRANCH   5   7
HETATM    7  C   UNL     1      -8.647  10.302  66.703  1.00  0.00    -0.127 C  
BRANCH   7   8
HETATM    8  N   UNL     1      -8.238   8.968  67.183  1.00  0.00    -0.109 NA 
HETATM    9  C   UNL     1      -8.487   7.827  66.430  1.00  0.00    -0.136 C  
HETATM   10  C   UNL     1      -8.176   6.575  66.803  1.00  0.00    -0.110 C  
HETATM   11  I   UNL     1      -8.577   4.955  65.625  1.00  0.00    -0.145 I  
HETATM   12  C   UNL     1      -7.513   6.391  68.142  1.00  0.00    -0.094 C  
HETATM   13  C   UNL     1      -7.261   7.631  68.951  1.00  0.00    -0.081 C  
HETATM   14  O   UNL     1      -7.193   5.277  68.553  1.00  0.00    -0.061 OA 
HETATM   15  I   UNL     1      -6.384   7.495  70.793  1.00  0.00    -0.038 I  
HETATM   16  C   UNL     1      -7.634   8.808  68.423  1.00  0.00    -0.095 C  
ENDBRANCH   7   8
ENDBRANCH   5   7
ENDBRANCH   4   5
ENDBRANCH   3   4
ENDBRANCH   2   3
TORSDOF 5
ENDMDL
MODEL      316
REMARK 921   NORMALIZED FREE ENERGY PREDICTED BY IDOCK:   -2.03 KCAL/MOL
REMARK 922        TOTAL FREE ENERGY PREDICTED BY IDOCK:   -2.94 KCAL/MOL
REMARK 923 INTER-LIGAND FREE ENERGY PREDICTED BY IDOCK:   -3.17 KCAL/MOL
REMARK 924 INTRA-LIGAND FREE ENERGY PREDICTED BY IDOCK:    0.23 KCAL/MOL
REMARK 927      BINDING AFFINITY PREDICTED BY RF-SCORE:    0.00 PKD
ROOT
HETATM    1  C   UNL     1     -12.807  13.637  65.563  1.00  0.00    -0.443 C  
HETATM    2  C   UNL     1     -11.775  13.766  66.675  1.00  0.00    -0.421 C  
ENDROOT
BRANCH   2   3
HETATM    3  C   UNL     1     -11.568  12.420  67.359  1.00  0.00    -0.365 C  
BRANCH   3   4
HETATM    4  O   UNL     1     -11.810  11.327  66.463  1.00  0.00    -0.251 OA 
BRANCH   4   5
HETATM    5  C   UNL     1     -10.931  11.197  65.424  1.00  0.00    -0.081 C  
HETATM    6  O   UNL     1     -11.240  11.131  64.240  1.00  0.00    -0.246 OA 
BRANCH   5   7
HETATM    7  C   UNL     1      -9.501  11.215  65.939  1.00  0.00    -0.215 C  
BRANCH   7   8
HETATM    8  N   UNL     1      -8.816   9.925  65.736  1.00  0.00    -0.141 NA 
HETATM    9  C   UNL     1      -7.618   9.851  65.034  1.00  0.00    -0.134 C  
HETATM   10  C   UNL     1      -6.944   8.719  64.779  1.00  0.00    -0.073 C  
HETATM   11  I   UNL     1      -5.184   8.708  63.742  1.00  0.00    -0.058 I  
HETATM   12  C   UNL     1      -7.532   7.428  65.283  1.00  0.00    -0.085 C  
HETATM   13  C   UNL     1      -8.832   7.520  66.028  1.00  0.00    -0.150 C  
HETATM   14  O   UNL     1      -6.972   6.349  65.094  1.00  0.00    -0.049 OA 
HETATM   15  I   UNL     1      -9.730   5.827  66.741  1.00  0.00    -0.224 I  
HETATM   16  C   UNL     1      -9.370   8.738  66.198  1.00  0.00    -0.234 C  
ENDBRANCH   7   8
ENDBRANCH   5   7
ENDBRANCH   4   5
ENDBRANCH   3   4
ENDBRANCH   2   3
TORSDOF 5
ENDMDL
MODEL      317
REMARK 921   NORMALIZED FREE ENERGY PREDICTED BY IDOCK:   -2.00 KCAL/MOL
REMARK 922        TOTAL FREE ENERGY PREDICTED BY IDOCK:   -2.90 KCAL/MOL
REMARK 923 INTER-LIGAND FREE ENERGY PREDICTED BY IDOCK:   -2.47 KCAL/MOL
REMARK 924 INTRA-LIGAND FREE ENERGY PREDICTED BY IDOCK:   -0.43 KCAL/MOL
REMARK 927      BINDING AFFINITY PREDICTED BY RF-SCORE:    0.00 PKD
ROOT
HETATM    1  C   UNL     1     -10.471   8.421  67.295  1.00  0.00    -0.373 C  
HETATM    2  C   UNL     1      -9.435   8.627  66.199  1.00  0.00    -0.308 C  
ENDROOT
BRANCH   2   3
HETATM    3  C   UNL     1      -8.208   7.765  66.465  1.00  0.00    -0.124 C  
BRANCH   3   4
HETATM    4  O   UNL     1      -7.560   8.129  67.693  1.00  0.00    -0.095 OA 
BRANCH   4   5
HETATM    5  C   UNL     1      -6.850   7.139  68.313  1.00  0.00    -0.074 C  
HETATM    6  O   UNL     1      -5.817   7.303  68.951  1.00  0.00    -0.018 OA 
BRANCH   5   7
HETATM    7  C   UNL     1      -7.563   5.805  68.159  1.00  0.00    -0.085 C  
BRANCH   7   8
HETATM    8  N   UNL     1      -8.327   5.434  69.365  1.00  0.00    -0.096 NA 
HETATM    9  C   UNL     1      -7.927   4.375  70.171  1.00  0.00    -0.059 C  
HETATM   10  C   UNL     1      -8.576   3.952  71.267  1.00  0.00    -0.084 C  
HETATM   11  I   UNL     1      -7.908   2.385  72.395  1.00  0.00    -0.055 I  
HETATM   12  C   UNL     1      -9.840   4.675  71.651  1.00  0.00    -0.187 C  
HETATM   13  C   UNL     1     -10.268   5.809  70.765  1.00  0.00    -0.219 C  
HETATM   14  O   UNL     1     -10.489   4.351  72.644  1.00  0.00    -0.185 OA 
HETATM   15  I   UNL     1     -11.979   6.848  71.182  1.00  0.00    -0.358 I  
HETATM   16  C   UNL     1      -9.496   6.102  69.707  1.00  0.00    -0.150 C  
ENDBRANCH   7   8
ENDBRANCH   5   7
ENDBRANCH   4   5
ENDBRANCH   3   4
ENDBRANCH   2   3
TORSDOF 5
ENDMDL
MODEL      318
REMARK 921   NORMALIZED FREE ENERGY PREDICTED BY IDOCK:   -1.98 KCAL/MOL
REMARK 922        TOTAL FREE ENERGY PREDICTED BY IDOCK:   -2.88 KCAL/MOL
REMARK 923 INTER-LIGAND FREE ENERGY PREDICTED BY IDOCK:   -2.51 KCAL/MOL
REMARK 924 INTRA-LIGAND FREE ENERGY PREDICTED BY IDOCK:   -0.37 KCAL/MOL
REMARK 927      BINDING AFFINITY PREDICTED BY RF-SCORE:    0.00 PKD
ROOT
HETATM    1  C   UNL     1     -10.577   8.688  67.390  1.00  0.00    -0.298 C  
HETATM    2  C   UNL     1      -9.995   9.909  66.692  1.00  0.00    -0.277 C  
ENDROOT
BRANCH   2   3
HETATM    3  C   UNL     1      -8.623  10.240  67.266  1.00  0.00    -0.125 C  
BRANCH   3   4
HETATM    4  O   UNL     1      -8.700  10.588  68.656  1.00  0.00    -0.128 OA 
BRANCH   4   5
HETATM    5  C   UNL     1      -7.615  10.257  69.418  1.00  0.00    -0.137 C  
HETATM    6  O   UNL     1      -7.132  10.953  70.303  1.00  0.00    -0.170 OA 
BRANCH   5   7
HETATM    7  C   UNL     1      -7.127   8.862  69.060  1.00  0.00    -0.064 C  
BRANCH   7   8
HETATM    8  N   UNL     1      -7.764   7.816  69.882  1.00  0.00    -0.094 NA 
HETATM    9  C   UNL     1      -7.969   8.001  71.245  1.00  0.00    -0.093 C  
HETATM   10  C   UNL     1      -8.513   7.094  72.071  1.00  0.00    -0.107 C  
HETATM   11  I   UNL     1      -8.782   7.457  74.064  1.00  0.00    -0.268 I  
HETATM   12  C   UNL     1      -8.926   5.771  71.481  1.00  0.00    -0.140 C  
HETATM   13  C   UNL     1      -8.687   5.580  70.012  1.00  0.00    -0.128 C  
HETATM   14  O   UNL     1      -9.436   4.891  72.172  1.00  0.00    -0.140 OA 
HETATM   15  I   UNL     1      -9.192   3.815  69.110  1.00  0.00    -0.223 I  
HETATM   16  C   UNL     1      -8.134   6.596  69.331  1.00  0.00    -0.119 C  
ENDBRANCH   7   8
ENDBRANCH   5   7
ENDBRANCH   4   5
ENDBRANCH   3   4
ENDBRANCH   2   3
TORSDOF 5
ENDMDL
MODEL      319
REMARK 921   NORMALIZED FREE ENERGY PREDICTED BY IDOCK:   -1.98 KCAL/MOL
REMARK 922        TOTAL FREE ENERGY PREDICTED BY IDOCK:   -2.87 KCAL/MOL
REMARK 923 INTER-LIGAND FREE ENERGY PREDICTED BY IDOCK:   -2.67 KCAL/MOL
REMARK 924 INTRA-LIGAND FREE ENERGY PREDICTED BY IDOCK:   -0.19 KCAL/MOL
REMARK 927      BINDING AFFINITY PREDICTED BY RF-SCORE:    0.00 PKD
ROOT
HETATM    1  C   UNL     1     -10.676   7.316  73.341  1.00  0.00    -0.415 C  
HETATM    2  C   UNL     1     -11.300   6.842  72.036  1.00  0.00    -0.301 C  
ENDROOT
BRANCH   2   3
HETATM    3  C   UNL     1     -10.396   7.195  70.861  1.00  0.00    -0.201 C  
BRANCH   3   4
HETATM    4  O   UNL     1     -11.098   7.948  69.861  1.00  0.00    -0.222 OA 
BRANCH   4   5
HETATM    5  C   UNL     1     -10.329   8.748  69.063  1.00  0.00    -0.213 C  
HETATM    6  O   UNL     1     -10.743   9.423  68.128  1.00  0.00    -0.224 OA 
BRANCH   5   7
HETATM    7  C   UNL     1      -8.886   8.738  69.542  1.00  0.00    -0.144 C  
BRANCH   7   8
HETATM    8  N   UNL     1      -7.979   9.431  68.608  1.00  0.00    -0.092 NA 
HETATM    9  C   UNL     1      -7.846  10.814  68.631  1.00  0.00    -0.122 C  
HETATM   10  C   UNL     1      -7.068  11.527  67.801  1.00  0.00    -0.079 C  
HETATM   11  I   UNL     1      -6.930  13.562  67.914  1.00  0.00    -0.185 I  
HETATM   12  C   UNL     1      -6.286  10.772  66.758  1.00  0.00    -0.088 C  
HETATM   13  C   UNL     1      -6.450   9.280  66.736  1.00  0.00    -0.067 C  
HETATM   14  O   UNL     1      -5.548  11.353  65.964  1.00  0.00    -0.204 OA 
HETATM   15  I   UNL     1      -5.449   8.158  65.349  1.00  0.00    -0.036 I  
HETATM   16  C   UNL     1      -7.268   8.727  67.644  1.00  0.00    -0.080 C  
ENDBRANCH   7   8
ENDBRANCH   5   7
ENDBRANCH   4   5
ENDBRANCH   3   4
ENDBRANCH   2   3
TORSDOF 5
ENDMDL
MODEL      320
REMARK 921   NORMALIZED FREE ENERGY PREDICTED BY IDOCK:   -1.97 KCAL/MOL
REMARK 922        TOTAL FREE ENERGY PREDICTED BY IDOCK:   -2.86 KCAL/MOL
REMARK 923 INTER-LIGAND FREE ENERGY PREDICTED BY IDOCK:   -2.52 KCAL/MOL
REMARK 924 INTRA-LIGAND FREE ENERGY PREDICTED BY IDOCK:   -0.34 KCAL/MOL
REMARK 927      BINDING AFFINITY PREDICTED BY RF-SCORE:    0.00 PKD
ROOT
HETATM    1  C   UNL     1      -9.096  16.891  67.295  1.00  0.00    -0.225 C  
HETATM    2  C   UNL     1      -7.658  17.364  67.135  1.00  0.00    -0.226 C  
ENDROOT
BRANCH   2   3
HETATM    3  C   UNL     1      -6.696  16.327  67.703  1.00  0.00    -0.145 C  
BRANCH   3   4
HETATM    4  O   UNL     1      -7.215  15.718  68.893  1.00  0.00    -0.127 OA 
BRANCH   4   5
HETATM    5  C   UNL     1      -6.473  14.697  69.418  1.00  0.00    -0.132 C  
HETATM    6  O   UNL     1      -6.175  14.573  70.600  1.00  0.00    -0.190 OA 
BRANCH   5   7
HETATM    7  C   UNL     1      -6.122  13.692  68.333  1.00  0.00    -0.096 C  
BRANCH   7   8
HETATM    8  N   UNL     1      -7.051  12.547  68.307  1.00  0.00    -0.094 NA 
HETATM    9  C   UNL     1      -6.975  11.538  69.260  1.00  0.00    -0.098 C  
HETATM   10  C   UNL     1      -7.759  10.450  69.295  1.00  0.00    -0.140 C  
HETATM   11  I   UNL     1      -7.577   9.020  70.742  1.00  0.00    -0.121 I  
HETATM   12  C   UNL     1      -8.797  10.303  68.214  1.00  0.00    -0.126 C  
HETATM   13  C   UNL     1      -8.861  11.393  67.183  1.00  0.00    -0.156 C  
HETATM   14  O   UNL     1      -9.557   9.337  68.180  1.00  0.00    -0.141 OA 
HETATM   15  I   UNL     1     -10.221  11.286  65.659  1.00  0.00    -0.325 I  
HETATM   16  C   UNL     1      -8.000  12.416  67.301  1.00  0.00    -0.178 C  
ENDBRANCH   7   8
ENDBRANCH   5   7
ENDBRANCH   4   5
ENDBRANCH   3   4
ENDBRANCH   2   3
TORSDOF 5
ENDMDL
MODEL      321
REMARK 921   NORMALIZED FREE ENERGY PREDICTED BY IDOCK:   -1.90 KCAL/MOL
REMARK 922        TOTAL FREE ENERGY PREDICTED BY IDOCK:   -2.76 KCAL/MOL
REMARK 923 INTER-LIGAND FREE ENERGY PREDICTED BY IDOCK:   -2.77 KCAL/MOL
REMARK 924 INTRA-LIGAND FREE ENERGY PREDICTED BY IDOCK:    0.01 KCAL/MOL
REMARK 927      BINDING AFFINITY PREDICTED BY RF-SCORE:    0.00 PKD
ROOT
HETATM    1  C   UNL     1     -11.460   9.544  71.447  1.00  0.00    -0.462 C  
HETATM    2  C   UNL     1     -11.657   8.036  71.390  1.00  0.00    -0.301 C  
ENDROOT
BRANCH   2   3
HETATM    3  C   UNL     1     -10.329   7.340  71.119  1.00  0.00    -0.198 C  
BRANCH   3   4
HETATM    4  O   UNL     1     -10.437   5.918  71.269  1.00  0.00    -0.215 OA 
BRANCH   4   5
HETATM    5  C   UNL     1      -9.687   5.166  70.408  1.00  0.00    -0.202 C  
HETATM    6  O   UNL     1      -9.990   4.055  69.989  1.00  0.00    -0.190 OA 
BRANCH   5   7
HETATM    7  C   UNL     1      -8.444   5.933  69.985  1.00  0.00    -0.126 C  
BRANCH   7   8
HETATM    8  N   UNL     1      -8.348   6.083  68.521  1.00  0.00    -0.113 NA 
HETATM    9  C   UNL     1      -8.372   7.338  67.924  1.00  0.00    -0.119 C  
HETATM   10  C   UNL     1      -8.319   7.563  66.602  1.00  0.00    -0.127 C  
HETATM   11  I   UNL     1      -8.355   9.448  65.815  1.00  0.00    -0.162 I  
HETATM   12  C   UNL     1      -8.236   6.366  65.693  1.00  0.00    -0.140 C  
HETATM   13  C   UNL     1      -8.223   5.016  66.350  1.00  0.00    -0.108 C  
HETATM   14  O   UNL     1      -8.179   6.490  64.471  1.00  0.00    -0.111 OA 
HETATM   15  I   UNL     1      -8.131   3.320  65.209  1.00  0.00    -0.096 I  
HETATM   16  C   UNL     1      -8.279   4.972  67.690  1.00  0.00    -0.105 C  
ENDBRANCH   7   8
ENDBRANCH   5   7
ENDBRANCH   4   5
ENDBRANCH   3   4
ENDBRANCH   2   3
TORSDOF 5
ENDMDL
MODEL      322
REMARK 921   NORMALIZED FREE ENERGY PREDICTED BY IDOCK:   -1.89 KCAL/MOL
REMARK 922        TOTAL FREE ENERGY PREDICTED BY IDOCK:   -2.76 KCAL/MOL
REMARK 923 INTER-LIGAND FREE ENERGY PREDICTED BY IDOCK:   -2.55 KCAL/MOL
REMARK 924 INTRA-LIGAND FREE ENERGY PREDICTED BY IDOCK:   -0.21 KCAL/MOL
REMARK 927      BINDING AFFINITY PREDICTED BY RF-SCORE:    0.00 PKD
ROOT
HETATM    1  C   UNL     1      -7.476   7.538  71.482  1.00  0.00    -0.079 C  
HETATM    2  C   UNL     1      -8.558   8.541  71.856  1.00  0.00    -0.254 C  
ENDROOT
BRANCH   2   3
HETATM    3  C   UNL     1      -9.219   9.096  70.601  1.00  0.00    -0.258 C  
BRANCH   3   4
HETATM    4  O   UNL     1      -8.311   9.119  69.490  1.00  0.00    -0.115 OA 
BRANCH   4   5
HETATM    5  C   UNL     1      -8.859   8.874  68.262  1.00  0.00    -0.134 C  
HETATM    6  O   UNL     1      -9.754   8.070  68.034  1.00  0.00    -0.152 OA 
BRANCH   5   7
HETATM    7  C   UNL     1      -8.246   9.796  67.220  1.00  0.00    -0.117 C  
BRANCH   7   8
HETATM    8  N   UNL     1      -8.255  11.208  67.645  1.00  0.00    -0.116 NA 
HETATM    9  C   UNL     1      -9.349  12.027  67.391  1.00  0.00    -0.178 C  
HETATM   10  C   UNL     1      -9.431  13.327  67.716  1.00  0.00    -0.208 C  
HETATM   11  I   UNL     1     -11.087  14.451  67.309  1.00  0.00    -0.365 I  
HETATM   12  C   UNL     1      -8.243  13.950  68.400  1.00  0.00    -0.153 C  
HETATM   13  C   UNL     1      -7.063  13.058  68.656  1.00  0.00    -0.103 C  
HETATM   14  O   UNL     1      -8.243  15.134  68.734  1.00  0.00    -0.147 OA 
HETATM   15  I   UNL     1      -5.388  13.806  69.562  1.00  0.00    -0.094 I  
HETATM   16  C   UNL     1      -7.152  11.777  68.268  1.00  0.00    -0.079 C  
ENDBRANCH   7   8
ENDBRANCH   5   7
ENDBRANCH   4   5
ENDBRANCH   3   4
ENDBRANCH   2   3
TORSDOF 5
ENDMDL
MODEL      323
REMARK 921   NORMALIZED FREE ENERGY PREDICTED BY IDOCK:   -1.86 KCAL/MOL
REMARK 922        TOTAL FREE ENERGY PREDICTED BY IDOCK:   -2.72 KCAL/MOL
REMARK 923 INTER-LIGAND FREE ENERGY PREDICTED BY IDOCK:   -2.44 KCAL/MOL
REMARK 924 INTRA-LIGAND FREE ENERGY PREDICTED BY IDOCK:   -0.27 KCAL/MOL
REMARK 927      BINDING AFFINITY PREDICTED BY RF-SCORE:    0.00 PKD
ROOT
HETATM    1  C   UNL     1      -8.288   5.919  72.084  1.00  0.00    -0.118 C  
HETATM    2  C   UNL     1      -8.630   7.353  72.465  1.00  0.00    -0.138 C  
ENDROOT
BRANCH   2   3
HETATM    3  C   UNL     1      -9.641   7.932  71.484  1.00  0.00    -0.151 C  
BRANCH   3   4
HETATM    4  O   UNL     1      -9.842   7.066  70.358  1.00  0.00    -0.179 OA 
BRANCH   4   5
HETATM    5  C   UNL     1     -11.122   6.630  70.157  1.00  0.00    -0.329 C  
HETATM    6  O   UNL     1     -11.945   6.419  71.041  1.00  0.00    -0.333 OA 
BRANCH   5   7
HETATM    7  C   UNL     1     -11.409   6.506  68.669  1.00  0.00    -0.109 C  
BRANCH   7   8
HETATM    8  N   UNL     1     -10.362   5.749  67.957  1.00  0.00    -0.189 NA 
HETATM    9  C   UNL     1      -9.606   6.340  66.952  1.00  0.00    -0.147 C  
HETATM   10  C   UNL     1      -8.656   5.719  66.235  1.00  0.00    -0.130 C  
HETATM   11  I   UNL     1      -7.590   6.673  64.777  1.00  0.00    -0.118 I  
HETATM   12  C   UNL     1      -8.393   4.267  66.537  1.00  0.00    -0.101 C  
HETATM   13  C   UNL     1      -9.225   3.637  67.616  1.00  0.00    -0.185 C  
HETATM   14  O   UNL     1      -7.536   3.630  65.927  1.00  0.00    -0.079 OA 
HETATM   15  I   UNL     1      -8.964   1.666  68.095  1.00  0.00    -0.228 I  
HETATM   16  C   UNL     1     -10.132   4.408  68.237  1.00  0.00     0.091 C  
ENDBRANCH   7   8
ENDBRANCH   5   7
ENDBRANCH   4   5
ENDBRANCH   3   4
ENDBRANCH   2   3
TORSDOF 5
ENDMDL
MODEL      324
REMARK 921   NORMALIZED FREE ENERGY PREDICTED BY IDOCK:   -1.86 KCAL/MOL
REMARK 922        TOTAL FREE ENERGY PREDICTED BY IDOCK:   -2.71 KCAL/MOL
REMARK 923 INTER-LIGAND FREE ENERGY PREDICTED BY IDOCK:   -2.40 KCAL/MOL
REMARK 924 INTRA-LIGAND FREE ENERGY PREDICTED BY IDOCK:   -0.31 KCAL/MOL
REMARK 927      BINDING AFFINITY PREDICTED BY RF-SCORE:    0.00 PKD
ROOT
HETATM    1  C   UNL     1      -8.276   4.883  63.339  1.00  0.00    -0.110 C  
HETATM    2  C   UNL     1      -9.042   4.188  64.455  1.00  0.00    -0.147 C  
ENDROOT
BRANCH   2   3
HETATM    3  C   UNL     1      -8.075   3.646  65.501  1.00  0.00    -0.093 C  
BRANCH   3   4
HETATM    4  O   UNL     1      -8.273   4.269  66.778  1.00  0.00    -0.101 OA 
BRANCH   4   5
HETATM    5  C   UNL     1      -7.291   5.130  67.183  1.00  0.00    -0.082 C  
HETATM    6  O   UNL     1      -6.528   5.734  66.439  1.00  0.00    -0.043 OA 
BRANCH   5   7
HETATM    7  C   UNL     1      -7.323   5.290  68.695  1.00  0.00    -0.070 C  
BRANCH   7   8
HETATM    8  N   UNL     1      -8.434   6.149  69.145  1.00  0.00    -0.118 NA 
HETATM    9  C   UNL     1      -9.116   5.880  70.327  1.00  0.00    -0.147 C  
HETATM   10  C   UNL     1     -10.154   6.590  70.796  1.00  0.00    -0.185 C  
HETATM   11  I   UNL     1     -11.092   6.123  72.549  1.00  0.00    -0.315 I  
HETATM   12  C   UNL     1     -10.623   7.763  69.976  1.00  0.00    -0.238 C  
HETATM   13  C   UNL     1      -9.887   8.034  68.696  1.00  0.00    -0.174 C  
HETATM   14  O   UNL     1     -11.565   8.465  70.341  1.00  0.00    -0.201 OA 
HETATM   15  I   UNL     1     -10.453   9.591  67.496  1.00  0.00    -0.250 I  
HETATM   16  C   UNL     1      -8.865   7.224  68.379  1.00  0.00    -0.128 C  
ENDBRANCH   7   8
ENDBRANCH   5   7
ENDBRANCH   4   5
ENDBRANCH   3   4
ENDBRANCH   2   3
TORSDOF 5
ENDMDL
MODEL      325
REMARK 921   NORMALIZED FREE ENERGY PREDICTED BY IDOCK:   -1.85 KCAL/MOL
REMARK 922        TOTAL FREE ENERGY PREDICTED BY IDOCK:   -2.71 KCAL/MOL
REMARK 923 INTER-LIGAND FREE ENERGY PREDICTED BY IDOCK:   -3.49 KCAL/MOL
REMARK 924 INTRA-LIGAND FREE ENERGY PREDICTED BY IDOCK:    0.78 KCAL/MOL
REMARK 927      BINDING AFFINITY PREDICTED BY RF-SCORE:    0.00 PKD
ROOT
HETATM    1  C   UNL     1     -12.651  13.863  64.532  1.00  0.00    -0.246 C  
HETATM    2  C   UNL     1     -11.400  13.046  64.820  1.00  0.00    -0.348 C  
ENDROOT
BRANCH   2   3
HETATM    3  C   UNL     1     -10.542  13.748  65.865  1.00  0.00    -0.289 C  
BRANCH   3   4
HETATM    4  O   UNL     1     -11.271  13.981  67.079  1.00  0.00    -0.297 OA 
BRANCH   4   5
HETATM    5  C   UNL     1     -11.370  12.917  67.932  1.00  0.00    -0.294 C  
HETATM    6  O   UNL     1     -12.124  11.962  67.788  1.00  0.00    -0.564 OA 
BRANCH   5   7
HETATM    7  C   UNL     1     -10.358  13.051  69.059  1.00  0.00     0.061 C  
BRANCH   7   8
HETATM    8  N   UNL     1      -9.082  13.632  68.601  1.00  0.00    -0.099 NA 
HETATM    9  C   UNL     1      -8.960  14.994  68.356  1.00  0.00    -0.179 C  
HETATM   10  C   UNL     1      -7.849  15.601  67.911  1.00  0.00    -0.133 C  
HETATM   11  I   UNL     1      -7.762  17.616  67.585  1.00  0.00    -0.233 I  
HETATM   12  C   UNL     1      -6.642  14.740  67.649  1.00  0.00    -0.158 C  
HETATM   13  C   UNL     1      -6.790  13.268  67.905  1.00  0.00    -0.140 C  
HETATM   14  O   UNL     1      -5.585  15.222  67.245  1.00  0.00    -0.332 OA 
HETATM   15  I   UNL     1      -5.220  12.003  67.564  1.00  0.00    -0.098 I  
HETATM   16  C   UNL     1      -7.976  12.828  68.354  1.00  0.00    -0.137 C  
ENDBRANCH   7   8
ENDBRANCH   5   7
ENDBRANCH   4   5
ENDBRANCH   3   4
ENDBRANCH   2   3
TORSDOF 5
ENDMDL
MODEL      326
REMARK 921   NORMALIZED FREE ENERGY PREDICTED BY IDOCK:   -1.84 KCAL/MOL
REMARK 922        TOTAL FREE ENERGY PREDICTED BY IDOCK:   -2.70 KCAL/MOL
REMARK 923 INTER-LIGAND FREE ENERGY PREDICTED BY IDOCK:   -2.33 KCAL/MOL
REMARK 924 INTRA-LIGAND FREE ENERGY PREDICTED BY IDOCK:   -0.37 KCAL/MOL
REMARK 927      BINDING AFFINITY PREDICTED BY RF-SCORE:    0.00 PKD
ROOT
HETATM    1  C   UNL     1      -9.762   7.438  73.348  1.00  0.00    -0.319 C  
HETATM    2  C   UNL     1     -10.626   7.932  72.196  1.00  0.00    -0.312 C  
ENDROOT
BRANCH   2   3
HETATM    3  C   UNL     1      -9.888   9.005  71.406  1.00  0.00    -0.311 C  
BRANCH   3   4
HETATM    4  O   UNL     1      -8.525   9.136  71.836  1.00  0.00    -0.334 OA 
BRANCH   4   5
HETATM    5  C   UNL     1      -7.571   8.815  70.911  1.00  0.00    -0.102 C  
HETATM    6  O   UNL     1      -6.397   8.570  71.161  1.00  0.00    -0.036 OA 
BRANCH   5   7
HETATM    7  C   UNL     1      -8.190   8.736  69.524  1.00  0.00    -0.111 C  
BRANCH   7   8
HETATM    8  N   UNL     1      -7.903   7.453  68.855  1.00  0.00    -0.115 NA 
HETATM    9  C   UNL     1      -7.335   7.416  67.587  1.00  0.00    -0.092 C  
HETATM   10  C   UNL     1      -7.068   6.297  66.895  1.00  0.00    -0.073 C  
HETATM   11  I   UNL     1      -6.223   6.340  65.036  1.00  0.00    -0.031 I  
HETATM   12  C   UNL     1      -7.419   4.980  67.536  1.00  0.00    -0.083 C  
HETATM   13  C   UNL     1      -8.044   5.035  68.899  1.00  0.00    -0.084 C  
HETATM   14  O   UNL     1      -7.201   3.912  66.968  1.00  0.00    -0.062 OA 
HETATM   15  I   UNL     1      -8.578   3.307  69.854  1.00  0.00    -0.148 I  
HETATM   16  C   UNL     1      -8.238   6.244  69.450  1.00  0.00    -0.114 C  
ENDBRANCH   7   8
ENDBRANCH   5   7
ENDBRANCH   4   5
ENDBRANCH   3   4
ENDBRANCH   2   3
TORSDOF 5
ENDMDL
MODEL      327
REMARK 921   NORMALIZED FREE ENERGY PREDICTED BY IDOCK:   -1.83 KCAL/MOL
REMARK 922        TOTAL FREE ENERGY PREDICTED BY IDOCK:   -2.67 KCAL/MOL
REMARK 923 INTER-LIGAND FREE ENERGY PREDICTED BY IDOCK:   -2.55 KCAL/MOL
REMARK 924 INTRA-LIGAND FREE ENERGY PREDICTED BY IDOCK:   -0.12 KCAL/MOL
REMARK 927      BINDING AFFINITY PREDICTED BY RF-SCORE:    0.00 PKD
ROOT
HETATM    1  C   UNL     1      -8.323   8.588  71.301  1.00  0.00    -0.193 C  
HETATM    2  C   UNL     1      -7.661   7.230  71.116  1.00  0.00    -0.080 C  
ENDROOT
BRANCH   2   3
HETATM    3  C   UNL     1      -8.268   6.214  72.076  1.00  0.00    -0.110 C  
BRANCH   3   4
HETATM    4  O   UNL     1      -9.621   6.547  72.414  1.00  0.00    -0.148 OA 
BRANCH   4   5
HETATM    5  C   UNL     1     -10.591   5.768  71.847  1.00  0.00    -0.232 C  
HETATM    6  O   UNL     1     -10.623   4.544  71.878  1.00  0.00    -0.125 OA 
BRANCH   5   7
HETATM    7  C   UNL     1     -11.669   6.640  71.224  1.00  0.00    -0.334 C  
BRANCH   7   8
HETATM    8  N   UNL     1     -11.190   7.356  70.027  1.00  0.00    -0.223 NA 
HETATM    9  C   UNL     1     -10.743   6.663  68.908  1.00  0.00    -0.264 C  
HETATM   10  C   UNL     1     -10.265   7.232  67.790  1.00  0.00    -0.195 C  
HETATM   11  I   UNL     1      -9.635   6.131  66.189  1.00  0.00     0.171 I  
HETATM   12  C   UNL     1     -10.200   8.736  67.746  1.00  0.00    -0.228 C  
HETATM   13  C   UNL     1     -10.673   9.471  68.966  1.00  0.00    -0.202 C  
HETATM   14  O   UNL     1      -9.779   9.331  66.756  1.00  0.00    -0.170 OA 
HETATM   15  I   UNL     1     -10.611  11.515  69.022  1.00  0.00    -0.060 I  
HETATM   16  C   UNL     1     -11.126   8.743  69.998  1.00  0.00    -0.162 C  
ENDBRANCH   7   8
ENDBRANCH   5   7
ENDBRANCH   4   5
ENDBRANCH   3   4
ENDBRANCH   2   3
TORSDOF 5
ENDMDL
MODEL      328
REMARK 921   NORMALIZED FREE ENERGY PREDICTED BY IDOCK:   -1.82 KCAL/MOL
REMARK 922        TOTAL FREE ENERGY PREDICTED BY IDOCK:   -2.67 KCAL/MOL
REMARK 923 INTER-LIGAND FREE ENERGY PREDICTED BY IDOCK:   -2.39 KCAL/MOL
REMARK 924 INTRA-LIGAND FREE ENERGY PREDICTED BY IDOCK:   -0.27 KCAL/MOL
REMARK 927      BINDING AFFINITY PREDICTED BY RF-SCORE:    0.00 PKD
ROOT
HETATM    1  C   UNL     1      -6.275  11.620  70.041  1.00  0.00    -0.140 C  
HETATM    2  C   UNL     1      -7.433  10.827  69.452  1.00  0.00    -0.124 C  
ENDROOT
BRANCH   2   3
HETATM    3  C   UNL     1      -7.613   9.516  70.208  1.00  0.00    -0.155 C  
BRANCH   3   4
HETATM    4  O   UNL     1      -8.985   9.097  70.222  1.00  0.00    -0.178 OA 
BRANCH   4   5
HETATM    5  C   UNL     1      -9.353   8.217  69.243  1.00  0.00    -0.151 C  
HETATM    6  O   UNL     1     -10.471   8.134  68.750  1.00  0.00    -0.211 OA 
BRANCH   5   7
HETATM    7  C   UNL     1      -8.155   7.393  68.799  1.00  0.00    -0.128 C  
BRANCH   7   8
HETATM    8  N   UNL     1      -8.491   5.968  68.613  1.00  0.00    -0.113 NA 
HETATM    9  C   UNL     1      -8.638   5.425  67.343  1.00  0.00    -0.108 C  
HETATM   10  C   UNL     1      -8.970   4.151  67.083  1.00  0.00    -0.128 C  
HETATM   11  I   UNL     1      -9.158   3.439  65.177  1.00  0.00    -0.150 I  
HETATM   12  C   UNL     1      -9.212   3.240  68.257  1.00  0.00    -0.184 C  
HETATM   13  C   UNL     1      -9.062   3.842  69.624  1.00  0.00    -0.122 C  
HETATM   14  O   UNL     1      -9.515   2.059  68.102  1.00  0.00    -0.198 OA 
HETATM   15  I   UNL     1      -9.385   2.700  71.290  1.00  0.00    -0.214 I  
HETATM   16  C   UNL     1      -8.720   5.138  69.703  1.00  0.00    -0.092 C  
ENDBRANCH   7   8
ENDBRANCH   5   7
ENDBRANCH   4   5
ENDBRANCH   3   4
ENDBRANCH   2   3
TORSDOF 5
ENDMDL
MODEL      329
REMARK 921   NORMALIZED FREE ENERGY PREDICTED BY IDOCK:   -1.79 KCAL/MOL
REMARK 922        TOTAL FREE ENERGY PREDICTED BY IDOCK:   -2.63 KCAL/MOL
REMARK 923 INTER-LIGAND FREE ENERGY PREDICTED BY IDOCK:   -2.63 KCAL/MOL
REMARK 924 INTRA-LIGAND FREE ENERGY PREDICTED BY IDOCK:    0.00 KCAL/MOL
REMARK 927      BINDING AFFINITY PREDICTED BY RF-SCORE:    0.00 PKD
ROOT
HETATM    1  C   UNL     1      -7.156   8.105  71.814  1.00  0.00    -0.080 C  
HETATM    2  C   UNL     1      -8.450   8.881  72.019  1.00  0.00     0.019 C  
ENDROOT
BRANCH   2   3
HETATM    3  C   UNL     1      -9.220   8.975  70.708  1.00  0.00    -0.245 C  
BRANCH   3   4
HETATM    4  O   UNL     1      -8.370   8.743  69.576  1.00  0.00    -0.114 OA 
BRANCH   4   5
HETATM    5  C   UNL     1      -8.937   8.073  68.528  1.00  0.00    -0.133 C  
HETATM    6  O   UNL     1      -9.817   7.226  68.622  1.00  0.00    -0.155 OA 
BRANCH   5   7
HETATM    7  C   UNL     1      -8.366   8.576  67.211  1.00  0.00    -0.115 C  
BRANCH   7   8
HETATM    8  N   UNL     1      -8.571  10.026  67.029  1.00  0.00    -0.125 NA 
HETATM    9  C   UNL     1      -7.794  10.952  67.714  1.00  0.00    -0.109 C  
HETATM   10  C   UNL     1      -7.931  12.285  67.630  1.00  0.00    -0.161 C  
HETATM   11  I   UNL     1      -6.736  13.573  68.672  1.00  0.00    -0.120 I  
HETATM   12  C   UNL     1      -9.016  12.819  66.732  1.00  0.00    -0.188 C  
HETATM   13  C   UNL     1      -9.856  11.807  66.008  1.00  0.00    -0.232 C  
HETATM   14  O   UNL     1      -9.201  14.027  66.598  1.00  0.00    -0.265 OA 
HETATM   15  I   UNL     1     -11.370  12.421  64.777  1.00  0.00    -0.417 I  
HETATM   16  C   UNL     1      -9.579  10.509  66.205  1.00  0.00    -0.190 C  
ENDBRANCH   7   8
ENDBRANCH   5   7
ENDBRANCH   4   5
ENDBRANCH   3   4
ENDBRANCH   2   3
TORSDOF 5
ENDMDL
MODEL      330
REMARK 921   NORMALIZED FREE ENERGY PREDICTED BY IDOCK:   -1.75 KCAL/MOL
REMARK 922        TOTAL FREE ENERGY PREDICTED BY IDOCK:   -2.57 KCAL/MOL
REMARK 923 INTER-LIGAND FREE ENERGY PREDICTED BY IDOCK:   -2.81 KCAL/MOL
REMARK 924 INTRA-LIGAND FREE ENERGY PREDICTED BY IDOCK:    0.24 KCAL/MOL
REMARK 927      BINDING AFFINITY PREDICTED BY RF-SCORE:    0.00 PKD
ROOT
HETATM    1  C   UNL     1     -11.484   9.035  70.479  1.00  0.00    -0.248 C  
HETATM    2  C   UNL     1     -12.026  10.036  69.469  1.00  0.00     0.096 C  
ENDROOT
BRANCH   2   3
HETATM    3  C   UNL     1     -11.026  10.234  68.335  1.00  0.00    -0.260 C  
BRANCH   3   4
HETATM    4  O   UNL     1     -11.595  10.985  67.253  1.00  0.00    -0.496 OA 
BRANCH   4   5
HETATM    5  C   UNL     1     -10.735  11.339  66.252  1.00  0.00    -0.257 C  
HETATM    6  O   UNL     1     -10.449  10.644  65.285  1.00  0.00    -0.269 OA 
BRANCH   5   7
HETATM    7  C   UNL     1     -10.228  12.756  66.471  1.00  0.00    -0.253 C  
BRANCH   7   8
HETATM    8  N   UNL     1      -8.977  12.790  67.251  1.00  0.00    -0.191 NA 
HETATM    9  C   UNL     1      -8.324  11.618  67.613  1.00  0.00    -0.142 C  
HETATM   10  C   UNL     1      -7.201  11.556  68.344  1.00  0.00    -0.089 C  
HETATM   11  I   UNL     1      -6.307   9.782  68.822  1.00  0.00    -0.045 I  
HETATM   12  C   UNL     1      -6.605  12.855  68.818  1.00  0.00    -0.090 C  
HETATM   13  C   UNL     1      -7.327  14.113  68.432  1.00  0.00    -0.115 C  
HETATM   14  O   UNL     1      -5.574  12.882  69.488  1.00  0.00    -0.079 OA 
HETATM   15  I   UNL     1      -6.615  15.933  69.038  1.00  0.00    -0.176 I  
HETATM   16  C   UNL     1      -8.439  13.993  67.691  1.00  0.00    -0.191 C  
ENDBRANCH   7   8
ENDBRANCH   5   7
ENDBRANCH   4   5
ENDBRANCH   3   4
ENDBRANCH   2   3
TORSDOF 5
ENDMDL
MODEL      331
REMARK 921   NORMALIZED FREE ENERGY PREDICTED BY IDOCK:   -1.74 KCAL/MOL
REMARK 922        TOTAL FREE ENERGY PREDICTED BY IDOCK:   -2.57 KCAL/MOL
REMARK 923 INTER-LIGAND FREE ENERGY PREDICTED BY IDOCK:   -2.28 KCAL/MOL
REMARK 924 INTRA-LIGAND FREE ENERGY PREDICTED BY IDOCK:   -0.29 KCAL/MOL
REMARK 927      BINDING AFFINITY PREDICTED BY RF-SCORE:    0.00 PKD
ROOT
HETATM    1  C   UNL     1      -8.608   4.901  62.536  1.00  0.00    -0.118 C  
HETATM    2  C   UNL     1      -9.053   3.661  63.299  1.00  0.00    -0.100 C  
ENDROOT
BRANCH   2   3
HETATM    3  C   UNL     1      -7.913   3.135  64.161  1.00  0.00    -0.082 C  
BRANCH   3   4
HETATM    4  O   UNL     1      -7.686   3.969  65.306  1.00  0.00    -0.083 OA 
BRANCH   4   5
HETATM    5  C   UNL     1      -6.473   4.598  65.359  1.00  0.00    -0.036 C  
HETATM    6  O   UNL     1      -5.615   4.555  64.486  1.00  0.00    -0.013 OA 
BRANCH   5   7
HETATM    7  C   UNL     1      -6.362   5.420  66.633  1.00  0.00    -0.036 C  
BRANCH   7   8
HETATM    8  N   UNL     1      -7.525   6.306  66.832  1.00  0.00    -0.086 NA 
HETATM    9  C   UNL     1      -8.472   6.038  67.813  1.00  0.00    -0.107 C  
HETATM   10  C   UNL     1      -9.572   6.773  68.043  1.00  0.00    -0.117 C  
HETATM   11  I   UNL     1     -10.908   6.304  69.515  1.00  0.00    -0.474 I  
HETATM   12  C   UNL     1      -9.804   7.975  67.166  1.00  0.00    -0.210 C  
HETATM   13  C   UNL     1      -8.780   8.245  66.102  1.00  0.00    -0.150 C  
HETATM   14  O   UNL     1     -10.785   8.700  67.317  1.00  0.00    -0.271 OA 
HETATM   15  I   UNL     1      -9.005   9.841  64.842  1.00  0.00    -0.299 I  
HETATM   16  C   UNL     1      -7.734   7.408  66.013  1.00  0.00    -0.095 C  
ENDBRANCH   7   8
ENDBRANCH   5   7
ENDBRANCH   4   5
ENDBRANCH   3   4
ENDBRANCH   2   3
TORSDOF 5
ENDMDL
MODEL      332
REMARK 921   NORMALIZED FREE ENERGY PREDICTED BY IDOCK:   -1.73 KCAL/MOL
REMARK 922        TOTAL FREE ENERGY PREDICTED BY IDOCK:   -2.55 KCAL/MOL
REMARK 923 INTER-LIGAND FREE ENERGY PREDICTED BY IDOCK:   -2.11 KCAL/MOL
REMARK 924 INTRA-LIGAND FREE ENERGY PREDICTED BY IDOCK:   -0.44 KCAL/MOL
REMARK 927      BINDING AFFINITY PREDICTED BY RF-SCORE:    0.00 PKD
ROOT
HETATM    1  C   UNL     1     -10.572   9.003  67.357  1.00  0.00    -0.309 C  
HETATM    2  C   UNL     1      -9.325   9.826  67.068  1.00  0.00    -0.178 C  
ENDROOT
BRANCH   2   3
HETATM    3  C   UNL     1      -8.285   9.607  68.159  1.00  0.00    -0.106 C  
BRANCH   3   4
HETATM    4  O   UNL     1      -8.888   9.174  69.387  1.00  0.00    -0.137 OA 
BRANCH   4   5
HETATM    5  C   UNL     1      -8.071   8.503  70.253  1.00  0.00    -0.106 C  
HETATM    6  O   UNL     1      -8.114   8.586  71.475  1.00  0.00    -0.127 OA 
BRANCH   5   7
HETATM    7  C   UNL     1      -7.138   7.580  69.487  1.00  0.00    -0.069 C  
BRANCH   7   8
HETATM    8  N   UNL     1      -7.756   6.272  69.196  1.00  0.00    -0.099 NA 
HETATM    9  C   UNL     1      -7.946   5.329  70.199  1.00  0.00    -0.080 C  
HETATM   10  C   UNL     1      -8.473   4.108  70.019  1.00  0.00    -0.064 C  
HETATM   11  I   UNL     1      -8.719   2.788  71.559  1.00  0.00    -0.147 I  
HETATM   12  C   UNL     1      -8.883   3.725  68.622  1.00  0.00    -0.111 C  
HETATM   13  C   UNL     1      -8.661   4.748  67.546  1.00  0.00    -0.103 C  
HETATM   14  O   UNL     1      -9.378   2.626  68.376  1.00  0.00    -0.182 OA 
HETATM   15  I   UNL     1      -9.165   4.326  65.609  1.00  0.00    -0.187 I  
HETATM   16  C   UNL     1      -8.124   5.925  67.903  1.00  0.00    -0.105 C  
ENDBRANCH   7   8
ENDBRANCH   5   7
ENDBRANCH   4   5
ENDBRANCH   3   4
ENDBRANCH   2   3
TORSDOF 5
ENDMDL
MODEL      333
REMARK 921   NORMALIZED FREE ENERGY PREDICTED BY IDOCK:   -1.61 KCAL/MOL
REMARK 922        TOTAL FREE ENERGY PREDICTED BY IDOCK:   -2.39 KCAL/MOL
REMARK 923 INTER-LIGAND FREE ENERGY PREDICTED BY IDOCK:   -2.08 KCAL/MOL
REMARK 924 INTRA-LIGAND FREE ENERGY PREDICTED BY IDOCK:   -0.31 KCAL/MOL
REMARK 927      BINDING AFFINITY PREDICTED BY RF-SCORE:    0.00 PKD
ROOT
HETATM    1  C   UNL     1     -10.071   8.928  67.414  1.00  0.00    -0.288 C  
HETATM    2  C   UNL     1      -9.419  10.090  66.678  1.00  0.00    -0.215 C  
ENDROOT
BRANCH   2   3
HETATM    3  C   UNL     1      -7.974  10.257  67.133  1.00  0.00    -0.114 C  
BRANCH   3   4
HETATM    4  O   UNL     1      -7.891  10.548  68.536  1.00  0.00    -0.100 OA 
BRANCH   4   5
HETATM    5  C   UNL     1      -6.813  10.025  69.194  1.00  0.00    -0.056 C  
HETATM    6  O   UNL     1      -6.150  10.608  70.043  1.00  0.00    -0.070 OA 
BRANCH   5   7
HETATM    7  C   UNL     1      -6.590   8.581  68.772  1.00  0.00    -0.054 C  
BRANCH   7   8
HETATM    8  N   UNL     1      -7.280   7.624  69.658  1.00  0.00    -0.077 NA 
HETATM    9  C   UNL     1      -7.608   6.347  69.219  1.00  0.00    -0.099 C  
HETATM   10  C   UNL     1      -8.259   5.426  69.947  1.00  0.00    -0.096 C  
HETATM   11  I   UNL     1      -8.695   3.568  69.218  1.00  0.00    -0.183 I  
HETATM   12  C   UNL     1      -8.674   5.806  71.343  1.00  0.00    -0.133 C  
HETATM   13  C   UNL     1      -8.324   7.193  71.801  1.00  0.00    -0.105 C  
HETATM   14  O   UNL     1      -9.269   5.016  72.074  1.00  0.00    -0.134 OA 
HETATM   15  I   UNL     1      -8.856   7.821  73.673  1.00  0.00    -0.275 I  
HETATM   16  C   UNL     1      -7.665   7.987  70.943  1.00  0.00    -0.084 C  
ENDBRANCH   7   8
ENDBRANCH   5   7
ENDBRANCH   4   5
ENDBRANCH   3   4
ENDBRANCH   2   3
TORSDOF 5
ENDMDL
MODEL      334
REMARK 921   NORMALIZED FREE ENERGY PREDICTED BY IDOCK:   -1.56 KCAL/MOL
REMARK 922        TOTAL FREE ENERGY PREDICTED BY IDOCK:   -2.33 KCAL/MOL
REMARK 923 INTER-LIGAND FREE ENERGY PREDICTED BY IDOCK:   -2.13 KCAL/MOL
REMARK 924 INTRA-LIGAND FREE ENERGY PREDICTED BY IDOCK:   -0.20 KCAL/MOL
REMARK 927      BINDING AFFINITY PREDICTED BY RF-SCORE:    0.00 PKD
ROOT
HETATM    1  C   UNL     1     -10.878   8.099  67.793  1.00  0.00    -0.072 C  
HETATM    2  C   UNL     1      -9.871   7.783  66.696  1.00  0.00    -0.295 C  
ENDROOT
BRANCH   2   3
HETATM    3  C   UNL     1      -8.586   7.232  67.302  1.00  0.00    -0.121 C  
BRANCH   3   4
HETATM    4  O   UNL     1      -7.603   8.262  67.483  1.00  0.00    -0.095 OA 
BRANCH   4   5
HETATM    5  C   UNL     1      -6.539   7.941  68.279  1.00  0.00    -0.059 C  
HETATM    6  O   UNL     1      -5.482   8.559  68.330  1.00  0.00    -0.033 OA 
BRANCH   5   7
HETATM    7  C   UNL     1      -6.877   6.742  69.150  1.00  0.00    -0.065 C  
BRANCH   7   8
HETATM    8  N   UNL     1      -7.431   7.137  70.459  1.00  0.00    -0.086 NA 
HETATM    9  C   UNL     1      -8.804   7.188  70.671  1.00  0.00    -0.149 C  
HETATM   10  C   UNL     1      -9.392   7.564  71.817  1.00  0.00    -0.144 C  
HETATM   11  I   UNL     1     -11.423   7.602  72.039  1.00  0.00    -0.417 I  
HETATM   12  C   UNL     1      -8.499   7.969  72.960  1.00  0.00    -0.193 C  
HETATM   13  C   UNL     1      -7.019   7.922  72.713  1.00  0.00    -0.083 C  
HETATM   14  O   UNL     1      -8.963   8.321  74.043  1.00  0.00    -0.137 OA 
HETATM   15  I   UNL     1      -5.714   8.470  74.190  1.00  0.00    -0.133 I  
HETATM   16  C   UNL     1      -6.599   7.517  71.504  1.00  0.00    -0.045 C  
ENDBRANCH   7   8
ENDBRANCH   5   7
ENDBRANCH   4   5
ENDBRANCH   3   4
ENDBRANCH   2   3
TORSDOF 5
ENDMDL
MODEL      335
REMARK 921   NORMALIZED FREE ENERGY PREDICTED BY IDOCK:   -1.54 KCAL/MOL
REMARK 922        TOTAL FREE ENERGY PREDICTED BY IDOCK:   -2.31 KCAL/MOL
REMARK 923 INTER-LIGAND FREE ENERGY PREDICTED BY IDOCK:   -1.98 KCAL/MOL
REMARK 924 INTRA-LIGAND FREE ENERGY PREDICTED BY IDOCK:   -0.33 KCAL/MOL
REMARK 927      BINDING AFFINITY PREDICTED BY RF-SCORE:    0.00 PKD
ROOT
HETATM    1  C   UNL     1      -6.481   8.640  71.866  1.00  0.00    -0.074 C  
HETATM    2  C   UNL     1      -6.557   7.781  70.612  1.00  0.00    -0.038 C  
ENDROOT
BRANCH   2   3
HETATM    3  C   UNL     1      -7.854   6.980  70.600  1.00  0.00    -0.097 C  
BRANCH   3   4
HETATM    4  O   UNL     1      -8.972   7.789  70.208  1.00  0.00    -0.146 OA 
BRANCH   4   5
HETATM    5  C   UNL     1     -10.100   7.112  69.837  1.00  0.00    -0.191 C  
HETATM    6  O   UNL     1     -10.712   6.316  70.539  1.00  0.00    -0.234 OA 
BRANCH   5   7
HETATM    7  C   UNL     1     -10.534   7.538  68.443  1.00  0.00    -0.175 C  
BRANCH   7   8
HETATM    8  N   UNL     1      -9.604   7.070  67.398  1.00  0.00    -0.131 NA 
HETATM    9  C   UNL     1      -8.651   7.921  66.851  1.00  0.00    -0.129 C  
HETATM   10  C   UNL     1      -7.787   7.588  65.880  1.00  0.00    -0.107 C  
HETATM   11  I   UNL     1      -6.414   8.908  65.141  1.00  0.00    -0.065 I  
HETATM   12  C   UNL     1      -7.859   6.187  65.333  1.00  0.00    -0.106 C  
HETATM   13  C   UNL     1      -8.901   5.281  65.923  1.00  0.00    -0.145 C  
HETATM   14  O   UNL     1      -7.098   5.803  64.446  1.00  0.00    -0.050 OA 
HETATM   15  I   UNL     1      -9.100   3.363  65.242  1.00  0.00    -0.143 I  
HETATM   16  C   UNL     1      -9.683   5.778  66.894  1.00  0.00    -0.148 C  
ENDBRANCH   7   8
ENDBRANCH   5   7
ENDBRANCH   4   5
ENDBRANCH   3   4
ENDBRANCH   2   3
TORSDOF 5
ENDMDL
MODEL      336
REMARK 921   NORMALIZED FREE ENERGY PREDICTED BY IDOCK:   -1.53 KCAL/MOL
REMARK 922        TOTAL FREE ENERGY PREDICTED BY IDOCK:   -2.29 KCAL/MOL
REMARK 923 INTER-LIGAND FREE ENERGY PREDICTED BY IDOCK:   -2.98 KCAL/MOL
REMARK 924 INTRA-LIGAND FREE ENERGY PREDICTED BY IDOCK:    0.69 KCAL/MOL
REMARK 927      BINDING AFFINITY PREDICTED BY RF-SCORE:    0.00 PKD
ROOT
HETATM    1  C   UNL     1     -11.153   9.012  71.793  1.00  0.00    -0.444 C  
HETATM    2  C   UNL     1     -11.048   9.163  70.282  1.00  0.00    -0.272 C  
ENDROOT
BRANCH   2   3
HETATM    3  C   UNL     1     -10.764   7.813  69.637  1.00  0.00    -0.223 C  
BRANCH   3   4
HETATM    4  O   UNL     1      -9.399   7.709  69.205  1.00  0.00    -0.149 OA 
BRANCH   4   5
HETATM    5  C   UNL     1      -9.137   6.742  68.275  1.00  0.00    -0.124 C  
HETATM    6  O   UNL     1      -8.735   5.611  68.523  1.00  0.00    -0.110 OA 
BRANCH   5   7
HETATM    7  C   UNL     1      -9.479   7.246  66.882  1.00  0.00    -0.164 C  
BRANCH   7   8
HETATM    8  N   UNL     1      -9.163   8.677  66.710  1.00  0.00    -0.159 NA 
HETATM    9  C   UNL     1      -8.357   9.349  67.622  1.00  0.00    -0.119 C  
HETATM   10  C   UNL     1      -8.043  10.652  67.558  1.00  0.00    -0.111 C  
HETATM   11  I   UNL     1      -6.843  11.554  68.944  1.00  0.00    -0.102 I  
HETATM   12  C   UNL     1      -8.613  11.452  66.417  1.00  0.00    -0.174 C  
HETATM   13  C   UNL     1      -9.493  10.718  65.447  1.00  0.00    -0.214 C  
HETATM   14  O   UNL     1      -8.368  12.650  66.287  1.00  0.00     0.210 OA 
HETATM   15  I   UNL     1     -10.336  11.711  63.871  1.00  0.00    -0.559 I  
HETATM   16  C   UNL     1      -9.700   9.409  65.659  1.00  0.00    -0.266 C  
ENDBRANCH   7   8
ENDBRANCH   5   7
ENDBRANCH   4   5
ENDBRANCH   3   4
ENDBRANCH   2   3
TORSDOF 5
ENDMDL
MODEL      337
REMARK 921   NORMALIZED FREE ENERGY PREDICTED BY IDOCK:   -1.44 KCAL/MOL
REMARK 922        TOTAL FREE ENERGY PREDICTED BY IDOCK:   -2.17 KCAL/MOL
REMARK 923 INTER-LIGAND FREE ENERGY PREDICTED BY IDOCK:   -2.52 KCAL/MOL
REMARK 924 INTRA-LIGAND FREE ENERGY PREDICTED BY IDOCK:    0.35 KCAL/MOL
REMARK 927      BINDING AFFINITY PREDICTED BY RF-SCORE:    0.00 PKD
ROOT
HETATM    1  C   UNL     1      -9.129   4.887  63.091  1.00  0.00     0.017 C  
HETATM    2  C   UNL     1      -9.480   3.996  64.274  1.00  0.00    -0.162 C  
ENDROOT
BRANCH   2   3
HETATM    3  C   UNL     1      -9.212   4.728  65.583  1.00  0.00    -0.152 C  
BRANCH   3   4
HETATM    4  O   UNL     1     -10.424   4.982  66.307  1.00  0.00    -0.276 OA 
BRANCH   4   5
HETATM    5  C   UNL     1     -10.336   5.886  67.328  1.00  0.00    -0.226 C  
HETATM    6  O   UNL     1     -10.882   6.983  67.352  1.00  0.00    -0.285 OA 
BRANCH   5   7
HETATM    7  C   UNL     1      -9.513   5.310  68.470  1.00  0.00    -0.128 C  
BRANCH   7   8
HETATM    8  N   UNL     1      -9.127   6.337  69.456  1.00  0.00    -0.137 NA 
HETATM    9  C   UNL     1      -9.104   6.053  70.816  1.00  0.00    -0.153 C  
HETATM   10  C   UNL     1      -8.793   6.933  71.782  1.00  0.00    -0.131 C  
HETATM   11  I   UNL     1      -8.780   6.422  73.760  1.00  0.00    -0.155 I  
HETATM   12  C   UNL     1      -8.451   8.338  71.361  1.00  0.00    -0.138 C  
HETATM   13  C   UNL     1      -8.492   8.634  69.890  1.00  0.00    -0.129 C  
HETATM   14  O   UNL     1      -8.151   9.200  72.185  1.00  0.00    -0.305 OA 
HETATM   15  I   UNL     1      -8.063  10.514  69.209  1.00  0.00    -0.025 I  
HETATM   16  C   UNL     1      -8.820   7.632  69.059  1.00  0.00    -0.135 C  
ENDBRANCH   7   8
ENDBRANCH   5   7
ENDBRANCH   4   5
ENDBRANCH   3   4
ENDBRANCH   2   3
TORSDOF 5
ENDMDL
MODEL      338
REMARK 921   NORMALIZED FREE ENERGY PREDICTED BY IDOCK:   -1.10 KCAL/MOL
REMARK 922        TOTAL FREE ENERGY PREDICTED BY IDOCK:   -1.74 KCAL/MOL
REMARK 923 INTER-LIGAND FREE ENERGY PREDICTED BY IDOCK:   -1.79 KCAL/MOL
REMARK 924 INTRA-LIGAND FREE ENERGY PREDICTED BY IDOCK:    0.05 KCAL/MOL
REMARK 927      BINDING AFFINITY PREDICTED BY RF-SCORE:    0.00 PKD
ROOT
HETATM    1  C   UNL     1     -11.688   9.804  70.292  1.00  0.00    -0.253 C  
HETATM    2  C   UNL     1     -10.939   9.683  68.972  1.00  0.00    -0.161 C  
ENDROOT
BRANCH   2   3
HETATM    3  C   UNL     1      -9.956   8.520  69.029  1.00  0.00    -0.193 C  
BRANCH   3   4
HETATM    4  O   UNL     1      -8.630   8.962  69.353  1.00  0.00    -0.127 OA 
BRANCH   4   5
HETATM    5  C   UNL     1      -7.608   8.185  68.886  1.00  0.00    -0.098 C  
HETATM    6  O   UNL     1      -6.842   7.528  69.581  1.00  0.00    -0.043 OA 
BRANCH   5   7
HETATM    7  C   UNL     1      -7.592   8.195  67.365  1.00  0.00    -0.101 C  
BRANCH   7   8
HETATM    8  N   UNL     1      -7.618   6.835  66.795  1.00  0.00    -0.089 NA 
HETATM    9  C   UNL     1      -7.314   6.612  65.457  1.00  0.00    -0.076 C  
HETATM   10  C   UNL     1      -7.340   5.415  64.851  1.00  0.00    -0.068 C  
HETATM   11  I   UNL     1      -6.872   5.182  62.876  1.00  0.00    -0.031 I  
HETATM   12  C   UNL     1      -7.737   4.222  65.680  1.00  0.00    -0.090 C  
HETATM   13  C   UNL     1      -8.074   4.479  67.120  1.00  0.00    -0.102 C  
HETATM   14  O   UNL     1      -7.780   3.091  65.198  1.00  0.00    -0.079 OA 
HETATM   15  I   UNL     1      -8.644   2.933  68.332  1.00  0.00    -0.175 I  
HETATM   16  C   UNL     1      -7.992   5.742  67.566  1.00  0.00    -0.102 C  
ENDBRANCH   7   8
ENDBRANCH   5   7
ENDBRANCH   4   5
ENDBRANCH   3   4
ENDBRANCH   2   3
TORSDOF 5
ENDMDL
MODEL      339
REMARK 921   NORMALIZED FREE ENERGY PREDICTED BY IDOCK:   -0.98 KCAL/MOL
REMARK 922        TOTAL FREE ENERGY PREDICTED BY IDOCK:   -1.58 KCAL/MOL
REMARK 923 INTER-LIGAND FREE ENERGY PREDICTED BY IDOCK:   -1.52 KCAL/MOL
REMARK 924 INTRA-LIGAND FREE ENERGY PREDICTED BY IDOCK:   -0.06 KCAL/MOL
REMARK 927      BINDING AFFINITY PREDICTED BY RF-SCORE:    0.00 PKD
ROOT
HETATM    1  C   UNL     1     -11.567   9.077  69.615  1.00  0.00     0.342 C  
HETATM    2  C   UNL     1     -10.170   9.151  69.016  1.00  0.00    -0.219 C  
ENDROOT
BRANCH   2   3
HETATM    3  C   UNL     1      -9.303   8.022  69.560  1.00  0.00    -0.156 C  
BRANCH   3   4
HETATM    4  O   UNL     1      -9.365   7.949  70.991  1.00  0.00    -0.150 OA 
BRANCH   4   5
HETATM    5  C   UNL     1      -8.165   7.935  71.644  1.00  0.00    -0.115 C  
HETATM    6  O   UNL     1      -7.898   8.580  72.651  1.00  0.00    -0.289 OA 
BRANCH   5   7
HETATM    7  C   UNL     1      -7.217   6.947  70.981  1.00  0.00    -0.076 C  
BRANCH   7   8
HETATM    8  N   UNL     1      -7.512   5.550  71.355  1.00  0.00    -0.095 NA 
HETATM    9  C   UNL     1      -6.724   4.503  70.893  1.00  0.00    -0.035 C  
HETATM   10  C   UNL     1      -6.936   3.204  71.159  1.00  0.00    -0.032 C  
HETATM   11  I   UNL     1      -5.719   1.730  70.439  1.00  0.00    -0.019 I  
HETATM   12  C   UNL     1      -8.122   2.853  72.018  1.00  0.00    -0.058 C  
HETATM   13  C   UNL     1      -8.972   3.993  72.500  1.00  0.00    -0.109 C  
HETATM   14  O   UNL     1      -8.381   1.687  72.310  1.00  0.00    -0.051 OA 
HETATM   15  I   UNL     1     -10.619   3.629  73.657  1.00  0.00    -0.335 I  
HETATM   16  C   UNL     1      -8.613   5.236  72.141  1.00  0.00    -0.126 C  
ENDBRANCH   7   8
ENDBRANCH   5   7
ENDBRANCH   4   5
ENDBRANCH   3   4
ENDBRANCH   2   3
TORSDOF 5
ENDMDL
MODEL      340
REMARK 921   NORMALIZED FREE ENERGY PREDICTED BY IDOCK:    1.65 KCAL/MOL
REMARK 922        TOTAL FREE ENERGY PREDICTED BY IDOCK:    1.81 KCAL/MOL
REMARK 923 INTER-LIGAND FREE ENERGY PREDICTED BY IDOCK:   -2.89 KCAL/MOL
REMARK 924 INTRA-LIGAND FREE ENERGY PREDICTED BY IDOCK:    4.71 KCAL/MOL
REMARK 927      BINDING AFFINITY PREDICTED BY RF-SCORE:    0.00 PKD
ROOT
HETATM    1  C   UNL     1     -12.200  14.372  64.092  1.00  0.00    -0.393 C  
HETATM    2  C   UNL     1     -12.863  14.510  65.455  1.00  0.00    -0.124 C  
ENDROOT
BRANCH   2   3
HETATM    3  C   UNL     1     -12.383  13.407  66.389  1.00  0.00    -0.321 C  
BRANCH   3   4
HETATM    4  O   UNL     1     -11.709  12.362  65.672  1.00  0.00    -0.381 OA 
BRANCH   4   5
HETATM    5  C   UNL     1     -10.635  12.748  64.920  1.00  0.00    -0.314 C  
HETATM    6  O   UNL     1     -10.695  13.361  63.861  1.00  0.00    -0.254 OA 
BRANCH   5   7
HETATM    7  C   UNL     1      -9.339  12.366  65.620  1.00  0.00     0.054 C  
BRANCH   7   8
HETATM    8  N   UNL     1      -8.982  13.314  66.693  1.00  0.00    -0.179 NA 
HETATM    9  C   UNL     1      -9.475  14.613  66.697  1.00  0.00    -0.278 C  
HETATM   10  C   UNL     1      -9.179  15.546  67.615  1.00  0.00    -0.190 C  
HETATM   11  I   UNL     1      -9.958  17.433  67.543  1.00  0.00    -0.336 I  
HETATM   12  C   UNL     1      -8.234  15.161  68.722  1.00  0.00    -0.169 C  
HETATM   13  C   UNL     1      -7.699  13.758  68.699  1.00  0.00    -0.120 C  
HETATM   14  O   UNL     1      -7.918  15.958  69.604  1.00  0.00    -0.167 OA 
HETATM   15  I   UNL     1      -6.393  13.133  70.144  1.00  0.00     0.445 I  
HETATM   16  C   UNL     1      -8.103  12.951  67.705  1.00  0.00    -0.166 C  
ENDBRANCH   7   8
ENDBRANCH   5   7
ENDBRANCH   4   5
ENDBRANCH   3   4
ENDBRANCH   2   3
TORSDOF 5
ENDMDL
MODEL      341
REMARK 921   NORMALIZED FREE ENERGY PREDICTED BY IDOCK:    5.01 KCAL/MOL
REMARK 922        TOTAL FREE ENERGY PREDICTED BY IDOCK:    6.16 KCAL/MOL
REMARK 923 INTER-LIGAND FREE ENERGY PREDICTED BY IDOCK:    5.86 KCAL/MOL
REMARK 924 INTRA-LIGAND FREE ENERGY PREDICTED BY IDOCK:    0.30 KCAL/MOL
REMARK 927      BINDING AFFINITY PREDICTED BY RF-SCORE:    0.00 PKD
ROOT
HETATM    1  C   UNL     1     -10.653  12.954  63.872  1.00  0.00    -0.367 C  
HETATM    2  C   UNL     1      -9.500  12.501  64.756  1.00  0.00     0.305 C  
ENDROOT
BRANCH   2   3
HETATM    3  C   UNL     1     -10.004  11.546  65.831  1.00  0.00    -0.230 C  
BRANCH   3   4
HETATM    4  O   UNL     1      -9.716  10.179  65.502  1.00  0.00    -0.238 OA 
BRANCH   4   5
HETATM    5  C   UNL     1      -8.392   9.855  65.389  1.00  0.00    -0.146 C  
HETATM    6  O   UNL     1      -7.594  10.391  64.630  1.00  0.00    -0.131 OA 
BRANCH   5   7
HETATM    7  C   UNL     1      -8.028   8.774  66.395  1.00  0.00    -0.103 C  
BRANCH   7   8
HETATM    8  N   UNL     1      -8.431   7.429  65.943  1.00  0.00    -0.146 NA 
HETATM    9  C   UNL     1      -7.524   6.579  65.322  1.00  0.00    -0.082 C  
HETATM   10  C   UNL     1      -7.812   5.353  64.855  1.00  0.00    -0.102 C  
HETATM   11  I   UNL     1      -6.408   4.169  63.960  1.00  0.00    -0.036 I  
HETATM   12  C   UNL     1      -9.228   4.864  65.007  1.00  0.00    -0.102 C  
HETATM   13  C   UNL     1     -10.201   5.798  65.667  1.00  0.00     0.514 C  
HETATM   14  O   UNL     1      -9.569   3.752  64.609  1.00  0.00    -0.151 OA 
HETATM   15  I   UNL     1     -12.155   5.243  65.907  1.00  0.00     6.642 I  
HETATM   16  C   UNL     1      -9.742   6.990  66.080  1.00  0.00     0.236 C  
ENDBRANCH   7   8
ENDBRANCH   5   7
ENDBRANCH   4   5
ENDBRANCH   3   4
ENDBRANCH   2   3
TORSDOF 5
ENDMDL
MODEL      342
REMARK 921   NORMALIZED FREE ENERGY PREDICTED BY IDOCK:   13.11 KCAL/MOL
REMARK 922        TOTAL FREE ENERGY PREDICTED BY IDOCK:   16.63 KCAL/MOL
REMARK 923 INTER-LIGAND FREE ENERGY PREDICTED BY IDOCK:   11.96 KCAL/MOL
REMARK 924 INTRA-LIGAND FREE ENERGY PREDICTED BY IDOCK:    4.67 KCAL/MOL
REMARK 927      BINDING AFFINITY PREDICTED BY RF-SCORE:    0.00 PKD
ROOT
HETATM    1  C   UNL     1     -10.946   9.311  66.694  1.00  0.00     0.298 C  
HETATM    2  C   UNL     1      -9.617   8.937  66.053  1.00  0.00    -0.320 C  
ENDROOT
BRANCH   2   3
HETATM    3  C   UNL     1      -9.648   9.241  64.560  1.00  0.00     0.424 C  
BRANCH   3   4
HETATM    4  O   UNL     1      -8.612  10.160  64.186  1.00  0.00    -0.163 OA 
BRANCH   4   5
HETATM    5  C   UNL     1      -8.989  11.189  63.370  1.00  0.00    -0.092 C  
HETATM    6  O   UNL     1      -9.840  11.121  62.491  1.00  0.00    -0.173 OA 
BRANCH   5   7
HETATM    7  C   UNL     1      -8.249  12.462  63.752  1.00  0.00     3.774 C  
BRANCH   7   8
HETATM    8  N   UNL     1      -8.120  12.618  65.213  1.00  0.00     2.611 NA 
HETATM    9  C   UNL     1      -8.825  11.800  66.088  1.00  0.00    -0.107 C  
HETATM   10  C   UNL     1      -8.790  11.891  67.426  1.00  0.00    -0.171 C  
HETATM   11  I   UNL     1      -9.858  10.637  68.634  1.00  0.00    -0.220 I  
HETATM   12  C   UNL     1      -7.927  12.968  68.029  1.00  0.00    -0.155 C  
HETATM   13  C   UNL     1      -7.181  13.853  67.073  1.00  0.00     0.503 C  
HETATM   14  O   UNL     1      -7.837  13.112  69.247  1.00  0.00     0.270 OA 
HETATM   15  I   UNL     1      -5.994  15.360  67.783  1.00  0.00    -0.025 I  
HETATM   16  C   UNL     1      -7.328  13.619  65.760  1.00  0.00     5.505 C  
ENDBRANCH   7   8
ENDBRANCH   5   7
ENDBRANCH   4   5
ENDBRANCH   3   4
ENDBRANCH   2   3
TORSDOF 5
ENDMDL
