MODEL        1
REMARK 921   NORMALIZED FREE ENERGY PREDICTED BY IDOCK:   -5.47 KCAL/MOL
REMARK 922        TOTAL FREE ENERGY PREDICTED BY IDOCK:   -9.72 KCAL/MOL
REMARK 923 INTER-LIGAND FREE ENERGY PREDICTED BY IDOCK:   -8.66 KCAL/MOL
REMARK 924 INTRA-LIGAND FREE ENERGY PREDICTED BY IDOCK:   -1.06 KCAL/MOL
REMARK 927      BINDING AFFINITY PREDICTED BY RF-SCORE:    0.00 PKD
ROOT
HETATM    1  C   UNL     1     -12.559  15.303  73.712  1.00  0.00    -0.736 C  
HETATM    2  C   UNL     1     -13.732  15.719  72.835  1.00  0.00    -0.631 C  
ENDROOT
BRANCH   2   3
HETATM    3  C   UNL     1     -14.051  14.635  71.813  1.00  0.00    -0.505 C  
BRANCH   3   4
HETATM    4  O   UNL     1     -12.858  14.264  71.117  1.00  0.00    -0.324 OA 
BRANCH   4   5
HETATM    5  C   UNL     1     -12.632  12.920  70.949  1.00  0.00    -0.270 A  
HETATM    6  C   UNL     1     -13.067  11.946  71.863  1.00  0.00    -0.474 A  
HETATM    7  C   UNL     1     -12.788  10.587  71.687  1.00  0.00    -0.475 A  
HETATM    8  C   UNL     1     -12.178  10.177  70.506  1.00  0.00    -0.352 A  
HETATM    9  N   UNL     1     -13.317   9.644  72.575  1.00  0.00    -0.610 NA 
HETATM   10  H1  UNL     1     -13.114   8.653  72.446  1.00  0.00     0.000 HD 
HETATM   11  C   UNL     1     -11.743  11.119  69.577  1.00  0.00    -0.405 A  
HETATM   12  H2  UNL     1     -14.328   9.764  72.608  1.00  0.00     0.000 HD 
HETATM   13  C   UNL     1     -11.945  12.491  69.799  1.00  0.00    -0.359 A  
BRANCH  13  14
HETATM   14  C   UNL     1     -11.305  13.393  68.802  1.00  0.00    -0.292 C  
HETATM   15  O   UNL     1     -10.201  13.895  68.965  1.00  0.00    -0.179 OA 
BRANCH  14  16
HETATM   16  O   UNL     1     -12.218  13.767  67.876  1.00  0.00    -0.327 OA 
BRANCH  16  17
HETATM   17  C   UNL     1     -11.691  14.021  66.565  1.00  0.00    -0.394 C  
BRANCH  17  18
HETATM   18  C   UNL     1     -11.602  12.650  65.871  1.00  0.00    -0.396 C  
BRANCH  18  19
HETATM   19  N   UNL     1     -10.432  12.394  65.006  1.00  0.00    -0.286 NA 
BRANCH  19  20
HETATM   20  C   UNL     1     -10.899  12.252  63.615  1.00  0.00    -0.469 C  
HETATM   21  C   UNL     1     -12.404  12.072  63.471  1.00  0.00    -0.661 C  
ENDBRANCH  19  20
BRANCH  19  22
HETATM   22  C   UNL     1      -9.592  11.288  65.481  1.00  0.00    -0.228 C  
HETATM   23  C   UNL     1     -10.267  10.270  66.397  1.00  0.00    -0.290 C  
ENDBRANCH  19  22
ENDBRANCH  18  19
ENDBRANCH  17  18
ENDBRANCH  16  17
ENDBRANCH  14  16
ENDBRANCH  13  14
ENDBRANCH   4   5
ENDBRANCH   3   4
ENDBRANCH   2   3
TORSDOF 10
ENDMDL
MODEL        2
REMARK 921   NORMALIZED FREE ENERGY PREDICTED BY IDOCK:   -5.39 KCAL/MOL
REMARK 922        TOTAL FREE ENERGY PREDICTED BY IDOCK:   -9.59 KCAL/MOL
REMARK 923 INTER-LIGAND FREE ENERGY PREDICTED BY IDOCK:   -8.75 KCAL/MOL
REMARK 924 INTRA-LIGAND FREE ENERGY PREDICTED BY IDOCK:   -0.84 KCAL/MOL
REMARK 927      BINDING AFFINITY PREDICTED BY RF-SCORE:    0.00 PKD
ROOT
HETATM    1  C   UNL     1     -10.782   7.309  67.203  1.00  0.00    -0.413 C  
HETATM    2  C   UNL     1     -10.805   6.162  68.203  1.00  0.00    -0.389 C  
ENDROOT
BRANCH   2   3
HETATM    3  C   UNL     1     -11.146   6.671  69.598  1.00  0.00    -0.334 C  
BRANCH   3   4
HETATM    4  O   UNL     1     -10.728   8.031  69.729  1.00  0.00    -0.245 OA 
BRANCH   4   5
HETATM    5  C   UNL     1     -11.568   8.873  70.418  1.00  0.00    -0.101 A  
HETATM    6  C   UNL     1     -12.342   8.460  71.514  1.00  0.00    -0.343 A  
HETATM    7  C   UNL     1     -13.219   9.330  72.172  1.00  0.00    -0.461 A  
HETATM    8  C   UNL     1     -13.224  10.673  71.812  1.00  0.00    -0.526 A  
HETATM    9  N   UNL     1     -13.904   8.900  73.313  1.00  0.00    -1.162 NA 
HETATM   10  H1  UNL     1     -14.543   9.534  73.793  1.00  0.00     0.000 HD 
HETATM   11  C   UNL     1     -12.460  11.114  70.734  1.00  0.00    -0.479 A  
HETATM   12  H2  UNL     1     -13.222   8.558  73.989  1.00  0.00     0.000 HD 
HETATM   13  C   UNL     1     -11.648  10.219  70.018  1.00  0.00    -0.349 A  
BRANCH  13  14
HETATM   14  C   UNL     1     -11.000  10.788  68.804  1.00  0.00    -0.247 C  
HETATM   15  O   UNL     1      -9.799  11.013  68.729  1.00  0.00    -0.191 OA 
BRANCH  14  16
HETATM   16  O   UNL     1     -11.948  11.252  67.958  1.00  0.00    -0.621 OA 
BRANCH  16  17
HETATM   17  C   UNL     1     -11.768  12.608  67.521  1.00  0.00    -0.368 C  
BRANCH  17  18
HETATM   18  C   UNL     1     -12.000  12.597  66.000  1.00  0.00    -0.417 C  
BRANCH  18  19
HETATM   19  N   UNL     1     -10.821  12.769  65.125  1.00  0.00    -0.284 NA 
BRANCH  19  20
HETATM   20  C   UNL     1     -10.295  14.134  65.309  1.00  0.00    -0.388 C  
HETATM   21  C   UNL     1     -11.179  15.233  64.734  1.00  0.00    -0.405 C  
ENDBRANCH  19  20
BRANCH  19  22
HETATM   22  C   UNL     1     -11.079  12.400  63.728  1.00  0.00    -0.445 C  
HETATM   23  C   UNL     1     -12.492  11.923  63.403  1.00  0.00    -0.582 C  
ENDBRANCH  19  22
ENDBRANCH  18  19
ENDBRANCH  17  18
ENDBRANCH  16  17
ENDBRANCH  14  16
ENDBRANCH  13  14
ENDBRANCH   4   5
ENDBRANCH   3   4
ENDBRANCH   2   3
TORSDOF 10
ENDMDL
MODEL        3
REMARK 921   NORMALIZED FREE ENERGY PREDICTED BY IDOCK:   -5.31 KCAL/MOL
REMARK 922        TOTAL FREE ENERGY PREDICTED BY IDOCK:   -9.48 KCAL/MOL
REMARK 923 INTER-LIGAND FREE ENERGY PREDICTED BY IDOCK:   -8.57 KCAL/MOL
REMARK 924 INTRA-LIGAND FREE ENERGY PREDICTED BY IDOCK:   -0.91 KCAL/MOL
REMARK 927      BINDING AFFINITY PREDICTED BY RF-SCORE:    0.00 PKD
ROOT
HETATM    1  C   UNL     1     -10.986   6.793  67.283  1.00  0.00    -0.433 C  
HETATM    2  C   UNL     1     -10.564   5.947  68.477  1.00  0.00    -0.317 C  
ENDROOT
BRANCH   2   3
HETATM    3  C   UNL     1     -11.251   6.431  69.748  1.00  0.00    -0.419 C  
BRANCH   3   4
HETATM    4  O   UNL     1     -10.679   7.673  70.161  1.00  0.00    -0.233 OA 
BRANCH   4   5
HETATM    5  C   UNL     1     -11.536   8.600  70.703  1.00  0.00    -0.228 A  
HETATM    6  C   UNL     1     -12.493   8.283  71.682  1.00  0.00    -0.351 A  
HETATM    7  C   UNL     1     -13.380   9.239  72.188  1.00  0.00    -0.468 A  
HETATM    8  C   UNL     1     -13.221  10.567  71.807  1.00  0.00    -0.522 A  
HETATM    9  N   UNL     1     -14.257   8.900  73.223  1.00  0.00    -1.237 NA 
HETATM   10  H1  UNL     1     -14.903   9.597  73.592  1.00  0.00     0.000 HD 
HETATM   11  C   UNL     1     -12.275  10.913  70.844  1.00  0.00    -0.485 A  
HETATM   12  H2  UNL     1     -13.710   8.525  73.998  1.00  0.00     0.000 HD 
HETATM   13  C   UNL     1     -11.445   9.936  70.271  1.00  0.00    -0.349 A  
BRANCH  13  14
HETATM   14  C   UNL     1     -10.583  10.414  69.156  1.00  0.00    -0.228 C  
HETATM   15  O   UNL     1      -9.366  10.506  69.242  1.00  0.00    -0.199 OA 
BRANCH  14  16
HETATM   16  O   UNL     1     -11.353  10.967  68.191  1.00  0.00    -0.267 OA 
BRANCH  16  17
HETATM   17  C   UNL     1     -10.968  10.653  66.845  1.00  0.00    -0.161 C  
BRANCH  17  18
HETATM   18  C   UNL     1     -10.910  11.996  66.095  1.00  0.00    -0.286 C  
BRANCH  18  19
HETATM   19  N   UNL     1     -12.171  12.522  65.534  1.00  0.00    -0.597 NA 
BRANCH  19  20
HETATM   20  C   UNL     1     -12.149  12.335  64.072  1.00  0.00    -0.471 C  
HETATM   21  C   UNL     1     -10.753  12.275  63.466  1.00  0.00    -0.497 C  
ENDBRANCH  19  20
BRANCH  19  22
HETATM   22  C   UNL     1     -12.469  13.893  65.967  1.00  0.00    -0.461 C  
HETATM   23  C   UNL     1     -11.340  14.641  66.670  1.00  0.00    -0.358 C  
ENDBRANCH  19  22
ENDBRANCH  18  19
ENDBRANCH  17  18
ENDBRANCH  16  17
ENDBRANCH  14  16
ENDBRANCH  13  14
ENDBRANCH   4   5
ENDBRANCH   3   4
ENDBRANCH   2   3
TORSDOF 10
ENDMDL
MODEL        4
REMARK 921   NORMALIZED FREE ENERGY PREDICTED BY IDOCK:   -5.31 KCAL/MOL
REMARK 922        TOTAL FREE ENERGY PREDICTED BY IDOCK:   -9.47 KCAL/MOL
REMARK 923 INTER-LIGAND FREE ENERGY PREDICTED BY IDOCK:   -8.69 KCAL/MOL
REMARK 924 INTRA-LIGAND FREE ENERGY PREDICTED BY IDOCK:   -0.78 KCAL/MOL
REMARK 927      BINDING AFFINITY PREDICTED BY RF-SCORE:    0.00 PKD
ROOT
HETATM    1  C   UNL     1     -10.993   9.608  69.748  1.00  0.00    -0.266 C  
HETATM    2  C   UNL     1     -10.428  10.735  68.894  1.00  0.00    -0.228 C  
ENDROOT
BRANCH   2   3
HETATM    3  C   UNL     1     -11.147  10.807  67.553  1.00  0.00    -0.308 C  
BRANCH   3   4
HETATM    4  O   UNL     1     -12.060  11.906  67.556  1.00  0.00    -0.573 OA 
BRANCH   4   5
HETATM    5  C   UNL     1     -11.852  12.887  66.616  1.00  0.00    -0.395 A  
HETATM    6  C   UNL     1     -12.235  12.756  65.271  1.00  0.00    -0.535 A  
HETATM    7  C   UNL     1     -11.975  13.755  64.326  1.00  0.00    -0.443 A  
HETATM    8  C   UNL     1     -11.441  14.963  64.760  1.00  0.00    -0.410 A  
HETATM    9  N   UNL     1     -12.453  13.621  63.018  1.00  0.00    -0.973 NA 
HETATM   10  H1  UNL     1     -12.264  14.349  62.330  1.00  0.00     0.000 HD 
HETATM   11  C   UNL     1     -11.058  15.124  66.089  1.00  0.00    -0.311 A  
HETATM   12  H2  UNL     1     -13.460  13.468  63.057  1.00  0.00     0.000 HD 
HETATM   13  C   UNL     1     -11.238  14.087  67.018  1.00  0.00    -0.325 A  
BRANCH  13  14
HETATM   14  C   UNL     1     -10.656  14.336  68.365  1.00  0.00    -0.253 C  
HETATM   15  O   UNL     1      -9.453  14.436  68.567  1.00  0.00    -0.206 OA 
BRANCH  14  16
HETATM   16  O   UNL     1     -11.607  14.159  69.312  1.00  0.00    -0.264 OA 
BRANCH  16  17
HETATM   17  C   UNL     1     -12.158  15.366  69.859  1.00  0.00    -0.355 C  
BRANCH  17  18
HETATM   18  C   UNL     1     -12.271  15.131  71.376  1.00  0.00    -0.339 C  
BRANCH  18  19
HETATM   19  N   UNL     1     -13.627  15.056  71.959  1.00  0.00    -0.378 NA 
BRANCH  19  20
HETATM   20  C   UNL     1     -13.653  15.861  73.193  1.00  0.00    -0.499 C  
HETATM   21  C   UNL     1     -12.288  16.077  73.833  1.00  0.00    -0.694 C  
ENDBRANCH  19  20
BRANCH  19  22
HETATM   22  C   UNL     1     -14.111  13.680  72.120  1.00  0.00    -0.461 C  
HETATM   23  C   UNL     1     -13.059  12.578  72.044  1.00  0.00    -0.472 C  
ENDBRANCH  19  22
ENDBRANCH  18  19
ENDBRANCH  17  18
ENDBRANCH  16  17
ENDBRANCH  14  16
ENDBRANCH  13  14
ENDBRANCH   4   5
ENDBRANCH   3   4
ENDBRANCH   2   3
TORSDOF 10
ENDMDL
MODEL        5
REMARK 921   NORMALIZED FREE ENERGY PREDICTED BY IDOCK:   -5.31 KCAL/MOL
REMARK 922        TOTAL FREE ENERGY PREDICTED BY IDOCK:   -9.46 KCAL/MOL
REMARK 923 INTER-LIGAND FREE ENERGY PREDICTED BY IDOCK:   -8.73 KCAL/MOL
REMARK 924 INTRA-LIGAND FREE ENERGY PREDICTED BY IDOCK:   -0.74 KCAL/MOL
REMARK 927      BINDING AFFINITY PREDICTED BY RF-SCORE:    0.00 PKD
ROOT
HETATM    1  C   UNL     1     -13.617   8.899  71.777  1.00  0.00    -0.461 C  
HETATM    2  C   UNL     1     -12.545   9.972  71.648  1.00  0.00    -0.524 C  
ENDROOT
BRANCH   2   3
HETATM    3  C   UNL     1     -13.146  11.359  71.835  1.00  0.00    -0.400 C  
BRANCH   3   4
HETATM    4  O   UNL     1     -12.658  12.236  70.818  1.00  0.00    -0.303 OA 
BRANCH   4   5
HETATM    5  C   UNL     1     -12.440  13.543  71.179  1.00  0.00    -0.339 A  
HETATM    6  C   UNL     1     -12.967  14.117  72.348  1.00  0.00    -0.478 A  
HETATM    7  C   UNL     1     -12.762  15.462  72.671  1.00  0.00    -0.392 A  
HETATM    8  C   UNL     1     -11.903  16.216  71.879  1.00  0.00    -0.605 A  
HETATM    9  N   UNL     1     -13.230  15.968  73.888  1.00  0.00    -0.899 NA 
HETATM   10  H1  UNL     1     -13.080  16.949  74.124  1.00  0.00     0.000 HD 
HETATM   11  C   UNL     1     -11.359  15.673  70.717  1.00  0.00    -0.400 A  
HETATM   12  H2  UNL     1     -12.853  15.394  74.642  1.00  0.00     0.000 HD 
HETATM   13  C   UNL     1     -11.639  14.347  70.347  1.00  0.00    -0.288 A  
BRANCH  13  14
HETATM   14  C   UNL     1     -11.115  13.939  69.015  1.00  0.00    -0.268 C  
HETATM   15  O   UNL     1      -9.921  13.859  68.761  1.00  0.00    -0.213 OA 
BRANCH  14  16
HETATM   16  O   UNL     1     -12.120  13.951  68.109  1.00  0.00    -0.365 OA 
BRANCH  16  17
HETATM   17  C   UNL     1     -12.041  12.938  67.094  1.00  0.00    -0.219 C  
BRANCH  17  18
HETATM   18  C   UNL     1     -12.484  13.614  65.785  1.00  0.00    -0.477 C  
BRANCH  18  19
HETATM   19  N   UNL     1     -11.457  13.836  64.746  1.00  0.00    -0.341 NA 
BRANCH  19  20
HETATM   20  C   UNL     1     -11.354  15.284  64.490  1.00  0.00    -0.300 C  
HETATM   21  C   UNL     1     -10.513  16.045  65.507  1.00  0.00    -0.426 C  
ENDBRANCH  19  20
BRANCH  19  22
HETATM   22  C   UNL     1     -11.663  13.020  63.545  1.00  0.00    -0.471 C  
HETATM   23  C   UNL     1     -12.660  11.870  63.669  1.00  0.00    -0.555 C  
ENDBRANCH  19  22
ENDBRANCH  18  19
ENDBRANCH  17  18
ENDBRANCH  16  17
ENDBRANCH  14  16
ENDBRANCH  13  14
ENDBRANCH   4   5
ENDBRANCH   3   4
ENDBRANCH   2   3
TORSDOF 10
ENDMDL
MODEL        6
REMARK 921   NORMALIZED FREE ENERGY PREDICTED BY IDOCK:   -5.17 KCAL/MOL
REMARK 922        TOTAL FREE ENERGY PREDICTED BY IDOCK:   -9.25 KCAL/MOL
REMARK 923 INTER-LIGAND FREE ENERGY PREDICTED BY IDOCK:   -8.58 KCAL/MOL
REMARK 924 INTRA-LIGAND FREE ENERGY PREDICTED BY IDOCK:   -0.68 KCAL/MOL
REMARK 927      BINDING AFFINITY PREDICTED BY RF-SCORE:    0.00 PKD
ROOT
HETATM    1  C   UNL     1     -12.186  11.374  70.799  1.00  0.00    -0.475 C  
HETATM    2  C   UNL     1     -11.890  12.343  69.663  1.00  0.00    -0.380 C  
ENDROOT
BRANCH   2   3
HETATM    3  C   UNL     1     -11.342  11.600  68.451  1.00  0.00    -0.279 C  
BRANCH   3   4
HETATM    4  O   UNL     1     -11.877  12.171  67.255  1.00  0.00    -0.530 OA 
BRANCH   4   5
HETATM    5  C   UNL     1     -11.264  11.824  66.075  1.00  0.00    -0.296 A  
HETATM    6  C   UNL     1     -10.501  10.655  65.919  1.00  0.00    -0.243 A  
HETATM    7  C   UNL     1      -9.855  10.346  64.718  1.00  0.00    -0.340 A  
HETATM    8  C   UNL     1     -10.084  11.154  63.609  1.00  0.00    -0.432 A  
HETATM    9  N   UNL     1      -9.180   9.128  64.580  1.00  0.00    -0.441 NA 
HETATM   10  H1  UNL     1      -8.709   8.903  63.704  1.00  0.00     0.000 HD 
HETATM   11  C   UNL     1     -10.842  12.316  63.731  1.00  0.00    -0.495 A  
HETATM   12  H2  UNL     1      -9.829   8.373  64.801  1.00  0.00     0.000 HD 
HETATM   13  C   UNL     1     -11.416  12.671  64.962  1.00  0.00    -0.366 A  
BRANCH  13  14
HETATM   14  C   UNL     1     -12.077  14.005  64.990  1.00  0.00    -0.415 C  
HETATM   15  O   UNL     1     -13.275  14.155  65.181  1.00  0.00    -0.743 OA 
BRANCH  14  16
HETATM   16  O   UNL     1     -11.226  14.943  64.511  1.00  0.00    -0.341 OA 
BRANCH  16  17
HETATM   17  C   UNL     1     -10.184  15.342  65.414  1.00  0.00    -0.383 C  
BRANCH  17  18
HETATM   18  C   UNL     1     -10.659  16.657  66.055  1.00  0.00    -0.233 C  
BRANCH  18  19
HETATM   19  N   UNL     1      -9.794  17.845  65.904  1.00  0.00    -0.551 NA 
BRANCH  19  20
HETATM   20  C   UNL     1      -8.658  17.721  66.836  1.00  0.00    -0.244 C  
HETATM   21  C   UNL     1      -7.306  17.536  66.161  1.00  0.00    -0.347 C  
ENDBRANCH  19  20
BRANCH  19  22
HETATM   22  C   UNL     1     -10.528  19.112  66.005  1.00  0.00    -0.467 C  
HETATM   23  C   UNL     1     -10.373  19.882  67.314  1.00  0.00    -0.574 C  
ENDBRANCH  19  22
ENDBRANCH  18  19
ENDBRANCH  17  18
ENDBRANCH  16  17
ENDBRANCH  14  16
ENDBRANCH  13  14
ENDBRANCH   4   5
ENDBRANCH   3   4
ENDBRANCH   2   3
TORSDOF 10
ENDMDL
MODEL        7
REMARK 921   NORMALIZED FREE ENERGY PREDICTED BY IDOCK:   -5.15 KCAL/MOL
REMARK 922        TOTAL FREE ENERGY PREDICTED BY IDOCK:   -9.21 KCAL/MOL
REMARK 923 INTER-LIGAND FREE ENERGY PREDICTED BY IDOCK:   -8.56 KCAL/MOL
REMARK 924 INTRA-LIGAND FREE ENERGY PREDICTED BY IDOCK:   -0.65 KCAL/MOL
REMARK 927      BINDING AFFINITY PREDICTED BY RF-SCORE:    0.00 PKD
ROOT
HETATM    1  C   UNL     1     -13.053  15.730  73.350  1.00  0.00    -0.690 C  
HETATM    2  C   UNL     1     -13.735  15.329  72.049  1.00  0.00    -0.596 C  
ENDROOT
BRANCH   2   3
HETATM    3  C   UNL     1     -13.863  13.814  71.953  1.00  0.00    -0.409 C  
BRANCH   3   4
HETATM    4  O   UNL     1     -12.968  13.318  70.956  1.00  0.00    -0.255 OA 
BRANCH   4   5
HETATM    5  C   UNL     1     -12.689  11.973  70.988  1.00  0.00    -0.241 A  
HETATM    6  C   UNL     1     -13.123  11.121  72.017  1.00  0.00    -0.433 A  
HETATM    7  C   UNL     1     -12.790   9.763  72.046  1.00  0.00    -0.401 A  
HETATM    8  C   UNL     1     -12.123   9.215  70.955  1.00  0.00    -0.324 A  
HETATM    9  N   UNL     1     -13.318   8.935  73.042  1.00  0.00    -0.911 NA 
HETATM   10  H1  UNL     1     -13.076   7.944  73.062  1.00  0.00     0.000 HD 
HETATM   11  C   UNL     1     -11.687  10.033  69.916  1.00  0.00    -0.190 A  
HETATM   12  H2  UNL     1     -14.334   9.018  73.026  1.00  0.00     0.000 HD 
HETATM   13  C   UNL     1     -11.944  11.414  69.934  1.00  0.00    -0.434 A  
BRANCH  13  14
HETATM   14  C   UNL     1     -11.300  12.191  68.839  1.00  0.00    -0.283 C  
HETATM   15  O   UNL     1     -10.205  12.725  68.952  1.00  0.00    -0.127 OA 
BRANCH  14  16
HETATM   16  O   UNL     1     -12.203  12.431  67.860  1.00  0.00    -0.379 OA 
BRANCH  16  17
HETATM   17  C   UNL     1     -12.267  13.792  67.407  1.00  0.00    -0.254 C  
BRANCH  17  18
HETATM   18  C   UNL     1     -12.458  13.722  65.882  1.00  0.00    -0.468 C  
BRANCH  18  19
HETATM   19  N   UNL     1     -11.276  13.394  65.057  1.00  0.00    -0.308 NA 
BRANCH  19  20
HETATM   20  C   UNL     1     -10.306  14.500  65.166  1.00  0.00    -0.411 C  
HETATM   21  C   UNL     1     -10.923  15.889  65.074  1.00  0.00    -0.426 C  
ENDBRANCH  19  20
BRANCH  19  22
HETATM   22  C   UNL     1     -11.617  13.018  63.681  1.00  0.00    -0.449 C  
HETATM   23  C   UNL     1     -12.744  12.003  63.515  1.00  0.00    -0.567 C  
ENDBRANCH  19  22
ENDBRANCH  18  19
ENDBRANCH  17  18
ENDBRANCH  16  17
ENDBRANCH  14  16
ENDBRANCH  13  14
ENDBRANCH   4   5
ENDBRANCH   3   4
ENDBRANCH   2   3
TORSDOF 10
ENDMDL
MODEL        8
REMARK 921   NORMALIZED FREE ENERGY PREDICTED BY IDOCK:   -5.12 KCAL/MOL
REMARK 922        TOTAL FREE ENERGY PREDICTED BY IDOCK:   -9.18 KCAL/MOL
REMARK 923 INTER-LIGAND FREE ENERGY PREDICTED BY IDOCK:   -8.24 KCAL/MOL
REMARK 924 INTRA-LIGAND FREE ENERGY PREDICTED BY IDOCK:   -0.94 KCAL/MOL
REMARK 927      BINDING AFFINITY PREDICTED BY RF-SCORE:    0.00 PKD
ROOT
HETATM    1  C   UNL     1     -12.329  15.307  74.437  1.00  0.00    -0.710 C  
HETATM    2  C   UNL     1     -12.799  16.052  73.195  1.00  0.00    -0.620 C  
ENDROOT
BRANCH   2   3
HETATM    3  C   UNL     1     -11.892  15.747  72.009  1.00  0.00    -0.490 C  
BRANCH   3   4
HETATM    4  O   UNL     1     -12.666  15.200  70.940  1.00  0.00    -0.341 OA 
BRANCH   4   5
HETATM    5  C   UNL     1     -12.527  13.854  70.700  1.00  0.00    -0.366 A  
HETATM    6  C   UNL     1     -12.993  12.864  71.581  1.00  0.00    -0.410 A  
HETATM    7  C   UNL     1     -12.802  11.501  71.331  1.00  0.00    -0.384 A  
HETATM    8  C   UNL     1     -12.254  11.115  70.113  1.00  0.00    -0.417 A  
HETATM    9  N   UNL     1     -13.360  10.548  72.190  1.00  0.00    -0.569 NA 
HETATM   10  H1  UNL     1     -13.221   9.554  72.007  1.00  0.00     0.000 HD 
HETATM   11  C   UNL     1     -11.790  12.074  69.216  1.00  0.00    -0.377 A  
HETATM   12  H2  UNL     1     -14.361  10.726  72.262  1.00  0.00     0.000 HD 
HETATM   13  C   UNL     1     -11.901  13.443  69.510  1.00  0.00    -0.391 A  
BRANCH  13  14
HETATM   14  C   UNL     1     -11.238  14.354  68.536  1.00  0.00    -0.265 C  
HETATM   15  O   UNL     1     -11.705  14.612  67.436  1.00  0.00    -0.379 OA 
BRANCH  14  16
HETATM   16  O   UNL     1      -9.970  14.604  68.939  1.00  0.00    -0.232 OA 
BRANCH  16  17
HETATM   17  C   UNL     1      -9.655  15.989  69.145  1.00  0.00    -0.257 C  
BRANCH  17  18
HETATM   18  C   UNL     1      -8.753  16.398  67.968  1.00  0.00    -0.183 C  
BRANCH  18  19
HETATM   19  N   UNL     1      -8.882  17.776  67.451  1.00  0.00    -0.238 NA 
BRANCH  19  20
HETATM   20  C   UNL     1      -8.516  18.717  68.525  1.00  0.00    -0.345 C  
HETATM   21  C   UNL     1      -7.280  19.557  68.233  1.00  0.00    -0.338 C  
ENDBRANCH  19  20
BRANCH  19  22
HETATM   22  C   UNL     1     -10.184  18.041  66.829  1.00  0.00    -0.364 C  
HETATM   23  C   UNL     1     -10.818  19.395  67.132  1.00  0.00    -0.561 C  
ENDBRANCH  19  22
ENDBRANCH  18  19
ENDBRANCH  17  18
ENDBRANCH  16  17
ENDBRANCH  14  16
ENDBRANCH  13  14
ENDBRANCH   4   5
ENDBRANCH   3   4
ENDBRANCH   2   3
TORSDOF 10
ENDMDL
MODEL        9
REMARK 921   NORMALIZED FREE ENERGY PREDICTED BY IDOCK:   -5.11 KCAL/MOL
REMARK 922        TOTAL FREE ENERGY PREDICTED BY IDOCK:   -9.16 KCAL/MOL
REMARK 923 INTER-LIGAND FREE ENERGY PREDICTED BY IDOCK:   -8.36 KCAL/MOL
REMARK 924 INTRA-LIGAND FREE ENERGY PREDICTED BY IDOCK:   -0.80 KCAL/MOL
REMARK 927      BINDING AFFINITY PREDICTED BY RF-SCORE:    0.00 PKD
ROOT
HETATM    1  C   UNL     1     -12.276  15.882  71.460  1.00  0.00    -0.525 C  
HETATM    2  C   UNL     1     -12.405  14.771  70.427  1.00  0.00    -0.402 C  
ENDROOT
BRANCH   2   3
HETATM    3  C   UNL     1     -12.644  13.429  71.106  1.00  0.00    -0.345 C  
BRANCH   3   4
HETATM    4  O   UNL     1     -12.223  12.371  70.243  1.00  0.00    -0.327 OA 
BRANCH   4   5
HETATM    5  C   UNL     1     -12.253  11.099  70.762  1.00  0.00    -0.385 A  
HETATM    6  C   UNL     1     -13.093  10.720  71.822  1.00  0.00    -0.573 A  
HETATM    7  C   UNL     1     -13.073   9.428  72.358  1.00  0.00    -0.379 A  
HETATM    8  C   UNL     1     -12.296   8.458  71.734  1.00  0.00    -0.375 A  
HETATM    9  N   UNL     1     -13.988   9.071  73.353  1.00  0.00    -1.081 NA 
HETATM   10  H1  UNL     1     -13.975   8.128  73.743  1.00  0.00     0.000 HD 
HETATM   11  C   UNL     1     -11.459   8.802  70.676  1.00  0.00    -0.263 A  
HETATM   12  H2  UNL     1     -14.929   9.264  73.011  1.00  0.00     0.000 HD 
HETATM   13  C   UNL     1     -11.414  10.122  70.197  1.00  0.00    -0.368 A  
BRANCH  13  14
HETATM   14  C   UNL     1     -10.375  10.383  69.163  1.00  0.00    -0.222 C  
HETATM   15  O   UNL     1      -9.218  10.674  69.434  1.00  0.00    -0.158 OA 
BRANCH  14  16
HETATM   16  O   UNL     1     -10.964  10.517  67.952  1.00  0.00    -0.253 OA 
BRANCH  16  17
HETATM   17  C   UNL     1     -10.105  10.989  66.903  1.00  0.00    -0.210 C  
BRANCH  17  18
HETATM   18  C   UNL     1     -11.037  11.529  65.803  1.00  0.00    -0.210 C  
BRANCH  18  19
HETATM   19  N   UNL     1     -12.015  12.569  66.183  1.00  0.00    -0.569 NA 
BRANCH  19  20
HETATM   20  C   UNL     1     -12.684  13.052  64.962  1.00  0.00    -0.410 C  
HETATM   21  C   UNL     1     -12.250  12.347  63.684  1.00  0.00    -0.653 C  
ENDBRANCH  19  20
BRANCH  19  22
HETATM   22  C   UNL     1     -11.437  13.628  67.019  1.00  0.00    -0.343 C  
HETATM   23  C   UNL     1     -10.635  14.704  66.292  1.00  0.00    -0.306 C  
ENDBRANCH  19  22
ENDBRANCH  18  19
ENDBRANCH  17  18
ENDBRANCH  16  17
ENDBRANCH  14  16
ENDBRANCH  13  14
ENDBRANCH   4   5
ENDBRANCH   3   4
ENDBRANCH   2   3
TORSDOF 10
ENDMDL
MODEL       10
REMARK 921   NORMALIZED FREE ENERGY PREDICTED BY IDOCK:   -5.10 KCAL/MOL
REMARK 922        TOTAL FREE ENERGY PREDICTED BY IDOCK:   -9.13 KCAL/MOL
REMARK 923 INTER-LIGAND FREE ENERGY PREDICTED BY IDOCK:   -8.09 KCAL/MOL
REMARK 924 INTRA-LIGAND FREE ENERGY PREDICTED BY IDOCK:   -1.04 KCAL/MOL
REMARK 927      BINDING AFFINITY PREDICTED BY RF-SCORE:    0.00 PKD
ROOT
HETATM    1  C   UNL     1      -9.381   4.914  70.292  1.00  0.00    -0.216 C  
HETATM    2  C   UNL     1     -10.357   5.407  69.232  1.00  0.00    -0.322 C  
ENDROOT
BRANCH   2   3
HETATM    3  C   UNL     1     -11.390   6.344  69.845  1.00  0.00    -0.434 C  
BRANCH   3   4
HETATM    4  O   UNL     1     -10.805   7.630  70.058  1.00  0.00    -0.246 OA 
BRANCH   4   5
HETATM    5  C   UNL     1     -11.600   8.582  70.649  1.00  0.00    -0.194 A  
HETATM    6  C   UNL     1     -12.507   8.294  71.682  1.00  0.00    -0.351 A  
HETATM    7  C   UNL     1     -13.334   9.275  72.239  1.00  0.00    -0.477 A  
HETATM    8  C   UNL     1     -13.157  10.598  71.848  1.00  0.00    -0.563 A  
HETATM    9  N   UNL     1     -14.157   8.962  73.325  1.00  0.00    -1.248 NA 
HETATM   10  H1  UNL     1     -14.759   9.678  73.731  1.00  0.00     0.000 HD 
HETATM   11  C   UNL     1     -12.259  10.916  70.831  1.00  0.00    -0.485 A  
HETATM   12  H2  UNL     1     -13.578   8.570  74.067  1.00  0.00     0.000 HD 
HETATM   13  C   UNL     1     -11.494   9.915  70.211  1.00  0.00    -0.349 A  
BRANCH  13  14
HETATM   14  C   UNL     1     -10.685  10.368  69.047  1.00  0.00    -0.228 C  
HETATM   15  O   UNL     1      -9.551  10.814  69.152  1.00  0.00    -0.204 OA 
BRANCH  14  16
HETATM   16  O   UNL     1     -11.477  10.464  67.954  1.00  0.00    -0.392 OA 
BRANCH  16  17
HETATM   17  C   UNL     1     -10.891  11.141  66.831  1.00  0.00    -0.279 C  
BRANCH  17  18
HETATM   18  C   UNL     1     -11.649  12.473  66.696  1.00  0.00    -0.380 C  
BRANCH  18  19
HETATM   19  N   UNL     1     -10.852  13.718  66.696  1.00  0.00    -0.287 NA 
BRANCH  19  20
HETATM   20  C   UNL     1     -10.612  14.122  68.093  1.00  0.00    -0.246 C  
HETATM   21  C   UNL     1     -11.839  14.044  68.991  1.00  0.00    -0.391 C  
ENDBRANCH  19  20
BRANCH  19  22
HETATM   22  C   UNL     1     -11.425  14.770  65.848  1.00  0.00    -0.319 C  
HETATM   23  C   UNL     1     -11.955  14.330  64.486  1.00  0.00    -0.478 C  
ENDBRANCH  19  22
ENDBRANCH  18  19
ENDBRANCH  17  18
ENDBRANCH  16  17
ENDBRANCH  14  16
ENDBRANCH  13  14
ENDBRANCH   4   5
ENDBRANCH   3   4
ENDBRANCH   2   3
TORSDOF 10
ENDMDL
MODEL       11
REMARK 921   NORMALIZED FREE ENERGY PREDICTED BY IDOCK:   -5.09 KCAL/MOL
REMARK 922        TOTAL FREE ENERGY PREDICTED BY IDOCK:   -9.12 KCAL/MOL
REMARK 923 INTER-LIGAND FREE ENERGY PREDICTED BY IDOCK:   -8.34 KCAL/MOL
REMARK 924 INTRA-LIGAND FREE ENERGY PREDICTED BY IDOCK:   -0.78 KCAL/MOL
REMARK 927      BINDING AFFINITY PREDICTED BY RF-SCORE:    0.00 PKD
ROOT
HETATM    1  C   UNL     1     -12.879  10.253  70.981  1.00  0.00    -0.490 C  
HETATM    2  C   UNL     1     -12.076  11.352  70.298  1.00  0.00    -0.459 C  
ENDROOT
BRANCH   2   3
HETATM    3  C   UNL     1     -11.431  10.831  69.020  1.00  0.00    -0.298 C  
BRANCH   3   4
HETATM    4  O   UNL     1     -11.845  11.633  67.911  1.00  0.00    -0.543 OA 
BRANCH   4   5
HETATM    5  C   UNL     1     -11.264  11.358  66.697  1.00  0.00    -0.231 A  
HETATM    6  C   UNL     1     -10.494  10.208  66.455  1.00  0.00    -0.236 A  
HETATM    7  C   UNL     1      -9.881   9.973  65.220  1.00  0.00    -0.318 A  
HETATM    8  C   UNL     1     -10.151  10.837  64.164  1.00  0.00    -0.418 A  
HETATM    9  N   UNL     1      -9.198   8.773  64.997  1.00  0.00    -0.433 NA 
HETATM   10  H1  UNL     1      -8.751   8.601  64.096  1.00  0.00     0.000 HD 
HETATM   11  C   UNL     1     -10.918  11.981  64.372  1.00  0.00    -0.385 A  
HETATM   12  H2  UNL     1      -9.831   7.999  65.195  1.00  0.00     0.000 HD 
HETATM   13  C   UNL     1     -11.459  12.262  65.637  1.00  0.00    -0.416 A  
BRANCH  13  14
HETATM   14  C   UNL     1     -12.132  13.584  65.756  1.00  0.00    -0.433 C  
HETATM   15  O   UNL     1     -13.196  13.845  65.211  1.00  0.00    -0.774 OA 
BRANCH  14  16
HETATM   16  O   UNL     1     -11.278  14.481  66.301  1.00  0.00    -0.330 OA 
BRANCH  16  17
HETATM   17  C   UNL     1     -10.835  15.520  65.415  1.00  0.00    -0.390 C  
BRANCH  17  18
HETATM   18  C   UNL     1     -10.011  16.491  66.279  1.00  0.00    -0.329 C  
BRANCH  18  19
HETATM   19  N   UNL     1     -10.742  17.345  67.238  1.00  0.00    -0.276 NA 
BRANCH  19  20
HETATM   20  C   UNL     1     -10.517  18.756  66.876  1.00  0.00    -0.414 C  
HETATM   21  C   UNL     1     -10.167  19.659  68.051  1.00  0.00    -0.579 C  
ENDBRANCH  19  20
BRANCH  19  22
HETATM   22  C   UNL     1     -10.450  17.022  68.639  1.00  0.00    -0.363 C  
HETATM   23  C   UNL     1      -9.331  16.013  68.883  1.00  0.00    -0.231 C  
ENDBRANCH  19  22
ENDBRANCH  18  19
ENDBRANCH  17  18
ENDBRANCH  16  17
ENDBRANCH  14  16
ENDBRANCH  13  14
ENDBRANCH   4   5
ENDBRANCH   3   4
ENDBRANCH   2   3
TORSDOF 10
ENDMDL
MODEL       12
REMARK 921   NORMALIZED FREE ENERGY PREDICTED BY IDOCK:   -5.09 KCAL/MOL
REMARK 922        TOTAL FREE ENERGY PREDICTED BY IDOCK:   -9.12 KCAL/MOL
REMARK 923 INTER-LIGAND FREE ENERGY PREDICTED BY IDOCK:   -8.14 KCAL/MOL
REMARK 924 INTRA-LIGAND FREE ENERGY PREDICTED BY IDOCK:   -0.98 KCAL/MOL
REMARK 927      BINDING AFFINITY PREDICTED BY RF-SCORE:    0.00 PKD
ROOT
HETATM    1  C   UNL     1     -12.398   7.062  70.975  1.00  0.00    -0.402 C  
HETATM    2  C   UNL     1     -13.533   7.542  71.868  1.00  0.00    -0.308 C  
ENDROOT
BRANCH   2   3
HETATM    3  C   UNL     1     -13.773   9.035  71.678  1.00  0.00    -0.387 C  
BRANCH   3   4
HETATM    4  O   UNL     1     -12.676   9.611  70.966  1.00  0.00    -0.314 OA 
BRANCH   4   5
HETATM    5  C   UNL     1     -12.629  10.983  70.907  1.00  0.00    -0.391 A  
HETATM    6  C   UNL     1     -13.266  11.816  71.843  1.00  0.00    -0.468 A  
HETATM    7  C   UNL     1     -13.235  13.210  71.736  1.00  0.00    -0.403 A  
HETATM    8  C   UNL     1     -12.440  13.788  70.751  1.00  0.00    -0.441 A  
HETATM    9  N   UNL     1     -13.807  14.001  72.737  1.00  0.00    -0.676 NA 
HETATM   10  H1  UNL     1     -13.784  15.018  72.660  1.00  0.00     0.000 HD 
HETATM   11  C   UNL     1     -11.790  12.988  69.815  1.00  0.00    -0.381 A  
HETATM   12  H2  UNL     1     -13.396  13.737  73.632  1.00  0.00     0.000 HD 
HETATM   13  C   UNL     1     -11.896  11.588  69.870  1.00  0.00    -0.430 A  
BRANCH  13  14
HETATM   14  C   UNL     1     -11.274  10.862  68.729  1.00  0.00    -0.270 C  
HETATM   15  O   UNL     1     -10.395  10.023  68.869  1.00  0.00    -0.182 OA 
BRANCH  14  16
HETATM   16  O   UNL     1     -11.625  11.458  67.566  1.00  0.00    -0.497 OA 
BRANCH  16  17
HETATM   17  C   UNL     1     -10.725  11.235  66.469  1.00  0.00    -0.271 C  
BRANCH  17  18
HETATM   18  C   UNL     1      -9.965  12.558  66.269  1.00  0.00    -0.252 C  
BRANCH  18  19
HETATM   19  N   UNL     1     -10.296  13.366  65.077  1.00  0.00    -0.346 NA 
BRANCH  19  20
HETATM   20  C   UNL     1     -11.288  14.386  65.461  1.00  0.00    -0.334 C  
HETATM   21  C   UNL     1     -11.054  15.007  66.831  1.00  0.00    -0.331 C  
ENDBRANCH  19  20
BRANCH  19  22
HETATM   22  C   UNL     1     -10.679  12.553  63.916  1.00  0.00    -0.437 C  
HETATM   23  C   UNL     1     -12.091  12.762  63.378  1.00  0.00    -0.619 C  
ENDBRANCH  19  22
ENDBRANCH  18  19
ENDBRANCH  17  18
ENDBRANCH  16  17
ENDBRANCH  14  16
ENDBRANCH  13  14
ENDBRANCH   4   5
ENDBRANCH   3   4
ENDBRANCH   2   3
TORSDOF 10
ENDMDL
MODEL       13
REMARK 921   NORMALIZED FREE ENERGY PREDICTED BY IDOCK:   -5.08 KCAL/MOL
REMARK 922        TOTAL FREE ENERGY PREDICTED BY IDOCK:   -9.10 KCAL/MOL
REMARK 923 INTER-LIGAND FREE ENERGY PREDICTED BY IDOCK:   -8.14 KCAL/MOL
REMARK 924 INTRA-LIGAND FREE ENERGY PREDICTED BY IDOCK:   -0.96 KCAL/MOL
REMARK 927      BINDING AFFINITY PREDICTED BY RF-SCORE:    0.00 PKD
ROOT
HETATM    1  C   UNL     1     -12.178  14.485  70.927  1.00  0.00    -0.409 C  
HETATM    2  C   UNL     1     -11.683  15.674  70.114  1.00  0.00    -0.374 C  
ENDROOT
BRANCH   2   3
HETATM    3  C   UNL     1     -11.563  15.306  68.641  1.00  0.00    -0.354 C  
BRANCH   3   4
HETATM    4  O   UNL     1     -12.273  14.091  68.389  1.00  0.00    -0.332 OA 
BRANCH   4   5
HETATM    5  C   UNL     1     -12.010  13.455  67.199  1.00  0.00    -0.366 A  
HETATM    6  C   UNL     1     -12.348  13.996  65.947  1.00  0.00    -0.515 A  
HETATM    7  C   UNL     1     -12.106  13.308  64.754  1.00  0.00    -0.409 A  
HETATM    8  C   UNL     1     -11.390  12.117  64.802  1.00  0.00    -0.378 A  
HETATM    9  N   UNL     1     -12.377  13.922  63.526  1.00  0.00    -1.087 NA 
HETATM   10  H1  UNL     1     -12.200  13.421  62.656  1.00  0.00     0.000 HD 
HETATM   11  C   UNL     1     -11.034  11.561  66.028  1.00  0.00    -0.316 A  
HETATM   12  H2  UNL     1     -11.881  14.811  63.493  1.00  0.00     0.000 HD 
HETATM   13  C   UNL     1     -11.359  12.209  67.231  1.00  0.00    -0.398 A  
BRANCH  13  14
HETATM   14  C   UNL     1     -11.050  11.440  68.467  1.00  0.00    -0.235 C  
HETATM   15  O   UNL     1      -9.920  11.083  68.769  1.00  0.00    -0.195 OA 
BRANCH  14  16
HETATM   16  O   UNL     1     -12.200  10.983  69.017  1.00  0.00    -0.483 OA 
BRANCH  16  17
HETATM   17  C   UNL     1     -12.239  10.995  70.452  1.00  0.00    -0.373 C  
BRANCH  17  18
HETATM   18  C   UNL     1     -12.485   9.538  70.882  1.00  0.00    -0.202 C  
BRANCH  18  19
HETATM   19  N   UNL     1     -11.347   8.599  70.806  1.00  0.00    -0.263 NA 
BRANCH  19  20
HETATM   20  C   UNL     1     -11.865   7.223  70.913  1.00  0.00    -0.316 C  
HETATM   21  C   UNL     1     -11.388   6.283  69.814  1.00  0.00    -0.506 C  
ENDBRANCH  19  20
BRANCH  19  22
HETATM   22  C   UNL     1     -10.270   8.919  71.750  1.00  0.00    -0.344 C  
HETATM   23  C   UNL     1      -8.844   8.771  71.227  1.00  0.00    -0.288 C  
ENDBRANCH  19  22
ENDBRANCH  18  19
ENDBRANCH  17  18
ENDBRANCH  16  17
ENDBRANCH  14  16
ENDBRANCH  13  14
ENDBRANCH   4   5
ENDBRANCH   3   4
ENDBRANCH   2   3
TORSDOF 10
ENDMDL
MODEL       14
REMARK 921   NORMALIZED FREE ENERGY PREDICTED BY IDOCK:   -5.07 KCAL/MOL
REMARK 922        TOTAL FREE ENERGY PREDICTED BY IDOCK:   -9.10 KCAL/MOL
REMARK 923 INTER-LIGAND FREE ENERGY PREDICTED BY IDOCK:   -8.53 KCAL/MOL
REMARK 924 INTRA-LIGAND FREE ENERGY PREDICTED BY IDOCK:   -0.56 KCAL/MOL
REMARK 927      BINDING AFFINITY PREDICTED BY RF-SCORE:    0.00 PKD
ROOT
HETATM    1  C   UNL     1     -11.571   9.785  71.058  1.00  0.00    -0.455 C  
HETATM    2  C   UNL     1     -13.024  10.024  71.445  1.00  0.00    -0.517 C  
ENDROOT
BRANCH   2   3
HETATM    3  C   UNL     1     -13.221  11.452  71.940  1.00  0.00    -0.380 C  
BRANCH   3   4
HETATM    4  O   UNL     1     -12.784  12.372  70.938  1.00  0.00    -0.287 OA 
BRANCH   4   5
HETATM    5  C   UNL     1     -12.544  13.662  71.345  1.00  0.00    -0.328 A  
HETATM    6  C   UNL     1     -13.048  14.198  72.542  1.00  0.00    -0.554 A  
HETATM    7  C   UNL     1     -12.822  15.528  72.912  1.00  0.00    -0.457 A  
HETATM    8  C   UNL     1     -11.963  16.301  72.137  1.00  0.00    -0.575 A  
HETATM    9  N   UNL     1     -13.267  15.993  74.153  1.00  0.00    -0.868 NA 
HETATM   10  H1  UNL     1     -13.102  16.963  74.424  1.00  0.00     0.000 HD 
HETATM   11  C   UNL     1     -11.442  15.794  70.949  1.00  0.00    -0.438 A  
HETATM   12  H2  UNL     1     -12.888  15.387  74.880  1.00  0.00     0.000 HD 
HETATM   13  C   UNL     1     -11.744  14.487  70.534  1.00  0.00    -0.338 A  
BRANCH  13  14
HETATM   14  C   UNL     1     -11.242  14.123  69.180  1.00  0.00    -0.272 C  
HETATM   15  O   UNL     1     -10.059  14.158  68.873  1.00  0.00    -0.220 OA 
BRANCH  14  16
HETATM   16  O   UNL     1     -12.283  14.029  68.320  1.00  0.00    -0.328 OA 
BRANCH  16  17
HETATM   17  C   UNL     1     -11.924  13.945  66.932  1.00  0.00    -0.433 C  
BRANCH  17  18
HETATM   18  C   UNL     1     -11.699  12.451  66.642  1.00  0.00    -0.372 C  
BRANCH  18  19
HETATM   19  N   UNL     1     -11.184  12.081  65.308  1.00  0.00    -0.325 NA 
BRANCH  19  20
HETATM   20  C   UNL     1     -12.297  12.134  64.343  1.00  0.00    -0.330 C  
HETATM   21  C   UNL     1     -12.156  13.213  63.278  1.00  0.00    -0.460 C  
ENDBRANCH  19  20
BRANCH  19  22
HETATM   22  C   UNL     1     -10.437  10.817  65.306  1.00  0.00    -0.212 C  
HETATM   23  C   UNL     1      -9.692  10.473  64.020  1.00  0.00    -0.383 C  
ENDBRANCH  19  22
ENDBRANCH  18  19
ENDBRANCH  17  18
ENDBRANCH  16  17
ENDBRANCH  14  16
ENDBRANCH  13  14
ENDBRANCH   4   5
ENDBRANCH   3   4
ENDBRANCH   2   3
TORSDOF 10
ENDMDL
MODEL       15
REMARK 921   NORMALIZED FREE ENERGY PREDICTED BY IDOCK:   -5.05 KCAL/MOL
REMARK 922        TOTAL FREE ENERGY PREDICTED BY IDOCK:   -9.06 KCAL/MOL
REMARK 923 INTER-LIGAND FREE ENERGY PREDICTED BY IDOCK:   -7.99 KCAL/MOL
REMARK 924 INTRA-LIGAND FREE ENERGY PREDICTED BY IDOCK:   -1.06 KCAL/MOL
REMARK 927      BINDING AFFINITY PREDICTED BY RF-SCORE:    0.00 PKD
ROOT
HETATM    1  C   UNL     1     -11.874  15.929  72.164  1.00  0.00    -0.615 C  
HETATM    2  C   UNL     1     -12.800  15.374  71.091  1.00  0.00    -0.520 C  
ENDROOT
BRANCH   2   3
HETATM    3  C   UNL     1     -12.297  14.025  70.591  1.00  0.00    -0.375 C  
BRANCH   3   4
HETATM    4  O   UNL     1     -12.121  14.073  69.174  1.00  0.00    -0.346 OA 
BRANCH   4   5
HETATM    5  C   UNL     1     -11.665  12.927  68.567  1.00  0.00    -0.339 A  
HETATM    6  C   UNL     1     -11.330  11.763  69.277  1.00  0.00    -0.348 A  
HETATM    7  C   UNL     1     -10.830  10.623  68.638  1.00  0.00    -0.227 A  
HETATM    8  C   UNL     1     -10.791  10.600  67.248  1.00  0.00    -0.345 A  
HETATM    9  N   UNL     1     -10.592   9.457  69.373  1.00  0.00    -0.217 NA 
HETATM   10  H1  UNL     1     -10.228   8.626  68.906  1.00  0.00     0.000 HD 
HETATM   11  C   UNL     1     -11.125  11.737  66.516  1.00  0.00    -0.364 A  
HETATM   12  H2  UNL     1     -11.451   9.203  69.861  1.00  0.00     0.000 HD 
HETATM   13  C   UNL     1     -11.541  12.910  67.166  1.00  0.00    -0.421 A  
BRANCH  13  14
HETATM   14  C   UNL     1     -11.728  14.091  66.279  1.00  0.00    -0.387 C  
HETATM   15  O   UNL     1     -12.716  14.250  65.575  1.00  0.00    -0.472 OA 
BRANCH  14  16
HETATM   16  O   UNL     1     -10.562  14.770  66.175  1.00  0.00    -0.294 OA 
BRANCH  16  17
HETATM   17  C   UNL     1     -10.643  16.020  65.473  1.00  0.00    -0.398 C  
BRANCH  17  18
HETATM   18  C   UNL     1      -9.956  17.059  66.377  1.00  0.00    -0.307 C  
BRANCH  18  19
HETATM   19  N   UNL     1     -10.760  17.663  67.460  1.00  0.00    -0.335 NA 
BRANCH  19  20
HETATM   20  C   UNL     1     -10.616  19.129  67.391  1.00  0.00    -0.481 C  
HETATM   21  C   UNL     1     -10.367  19.671  65.990  1.00  0.00    -0.620 C  
ENDBRANCH  19  20
BRANCH  19  22
HETATM   22  C   UNL     1     -10.479  17.086  68.780  1.00  0.00    -0.347 C  
HETATM   23  C   UNL     1      -9.295  16.127  68.861  1.00  0.00    -0.235 C  
ENDBRANCH  19  22
ENDBRANCH  18  19
ENDBRANCH  17  18
ENDBRANCH  16  17
ENDBRANCH  14  16
ENDBRANCH  13  14
ENDBRANCH   4   5
ENDBRANCH   3   4
ENDBRANCH   2   3
TORSDOF 10
ENDMDL
MODEL       16
REMARK 921   NORMALIZED FREE ENERGY PREDICTED BY IDOCK:   -5.04 KCAL/MOL
REMARK 922        TOTAL FREE ENERGY PREDICTED BY IDOCK:   -9.05 KCAL/MOL
REMARK 923 INTER-LIGAND FREE ENERGY PREDICTED BY IDOCK:   -7.90 KCAL/MOL
REMARK 924 INTRA-LIGAND FREE ENERGY PREDICTED BY IDOCK:   -1.15 KCAL/MOL
REMARK 927      BINDING AFFINITY PREDICTED BY RF-SCORE:    0.00 PKD
ROOT
HETATM    1  C   UNL     1      -8.435  20.098  66.878  1.00  0.00    -0.376 C  
HETATM    2  C   UNL     1      -9.802  19.754  66.303  1.00  0.00    -0.557 C  
ENDROOT
BRANCH   2   3
HETATM    3  C   UNL     1     -10.725  19.220  67.392  1.00  0.00    -0.486 C  
BRANCH   3   4
HETATM    4  O   UNL     1     -11.149  17.897  67.057  1.00  0.00    -0.058 OA 
BRANCH   4   5
HETATM    5  C   UNL     1     -10.207  16.901  67.159  1.00  0.00    -0.297 A  
HETATM    6  C   UNL     1      -9.324  16.785  68.244  1.00  0.00    -0.230 A  
HETATM    7  C   UNL     1      -8.348  15.785  68.302  1.00  0.00    -0.163 A  
HETATM    8  C   UNL     1      -8.342  14.799  67.321  1.00  0.00    -0.234 A  
HETATM    9  N   UNL     1      -7.548  15.653  69.443  1.00  0.00    -0.222 NA 
HETATM   10  H1  UNL     1      -6.837  14.923  69.485  1.00  0.00     0.000 HD 
HETATM   11  C   UNL     1      -9.211  14.883  66.236  1.00  0.00    -0.301 A  
HETATM   12  H2  UNL     1      -8.158  15.558  70.254  1.00  0.00     0.000 HD 
HETATM   13  C   UNL     1     -10.131  15.940  66.135  1.00  0.00    -0.334 A  
BRANCH  13  14
HETATM   14  C   UNL     1     -10.898  15.990  64.860  1.00  0.00    -0.372 C  
HETATM   15  O   UNL     1     -11.336  17.027  64.382  1.00  0.00    -1.140 OA 
BRANCH  14  16
HETATM   16  O   UNL     1     -11.251  14.736  64.493  1.00  0.00    -0.349 OA 
BRANCH  16  17
HETATM   17  C   UNL     1     -12.527  14.292  64.980  1.00  0.00    -0.400 C  
BRANCH  17  18
HETATM   18  C   UNL     1     -12.438  12.758  65.064  1.00  0.00    -0.506 C  
BRANCH  18  19
HETATM   19  N   UNL     1     -12.013  12.166  66.349  1.00  0.00    -0.621 NA 
BRANCH  19  20
HETATM   20  C   UNL     1     -12.128  13.192  67.401  1.00  0.00    -0.263 C  
HETATM   21  C   UNL     1     -11.444  12.829  68.712  1.00  0.00    -0.347 C  
ENDBRANCH  19  20
BRANCH  19  22
HETATM   22  C   UNL     1     -10.700  11.513  66.278  1.00  0.00    -0.272 C  
HETATM   23  C   UNL     1     -10.229  11.089  64.890  1.00  0.00    -0.373 C  
ENDBRANCH  19  22
ENDBRANCH  18  19
ENDBRANCH  17  18
ENDBRANCH  16  17
ENDBRANCH  14  16
ENDBRANCH  13  14
ENDBRANCH   4   5
ENDBRANCH   3   4
ENDBRANCH   2   3
TORSDOF 10
ENDMDL
MODEL       17
REMARK 921   NORMALIZED FREE ENERGY PREDICTED BY IDOCK:   -5.04 KCAL/MOL
REMARK 922        TOTAL FREE ENERGY PREDICTED BY IDOCK:   -9.05 KCAL/MOL
REMARK 923 INTER-LIGAND FREE ENERGY PREDICTED BY IDOCK:   -8.24 KCAL/MOL
REMARK 924 INTRA-LIGAND FREE ENERGY PREDICTED BY IDOCK:   -0.81 KCAL/MOL
REMARK 927      BINDING AFFINITY PREDICTED BY RF-SCORE:    0.00 PKD
ROOT
HETATM    1  C   UNL     1     -10.339  18.450  67.560  1.00  0.00    -0.416 C  
HETATM    2  C   UNL     1     -10.816  17.081  68.024  1.00  0.00    -0.330 C  
ENDROOT
BRANCH   2   3
HETATM    3  C   UNL     1     -10.647  16.935  69.531  1.00  0.00    -0.239 C  
BRANCH   3   4
HETATM    4  O   UNL     1     -10.603  15.549  69.878  1.00  0.00    -0.273 OA 
BRANCH   4   5
HETATM    5  C   UNL     1     -11.517  15.113  70.806  1.00  0.00    -0.309 A  
HETATM    6  C   UNL     1     -11.799  15.808  71.994  1.00  0.00    -0.582 A  
HETATM    7  C   UNL     1     -12.706  15.321  72.941  1.00  0.00    -0.421 A  
HETATM    8  C   UNL     1     -13.446  14.185  72.634  1.00  0.00    -0.634 A  
HETATM    9  N   UNL     1     -13.020  16.089  74.066  1.00  0.00    -0.897 NA 
HETATM   10  H1  UNL     1     -13.682  15.734  74.757  1.00  0.00     0.000 HD 
HETATM   11  C   UNL     1     -13.195  13.479  71.460  1.00  0.00    -0.402 A  
HETATM   12  H2  UNL     1     -13.342  17.005  73.753  1.00  0.00     0.000 HD 
HETATM   13  C   UNL     1     -12.219  13.921  70.552  1.00  0.00    -0.443 A  
BRANCH  13  14
HETATM   14  C   UNL     1     -11.952  13.000  69.414  1.00  0.00    -0.281 C  
HETATM   15  O   UNL     1     -11.315  11.961  69.529  1.00  0.00    -0.263 OA 
BRANCH  14  16
HETATM   16  O   UNL     1     -12.266  13.613  68.249  1.00  0.00    -0.329 OA 
BRANCH  16  17
HETATM   17  C   UNL     1     -11.274  13.510  67.216  1.00  0.00    -0.298 C  
BRANCH  17  18
HETATM   18  C   UNL     1     -11.910  12.662  66.101  1.00  0.00    -0.418 C  
BRANCH  18  19
HETATM   19  N   UNL     1     -11.080  11.607  65.484  1.00  0.00    -0.272 NA 
BRANCH  19  20
HETATM   20  C   UNL     1      -9.767  11.590  66.155  1.00  0.00    -0.223 C  
HETATM   21  C   UNL     1      -8.756  10.634  65.535  1.00  0.00    -0.199 C  
ENDBRANCH  19  20
BRANCH  19  22
HETATM   22  C   UNL     1     -11.014  11.704  64.021  1.00  0.00    -0.387 C  
HETATM   23  C   UNL     1     -12.086  12.558  63.350  1.00  0.00    -0.621 C  
ENDBRANCH  19  22
ENDBRANCH  18  19
ENDBRANCH  17  18
ENDBRANCH  16  17
ENDBRANCH  14  16
ENDBRANCH  13  14
ENDBRANCH   4   5
ENDBRANCH   3   4
ENDBRANCH   2   3
TORSDOF 10
ENDMDL
MODEL       18
REMARK 921   NORMALIZED FREE ENERGY PREDICTED BY IDOCK:   -5.03 KCAL/MOL
REMARK 922        TOTAL FREE ENERGY PREDICTED BY IDOCK:   -9.03 KCAL/MOL
REMARK 923 INTER-LIGAND FREE ENERGY PREDICTED BY IDOCK:   -8.22 KCAL/MOL
REMARK 924 INTRA-LIGAND FREE ENERGY PREDICTED BY IDOCK:   -0.81 KCAL/MOL
REMARK 927      BINDING AFFINITY PREDICTED BY RF-SCORE:    0.00 PKD
ROOT
HETATM    1  C   UNL     1     -11.490  10.223  70.515  1.00  0.00    -0.427 C  
HETATM    2  C   UNL     1     -12.598  10.119  71.554  1.00  0.00    -0.537 C  
ENDROOT
BRANCH   2   3
HETATM    3  C   UNL     1     -13.133  11.500  71.912  1.00  0.00    -0.387 C  
BRANCH   3   4
HETATM    4  O   UNL     1     -12.706  12.449  70.932  1.00  0.00    -0.287 OA 
BRANCH   4   5
HETATM    5  C   UNL     1     -12.510  13.739  71.364  1.00  0.00    -0.318 A  
HETATM    6  C   UNL     1     -12.930  14.201  72.622  1.00  0.00    -0.505 A  
HETATM    7  C   UNL     1     -12.752  15.530  73.021  1.00  0.00    -0.454 A  
HETATM    8  C   UNL     1     -12.021  16.382  72.200  1.00  0.00    -0.479 A  
HETATM    9  N   UNL     1     -13.106  15.925  74.315  1.00  0.00    -0.838 NA 
HETATM   10  H1  UNL     1     -12.976  16.894  74.605  1.00  0.00     0.000 HD 
HETATM   11  C   UNL     1     -11.584  15.949  70.950  1.00  0.00    -0.456 A  
HETATM   12  H2  UNL     1     -12.623  15.322  74.980  1.00  0.00     0.000 HD 
HETATM   13  C   UNL     1     -11.842  14.639  70.514  1.00  0.00    -0.367 A  
BRANCH  13  14
HETATM   14  C   UNL     1     -11.450  14.353  69.108  1.00  0.00    -0.294 C  
HETATM   15  O   UNL     1     -12.184  13.787  68.309  1.00  0.00    -0.335 OA 
BRANCH  14  16
HETATM   16  O   UNL     1     -10.120  14.554  68.957  1.00  0.00    -0.227 OA 
BRANCH  16  17
HETATM   17  C   UNL     1      -9.747  15.359  67.829  1.00  0.00    -0.211 C  
BRANCH  17  18
HETATM   18  C   UNL     1      -8.712  16.371  68.354  1.00  0.00    -0.213 C  
BRANCH  18  19
HETATM   19  N   UNL     1      -9.152  17.770  68.534  1.00  0.00    -0.283 NA 
BRANCH  19  20
HETATM   20  C   UNL     1     -10.503  17.915  67.963  1.00  0.00    -0.382 C  
HETATM   21  C   UNL     1     -10.774  19.271  67.325  1.00  0.00    -0.594 C  
ENDBRANCH  19  20
BRANCH  19  22
HETATM   22  C   UNL     1      -8.176  18.750  68.045  1.00  0.00    -0.291 C  
HETATM   23  C   UNL     1      -7.447  19.569  69.107  1.00  0.00    -0.340 C  
ENDBRANCH  19  22
ENDBRANCH  18  19
ENDBRANCH  17  18
ENDBRANCH  16  17
ENDBRANCH  14  16
ENDBRANCH  13  14
ENDBRANCH   4   5
ENDBRANCH   3   4
ENDBRANCH   2   3
TORSDOF 10
ENDMDL
MODEL       19
REMARK 921   NORMALIZED FREE ENERGY PREDICTED BY IDOCK:   -5.03 KCAL/MOL
REMARK 922        TOTAL FREE ENERGY PREDICTED BY IDOCK:   -9.02 KCAL/MOL
REMARK 923 INTER-LIGAND FREE ENERGY PREDICTED BY IDOCK:   -7.98 KCAL/MOL
REMARK 924 INTRA-LIGAND FREE ENERGY PREDICTED BY IDOCK:   -1.04 KCAL/MOL
REMARK 927      BINDING AFFINITY PREDICTED BY RF-SCORE:    0.00 PKD
ROOT
HETATM    1  C   UNL     1     -12.381  16.028  72.409  1.00  0.00    -0.581 C  
HETATM    2  C   UNL     1     -13.138  15.518  71.191  1.00  0.00    -0.573 C  
ENDROOT
BRANCH   2   3
HETATM    3  C   UNL     1     -12.631  14.142  70.779  1.00  0.00    -0.362 C  
BRANCH   3   4
HETATM    4  O   UNL     1     -12.360  14.129  69.376  1.00  0.00    -0.326 OA 
BRANCH   4   5
HETATM    5  C   UNL     1     -11.928  12.941  68.839  1.00  0.00    -0.250 A  
HETATM    6  C   UNL     1     -11.740  11.776  69.601  1.00  0.00    -0.413 A  
HETATM    7  C   UNL     1     -11.261  10.589  69.036  1.00  0.00    -0.259 A  
HETATM    8  C   UNL     1     -11.093  10.526  67.657  1.00  0.00    -0.375 A  
HETATM    9  N   UNL     1     -11.172   9.430  69.814  1.00  0.00    -0.398 NA 
HETATM   10  H1  UNL     1     -10.823   8.565  69.401  1.00  0.00     0.000 HD 
HETATM   11  C   UNL     1     -11.281  11.663  66.874  1.00  0.00    -0.376 A  
HETATM   12  H2  UNL     1     -12.087   9.246  70.223  1.00  0.00     0.000 HD 
HETATM   13  C   UNL     1     -11.676  12.878  67.457  1.00  0.00    -0.422 A  
BRANCH  13  14
HETATM   14  C   UNL     1     -11.699  14.044  66.532  1.00  0.00    -0.394 C  
HETATM   15  O   UNL     1     -12.618  14.265  65.756  1.00  0.00    -0.454 OA 
BRANCH  14  16
HETATM   16  O   UNL     1     -10.474  14.620  66.497  1.00  0.00    -0.280 OA 
BRANCH  16  17
HETATM   17  C   UNL     1     -10.367  15.779  65.656  1.00  0.00    -0.388 C  
BRANCH  17  18
HETATM   18  C   UNL     1      -9.063  16.483  66.069  1.00  0.00    -0.255 C  
BRANCH  18  19
HETATM   19  N   UNL     1      -9.172  17.674  66.936  1.00  0.00    -0.256 NA 
BRANCH  19  20
HETATM   20  C   UNL     1      -9.033  17.248  68.340  1.00  0.00    -0.269 C  
HETATM   21  C   UNL     1     -10.353  17.062  69.076  1.00  0.00    -0.330 C  
ENDBRANCH  19  20
BRANCH  19  22
HETATM   22  C   UNL     1     -10.367  18.482  66.662  1.00  0.00    -0.408 C  
HETATM   23  C   UNL     1     -10.129  19.951  66.327  1.00  0.00    -0.613 C  
ENDBRANCH  19  22
ENDBRANCH  18  19
ENDBRANCH  17  18
ENDBRANCH  16  17
ENDBRANCH  14  16
ENDBRANCH  13  14
ENDBRANCH   4   5
ENDBRANCH   3   4
ENDBRANCH   2   3
TORSDOF 10
ENDMDL
MODEL       20
REMARK 921   NORMALIZED FREE ENERGY PREDICTED BY IDOCK:   -5.00 KCAL/MOL
REMARK 922        TOTAL FREE ENERGY PREDICTED BY IDOCK:   -8.98 KCAL/MOL
REMARK 923 INTER-LIGAND FREE ENERGY PREDICTED BY IDOCK:   -8.11 KCAL/MOL
REMARK 924 INTRA-LIGAND FREE ENERGY PREDICTED BY IDOCK:   -0.87 KCAL/MOL
REMARK 927      BINDING AFFINITY PREDICTED BY RF-SCORE:    0.00 PKD
ROOT
HETATM    1  C   UNL     1     -10.517   7.630  66.956  1.00  0.00    -0.419 C  
HETATM    2  C   UNL     1     -10.377   9.069  67.432  1.00  0.00    -0.335 C  
ENDROOT
BRANCH   2   3
HETATM    3  C   UNL     1      -9.383   9.160  68.583  1.00  0.00    -0.135 C  
BRANCH   3   4
HETATM    4  O   UNL     1      -9.762  10.221  69.462  1.00  0.00    -0.224 OA 
BRANCH   4   5
HETATM    5  C   UNL     1     -10.842   9.992  70.279  1.00  0.00    -0.313 A  
HETATM    6  C   UNL     1     -11.028   8.796  70.992  1.00  0.00    -0.328 A  
HETATM    7  C   UNL     1     -12.158   8.574  71.786  1.00  0.00    -0.333 A  
HETATM    8  C   UNL     1     -13.056   9.619  71.978  1.00  0.00    -0.537 A  
HETATM    9  N   UNL     1     -12.259   7.405  72.546  1.00  0.00    -0.525 NA 
HETATM   10  H1  UNL     1     -13.083   7.243  73.126  1.00  0.00     0.000 HD 
HETATM   11  C   UNL     1     -12.893  10.820  71.292  1.00  0.00    -0.540 A  
HETATM   12  H2  UNL     1     -11.431   7.331  73.136  1.00  0.00     0.000 HD 
HETATM   13  C   UNL     1     -11.804  11.008  70.425  1.00  0.00    -0.460 A  
BRANCH  13  14
HETATM   14  C   UNL     1     -11.829  12.277  69.647  1.00  0.00    -0.324 C  
HETATM   15  O   UNL     1     -11.856  13.383  70.169  1.00  0.00    -0.311 OA 
BRANCH  14  16
HETATM   16  O   UNL     1     -12.091  12.007  68.346  1.00  0.00    -0.412 OA 
BRANCH  16  17
HETATM   17  C   UNL     1     -11.686  13.024  67.417  1.00  0.00    -0.374 C  
BRANCH  17  18
HETATM   18  C   UNL     1     -11.687  12.356  66.031  1.00  0.00    -0.410 C  
BRANCH  18  19
HETATM   19  N   UNL     1     -10.763  12.893  65.011  1.00  0.00    -0.294 NA 
BRANCH  19  20
HETATM   20  C   UNL     1     -10.497  14.311  65.317  1.00  0.00    -0.389 C  
HETATM   21  C   UNL     1     -11.418  15.292  64.604  1.00  0.00    -0.356 C  
ENDBRANCH  19  20
BRANCH  19  22
HETATM   22  C   UNL     1     -11.210  12.642  63.636  1.00  0.00    -0.466 C  
HETATM   23  C   UNL     1     -12.580  11.988  63.478  1.00  0.00    -0.625 C  
ENDBRANCH  19  22
ENDBRANCH  18  19
ENDBRANCH  17  18
ENDBRANCH  16  17
ENDBRANCH  14  16
ENDBRANCH  13  14
ENDBRANCH   4   5
ENDBRANCH   3   4
ENDBRANCH   2   3
TORSDOF 10
ENDMDL
MODEL       21
REMARK 921   NORMALIZED FREE ENERGY PREDICTED BY IDOCK:   -5.00 KCAL/MOL
REMARK 922        TOTAL FREE ENERGY PREDICTED BY IDOCK:   -8.98 KCAL/MOL
REMARK 923 INTER-LIGAND FREE ENERGY PREDICTED BY IDOCK:   -8.20 KCAL/MOL
REMARK 924 INTRA-LIGAND FREE ENERGY PREDICTED BY IDOCK:   -0.78 KCAL/MOL
REMARK 927      BINDING AFFINITY PREDICTED BY RF-SCORE:    0.00 PKD
ROOT
HETATM    1  C   UNL     1      -9.191  17.341  68.457  1.00  0.00    -0.273 C  
HETATM    2  C   UNL     1      -9.016  15.864  68.778  1.00  0.00    -0.216 C  
ENDROOT
BRANCH   2   3
HETATM    3  C   UNL     1      -8.697  15.072  67.516  1.00  0.00    -0.184 C  
BRANCH   3   4
HETATM    4  O   UNL     1      -9.612  13.981  67.389  1.00  0.00    -0.217 OA 
BRANCH   4   5
HETATM    5  C   UNL     1     -10.471  14.015  66.318  1.00  0.00    -0.286 A  
HETATM    6  C   UNL     1     -10.718  15.175  65.566  1.00  0.00    -0.379 A  
HETATM    7  C   UNL     1     -11.630  15.191  64.504  1.00  0.00    -0.329 A  
HETATM    8  C   UNL     1     -12.206  13.991  64.101  1.00  0.00    -0.433 A  
HETATM    9  N   UNL     1     -11.778  16.345  63.728  1.00  0.00    -1.498 NA 
HETATM   10  H1  UNL     1     -12.442  16.356  62.954  1.00  0.00     0.000 HD 
HETATM   11  C   UNL     1     -11.974  12.823  64.822  1.00  0.00    -0.455 A  
HETATM   12  H2  UNL     1     -10.862  16.613  63.370  1.00  0.00     0.000 HD 
HETATM   13  C   UNL     1     -11.127  12.828  65.943  1.00  0.00    -0.318 A  
BRANCH  13  14
HETATM   14  C   UNL     1     -11.080  11.551  66.705  1.00  0.00    -0.295 C  
HETATM   15  O   UNL     1     -10.522  10.544  66.291  1.00  0.00    -0.235 OA 
BRANCH  14  16
HETATM   16  O   UNL     1     -11.952  11.606  67.739  1.00  0.00    -0.608 OA 
BRANCH  16  17
HETATM   17  C   UNL     1     -11.784  10.587  68.736  1.00  0.00    -0.120 C  
BRANCH  17  18
HETATM   18  C   UNL     1     -11.941  11.293  70.094  1.00  0.00    -0.369 C  
BRANCH  18  19
HETATM   19  N   UNL     1     -12.040  10.445  71.300  1.00  0.00    -0.370 NA 
BRANCH  19  20
HETATM   20  C   UNL     1     -11.437   9.133  71.003  1.00  0.00    -0.306 C  
HETATM   21  C   UNL     1     -10.114   8.873  71.711  1.00  0.00    -0.407 C  
ENDBRANCH  19  20
BRANCH  19  22
HETATM   22  C   UNL     1     -13.399  10.379  71.851  1.00  0.00    -0.364 C  
HETATM   23  C   UNL     1     -13.855   9.017  72.366  1.00  0.00    -0.540 C  
ENDBRANCH  19  22
ENDBRANCH  18  19
ENDBRANCH  17  18
ENDBRANCH  16  17
ENDBRANCH  14  16
ENDBRANCH  13  14
ENDBRANCH   4   5
ENDBRANCH   3   4
ENDBRANCH   2   3
TORSDOF 10
ENDMDL
MODEL       22
REMARK 921   NORMALIZED FREE ENERGY PREDICTED BY IDOCK:   -4.98 KCAL/MOL
REMARK 922        TOTAL FREE ENERGY PREDICTED BY IDOCK:   -8.95 KCAL/MOL
REMARK 923 INTER-LIGAND FREE ENERGY PREDICTED BY IDOCK:   -7.84 KCAL/MOL
REMARK 924 INTRA-LIGAND FREE ENERGY PREDICTED BY IDOCK:   -1.11 KCAL/MOL
REMARK 927      BINDING AFFINITY PREDICTED BY RF-SCORE:    0.00 PKD
ROOT
HETATM    1  C   UNL     1     -11.372  10.463  70.010  1.00  0.00    -0.384 C  
HETATM    2  C   UNL     1     -11.884  11.880  69.791  1.00  0.00    -0.411 C  
ENDROOT
BRANCH   2   3
HETATM    3  C   UNL     1     -11.552  12.361  68.384  1.00  0.00    -0.324 C  
BRANCH   3   4
HETATM    4  O   UNL     1     -12.149  13.640  68.160  1.00  0.00    -0.359 OA 
BRANCH   4   5
HETATM    5  C   UNL     1     -11.807  14.288  66.997  1.00  0.00    -0.428 A  
HETATM    6  C   UNL     1     -12.244  13.874  65.728  1.00  0.00    -0.488 A  
HETATM    7  C   UNL     1     -11.848  14.528  64.557  1.00  0.00    -0.446 A  
HETATM    8  C   UNL     1     -11.108  15.701  64.665  1.00  0.00    -0.387 A  
HETATM    9  N   UNL     1     -12.377  14.136  63.324  1.00  0.00    -1.133 NA 
HETATM   10  H1  UNL     1     -12.088  14.614  62.470  1.00  0.00     0.000 HD 
HETATM   11  C   UNL     1     -10.667  16.142  65.911  1.00  0.00    -0.261 A  
HETATM   12  H2  UNL     1     -13.394  14.170  63.384  1.00  0.00     0.000 HD 
HETATM   13  C   UNL     1     -10.991  15.431  67.078  1.00  0.00    -0.306 A  
BRANCH  13  14
HETATM   14  C   UNL     1     -10.339  15.927  68.321  1.00  0.00    -0.242 C  
HETATM   15  O   UNL     1     -10.951  16.477  69.226  1.00  0.00    -0.316 OA 
BRANCH  14  16
HETATM   16  O   UNL     1      -8.995  15.923  68.161  1.00  0.00    -0.178 OA 
BRANCH  16  17
HETATM   17  C   UNL     1      -8.320  17.102  68.623  1.00  0.00    -0.257 C  
BRANCH  17  18
HETATM   18  C   UNL     1      -7.726  17.769  67.370  1.00  0.00    -0.202 C  
BRANCH  18  19
HETATM   19  N   UNL     1      -8.205  19.123  67.021  1.00  0.00    -0.261 NA 
BRANCH  19  20
HETATM   20  C   UNL     1      -7.046  20.033  66.971  1.00  0.00    -0.228 C  
HETATM   21  C   UNL     1      -6.610  20.573  68.327  1.00  0.00    -0.315 C  
ENDBRANCH  19  20
BRANCH  19  22
HETATM   22  C   UNL     1      -9.304  19.585  67.877  1.00  0.00    -0.333 C  
HETATM   23  C   UNL     1     -10.684  19.655  67.228  1.00  0.00    -0.583 C  
ENDBRANCH  19  22
ENDBRANCH  18  19
ENDBRANCH  17  18
ENDBRANCH  16  17
ENDBRANCH  14  16
ENDBRANCH  13  14
ENDBRANCH   4   5
ENDBRANCH   3   4
ENDBRANCH   2   3
TORSDOF 10
ENDMDL
MODEL       23
REMARK 921   NORMALIZED FREE ENERGY PREDICTED BY IDOCK:   -4.97 KCAL/MOL
REMARK 922        TOTAL FREE ENERGY PREDICTED BY IDOCK:   -8.94 KCAL/MOL
REMARK 923 INTER-LIGAND FREE ENERGY PREDICTED BY IDOCK:   -8.04 KCAL/MOL
REMARK 924 INTRA-LIGAND FREE ENERGY PREDICTED BY IDOCK:   -0.90 KCAL/MOL
REMARK 927      BINDING AFFINITY PREDICTED BY RF-SCORE:    0.00 PKD
ROOT
HETATM    1  C   UNL     1     -12.454  14.137  70.462  1.00  0.00    -0.431 C  
HETATM    2  C   UNL     1     -11.801  12.931  69.801  1.00  0.00    -0.380 C  
ENDROOT
BRANCH   2   3
HETATM    3  C   UNL     1     -11.262  13.298  68.424  1.00  0.00    -0.280 C  
BRANCH   3   4
HETATM    4  O   UNL     1     -12.050  12.663  67.414  1.00  0.00    -0.432 OA 
BRANCH   4   5
HETATM    5  C   UNL     1     -11.368  12.007  66.418  1.00  0.00    -0.354 A  
HETATM    6  C   UNL     1     -10.774  10.747  66.593  1.00  0.00    -0.268 A  
HETATM    7  C   UNL     1     -10.052  10.119  65.573  1.00  0.00    -0.268 A  
HETATM    8  C   UNL     1     -10.035  10.702  64.310  1.00  0.00    -0.413 A  
HETATM    9  N   UNL     1      -9.553   8.826  65.763  1.00  0.00    -0.445 NA 
HETATM   10  H1  UNL     1      -9.026   8.369  65.019  1.00  0.00     0.000 HD 
HETATM   11  C   UNL     1     -10.622  11.947  64.104  1.00  0.00    -0.397 A  
HETATM   12  H2  UNL     1     -10.326   8.219  66.032  1.00  0.00     0.000 HD 
HETATM   13  C   UNL     1     -11.271  12.617  65.154  1.00  0.00    -0.336 A  
BRANCH  13  14
HETATM   14  C   UNL     1     -11.726  13.999  64.837  1.00  0.00    -0.380 C  
HETATM   15  O   UNL     1     -12.882  14.272  64.542  1.00  0.00    -0.637 OA 
BRANCH  14  16
HETATM   16  O   UNL     1     -10.651  14.802  64.661  1.00  0.00    -0.374 OA 
BRANCH  16  17
HETATM   17  C   UNL     1     -10.874  16.192  64.944  1.00  0.00    -0.334 C  
BRANCH  17  18
HETATM   18  C   UNL     1     -10.181  16.466  66.291  1.00  0.00    -0.330 C  
BRANCH  18  19
HETATM   19  N   UNL     1     -10.660  17.614  67.088  1.00  0.00    -0.316 NA 
BRANCH  19  20
HETATM   20  C   UNL     1     -10.364  18.855  66.349  1.00  0.00    -0.443 C  
HETATM   21  C   UNL     1     -10.095  20.065  67.234  1.00  0.00    -0.577 C  
ENDBRANCH  19  20
BRANCH  19  22
HETATM   22  C   UNL     1     -10.175  17.599  68.473  1.00  0.00    -0.386 C  
HETATM   23  C   UNL     1      -9.147  16.525  68.819  1.00  0.00    -0.256 C  
ENDBRANCH  19  22
ENDBRANCH  18  19
ENDBRANCH  17  18
ENDBRANCH  16  17
ENDBRANCH  14  16
ENDBRANCH  13  14
ENDBRANCH   4   5
ENDBRANCH   3   4
ENDBRANCH   2   3
TORSDOF 10
ENDMDL
MODEL       24
REMARK 921   NORMALIZED FREE ENERGY PREDICTED BY IDOCK:   -4.94 KCAL/MOL
REMARK 922        TOTAL FREE ENERGY PREDICTED BY IDOCK:   -8.89 KCAL/MOL
REMARK 923 INTER-LIGAND FREE ENERGY PREDICTED BY IDOCK:   -8.01 KCAL/MOL
REMARK 924 INTRA-LIGAND FREE ENERGY PREDICTED BY IDOCK:   -0.88 KCAL/MOL
REMARK 927      BINDING AFFINITY PREDICTED BY RF-SCORE:    0.00 PKD
ROOT
HETATM    1  C   UNL     1      -9.299  10.065  62.901  1.00  0.00    -0.290 C  
HETATM    2  C   UNL     1      -9.913  11.301  63.544  1.00  0.00    -0.417 C  
ENDROOT
BRANCH   2   3
HETATM    3  C   UNL     1      -9.938  11.163  65.061  1.00  0.00    -0.273 C  
BRANCH   3   4
HETATM    4  O   UNL     1     -11.283  11.277  65.531  1.00  0.00    -0.148 OA 
BRANCH   4   5
HETATM    5  C   UNL     1     -11.459  11.835  66.775  1.00  0.00    -0.281 A  
HETATM    6  C   UNL     1     -11.293  11.116  67.970  1.00  0.00    -0.380 A  
HETATM    7  C   UNL     1     -11.518  11.699  69.222  1.00  0.00    -0.300 A  
HETATM    8  C   UNL     1     -11.783  13.062  69.287  1.00  0.00    -0.375 A  
HETATM    9  N   UNL     1     -11.256  10.972  70.388  1.00  0.00    -0.462 NA 
HETATM   10  H1  UNL     1     -11.419  11.397  71.301  1.00  0.00     0.000 HD 
HETATM   11  C   UNL     1     -11.945  13.803  68.118  1.00  0.00    -0.394 A  
HETATM   12  H2  UNL     1     -10.292  10.644  70.354  1.00  0.00     0.000 HD 
HETATM   13  C   UNL     1     -11.807  13.195  66.860  1.00  0.00    -0.444 A  
BRANCH  13  14
HETATM   14  C   UNL     1     -12.147  14.062  65.699  1.00  0.00    -0.417 C  
HETATM   15  O   UNL     1     -13.264  14.109  65.202  1.00  0.00    -0.743 OA 
BRANCH  14  16
HETATM   16  O   UNL     1     -11.010  14.543  65.143  1.00  0.00    -0.334 OA 
BRANCH  16  17
HETATM   17  C   UNL     1     -10.998  15.958  64.903  1.00  0.00    -0.411 C  
BRANCH  17  18
HETATM   18  C   UNL     1     -10.313  16.590  66.128  1.00  0.00    -0.334 C  
BRANCH  18  19
HETATM   19  N   UNL     1      -9.218  17.551  65.882  1.00  0.00    -0.513 NA 
BRANCH  19  20
HETATM   20  C   UNL     1      -7.936  16.893  66.189  1.00  0.00    -0.255 C  
HETATM   21  C   UNL     1      -6.714  17.785  66.022  1.00  0.00    -0.316 C  
ENDBRANCH  19  20
BRANCH  19  22
HETATM   22  C   UNL     1      -9.418  18.839  66.557  1.00  0.00    -0.338 C  
HETATM   23  C   UNL     1     -10.373  19.818  65.880  1.00  0.00    -0.582 C  
ENDBRANCH  19  22
ENDBRANCH  18  19
ENDBRANCH  17  18
ENDBRANCH  16  17
ENDBRANCH  14  16
ENDBRANCH  13  14
ENDBRANCH   4   5
ENDBRANCH   3   4
ENDBRANCH   2   3
TORSDOF 10
ENDMDL
MODEL       25
REMARK 921   NORMALIZED FREE ENERGY PREDICTED BY IDOCK:   -4.92 KCAL/MOL
REMARK 922        TOTAL FREE ENERGY PREDICTED BY IDOCK:   -8.85 KCAL/MOL
REMARK 923 INTER-LIGAND FREE ENERGY PREDICTED BY IDOCK:   -7.83 KCAL/MOL
REMARK 924 INTRA-LIGAND FREE ENERGY PREDICTED BY IDOCK:   -1.02 KCAL/MOL
REMARK 927      BINDING AFFINITY PREDICTED BY RF-SCORE:    0.00 PKD
ROOT
HETATM    1  C   UNL     1     -12.684  11.773  63.339  1.00  0.00    -0.395 C  
HETATM    2  C   UNL     1     -11.905  13.044  63.646  1.00  0.00    -0.580 C  
ENDROOT
BRANCH   2   3
HETATM    3  C   UNL     1     -12.272  13.582  65.023  1.00  0.00    -0.419 C  
BRANCH   3   4
HETATM    4  O   UNL     1     -11.082  13.866  65.761  1.00  0.00    -0.292 OA 
BRANCH   4   5
HETATM    5  C   UNL     1     -11.233  14.562  66.936  1.00  0.00    -0.336 A  
HETATM    6  C   UNL     1     -11.851  14.021  68.076  1.00  0.00    -0.403 A  
HETATM    7  C   UNL     1     -12.028  14.765  69.247  1.00  0.00    -0.294 A  
HETATM    8  C   UNL     1     -11.456  16.030  69.328  1.00  0.00    -0.350 A  
HETATM    9  N   UNL     1     -12.569  14.159  70.385  1.00  0.00    -0.347 NA 
HETATM   10  H1  UNL     1     -12.697  14.701  71.240  1.00  0.00     0.000 HD 
HETATM   11  C   UNL     1     -10.829  16.590  68.217  1.00  0.00    -0.352 A  
HETATM   12  H2  UNL     1     -12.012  13.334  70.608  1.00  0.00     0.000 HD 
HETATM   13  C   UNL     1     -10.732  15.874  67.012  1.00  0.00    -0.292 A  
BRANCH  13  14
HETATM   14  C   UNL     1     -10.170  16.639  65.866  1.00  0.00    -0.340 C  
HETATM   15  O   UNL     1     -10.848  17.355  65.142  1.00  0.00    -0.642 OA 
BRANCH  14  16
HETATM   16  O   UNL     1      -8.914  16.209  65.605  1.00  0.00    -0.370 OA 
BRANCH  16  17
HETATM   17  C   UNL     1      -7.925  16.579  66.578  1.00  0.00    -0.310 C  
BRANCH  17  18
HETATM   18  C   UNL     1      -7.290  17.883  66.063  1.00  0.00    -0.271 C  
BRANCH  18  19
HETATM   19  N   UNL     1      -7.583  19.128  66.803  1.00  0.00    -0.232 NA 
BRANCH  19  20
HETATM   20  C   UNL     1      -7.863  18.783  68.209  1.00  0.00    -0.305 C  
HETATM   21  C   UNL     1      -6.986  19.508  69.222  1.00  0.00    -0.385 C  
ENDBRANCH  19  20
BRANCH  19  22
HETATM   22  C   UNL     1      -8.614  19.953  66.163  1.00  0.00    -0.312 C  
HETATM   23  C   UNL     1      -9.847  20.270  67.004  1.00  0.00    -0.607 C  
ENDBRANCH  19  22
ENDBRANCH  18  19
ENDBRANCH  17  18
ENDBRANCH  16  17
ENDBRANCH  14  16
ENDBRANCH  13  14
ENDBRANCH   4   5
ENDBRANCH   3   4
ENDBRANCH   2   3
TORSDOF 10
ENDMDL
MODEL       26
REMARK 921   NORMALIZED FREE ENERGY PREDICTED BY IDOCK:   -4.92 KCAL/MOL
REMARK 922        TOTAL FREE ENERGY PREDICTED BY IDOCK:   -8.85 KCAL/MOL
REMARK 923 INTER-LIGAND FREE ENERGY PREDICTED BY IDOCK:   -7.99 KCAL/MOL
REMARK 924 INTRA-LIGAND FREE ENERGY PREDICTED BY IDOCK:   -0.86 KCAL/MOL
REMARK 927      BINDING AFFINITY PREDICTED BY RF-SCORE:    0.00 PKD
ROOT
HETATM    1  C   UNL     1     -12.280  13.163  65.595  1.00  0.00    -0.521 C  
HETATM    2  C   UNL     1     -11.250  13.765  66.541  1.00  0.00    -0.319 C  
ENDROOT
BRANCH   2   3
HETATM    3  C   UNL     1     -11.935  14.473  67.703  1.00  0.00    -0.320 C  
BRANCH   3   4
HETATM    4  O   UNL     1     -11.284  14.126  68.928  1.00  0.00    -0.242 OA 
BRANCH   4   5
HETATM    5  C   UNL     1     -12.090  13.928  70.023  1.00  0.00    -0.345 A  
HETATM    6  C   UNL     1     -12.625  14.980  70.784  1.00  0.00    -0.429 A  
HETATM    7  C   UNL     1     -13.410  14.750  71.919  1.00  0.00    -0.359 A  
HETATM    8  C   UNL     1     -13.779  13.443  72.222  1.00  0.00    -0.705 A  
HETATM    9  N   UNL     1     -13.995  15.825  72.595  1.00  0.00    -0.560 NA 
HETATM   10  H1  UNL     1     -14.568  15.657  73.422  1.00  0.00     0.000 HD 
HETATM   11  C   UNL     1     -13.270  12.380  71.481  1.00  0.00    -0.285 A  
HETATM   12  H2  UNL     1     -14.544  16.366  71.927  1.00  0.00     0.000 HD 
HETATM   13  C   UNL     1     -12.409  12.610  70.395  1.00  0.00    -0.315 A  
BRANCH  13  14
HETATM   14  C   UNL     1     -11.825  11.386  69.782  1.00  0.00    -0.364 C  
HETATM   15  O   UNL     1     -12.031  11.054  68.622  1.00  0.00    -0.496 OA 
BRANCH  14  16
HETATM   16  O   UNL     1     -11.296  10.601  70.749  1.00  0.00    -0.301 OA 
BRANCH  16  17
HETATM   17  C   UNL     1     -11.090   9.229  70.380  1.00  0.00    -0.255 C  
BRANCH  17  18
HETATM   18  C   UNL     1     -11.522   8.393  71.597  1.00  0.00    -0.287 C  
BRANCH  18  19
HETATM   19  N   UNL     1     -12.169   7.090  71.339  1.00  0.00    -0.346 NA 
BRANCH  19  20
HETATM   20  C   UNL     1     -11.589   6.512  70.113  1.00  0.00    -0.402 C  
HETATM   21  C   UNL     1     -10.558   5.418  70.358  1.00  0.00    -0.322 C  
ENDBRANCH  19  20
BRANCH  19  22
HETATM   22  C   UNL     1     -13.635   7.161  71.343  1.00  0.00    -0.275 C  
HETATM   23  C   UNL     1     -14.249   8.444  71.896  1.00  0.00    -0.541 C  
ENDBRANCH  19  22
ENDBRANCH  18  19
ENDBRANCH  17  18
ENDBRANCH  16  17
ENDBRANCH  14  16
ENDBRANCH  13  14
ENDBRANCH   4   5
ENDBRANCH   3   4
ENDBRANCH   2   3
TORSDOF 10
ENDMDL
MODEL       27
REMARK 921   NORMALIZED FREE ENERGY PREDICTED BY IDOCK:   -4.90 KCAL/MOL
REMARK 922        TOTAL FREE ENERGY PREDICTED BY IDOCK:   -8.81 KCAL/MOL
REMARK 923 INTER-LIGAND FREE ENERGY PREDICTED BY IDOCK:   -7.91 KCAL/MOL
REMARK 924 INTRA-LIGAND FREE ENERGY PREDICTED BY IDOCK:   -0.90 KCAL/MOL
REMARK 927      BINDING AFFINITY PREDICTED BY RF-SCORE:    0.00 PKD
ROOT
HETATM    1  C   UNL     1      -9.290  10.090  63.761  1.00  0.00    -0.307 C  
HETATM    2  C   UNL     1      -9.584  11.281  62.860  1.00  0.00    -0.377 C  
ENDROOT
BRANCH   2   3
HETATM    3  C   UNL     1     -10.817  12.033  63.346  1.00  0.00    -0.405 C  
BRANCH   3   4
HETATM    4  O   UNL     1     -10.415  13.195  64.076  1.00  0.00    -0.405 OA 
BRANCH   4   5
HETATM    5  C   UNL     1     -10.924  13.337  65.343  1.00  0.00    -0.284 A  
HETATM    6  C   UNL     1     -11.216  12.248  66.182  1.00  0.00    -0.372 A  
HETATM    7  C   UNL     1     -11.772  12.421  67.454  1.00  0.00    -0.347 A  
HETATM    8  C   UNL     1     -11.916  13.711  67.951  1.00  0.00    -0.382 A  
HETATM    9  N   UNL     1     -11.963  11.315  68.289  1.00  0.00    -0.621 NA 
HETATM   10  H1  UNL     1     -12.368  11.441  69.217  1.00  0.00     0.000 HD 
HETATM   11  C   UNL     1     -11.628  14.811  67.146  1.00  0.00    -0.373 A  
HETATM   12  H2  UNL     1     -11.072  10.829  68.389  1.00  0.00     0.000 HD 
HETATM   13  C   UNL     1     -11.154  14.634  65.836  1.00  0.00    -0.338 A  
BRANCH  13  14
HETATM   14  C   UNL     1     -11.024  15.884  65.038  1.00  0.00    -0.412 C  
HETATM   15  O   UNL     1     -11.677  16.104  64.027  1.00  0.00    -0.829 OA 
BRANCH  14  16
HETATM   16  O   UNL     1      -9.925  16.566  65.436  1.00  0.00    -0.552 OA 
BRANCH  16  17
HETATM   17  C   UNL     1     -10.184  17.819  66.087  1.00  0.00    -0.339 C  
BRANCH  17  18
HETATM   18  C   UNL     1      -8.807  18.459  66.338  1.00  0.00    -0.248 C  
BRANCH  18  19
HETATM   19  N   UNL     1      -7.967  17.881  67.407  1.00  0.00    -0.211 NA 
BRANCH  19  20
HETATM   20  C   UNL     1      -8.837  17.508  68.537  1.00  0.00    -0.282 C  
HETATM   21  C   UNL     1      -8.717  16.052  68.970  1.00  0.00    -0.245 C  
ENDBRANCH  19  20
BRANCH  19  22
HETATM   22  C   UNL     1      -6.829  18.733  67.772  1.00  0.00    -0.214 C  
HETATM   23  C   UNL     1      -6.820  19.279  69.197  1.00  0.00    -0.371 C  
ENDBRANCH  19  22
ENDBRANCH  18  19
ENDBRANCH  17  18
ENDBRANCH  16  17
ENDBRANCH  14  16
ENDBRANCH  13  14
ENDBRANCH   4   5
ENDBRANCH   3   4
ENDBRANCH   2   3
TORSDOF 10
ENDMDL
MODEL       28
REMARK 921   NORMALIZED FREE ENERGY PREDICTED BY IDOCK:   -4.89 KCAL/MOL
REMARK 922        TOTAL FREE ENERGY PREDICTED BY IDOCK:   -8.80 KCAL/MOL
REMARK 923 INTER-LIGAND FREE ENERGY PREDICTED BY IDOCK:   -7.57 KCAL/MOL
REMARK 924 INTRA-LIGAND FREE ENERGY PREDICTED BY IDOCK:   -1.23 KCAL/MOL
REMARK 927      BINDING AFFINITY PREDICTED BY RF-SCORE:    0.00 PKD
ROOT
HETATM    1  C   UNL     1     -12.101  12.794  63.377  1.00  0.00    -0.619 C  
HETATM    2  C   UNL     1     -12.010  13.951  64.362  1.00  0.00    -0.480 C  
ENDROOT
BRANCH   2   3
HETATM    3  C   UNL     1     -12.989  13.757  65.513  1.00  0.00    -0.315 C  
BRANCH   3   4
HETATM    4  O   UNL     1     -12.346  14.076  66.749  1.00  0.00    -0.439 OA 
BRANCH   4   5
HETATM    5  C   UNL     1     -11.535  13.110  67.294  1.00  0.00    -0.331 A  
HETATM    6  C   UNL     1     -11.759  11.733  67.125  1.00  0.00    -0.267 A  
HETATM    7  C   UNL     1     -10.940  10.770  67.724  1.00  0.00    -0.297 A  
HETATM    8  C   UNL     1      -9.797  11.190  68.396  1.00  0.00    -0.188 A  
HETATM    9  N   UNL     1     -11.147   9.413  67.457  1.00  0.00    -0.415 NA 
HETATM   10  H1  UNL     1     -10.549   8.711  67.893  1.00  0.00     0.000 HD 
HETATM   11  C   UNL     1      -9.544  12.548  68.572  1.00  0.00    -0.114 A  
HETATM   12  H2  UNL     1     -11.121   9.276  66.447  1.00  0.00     0.000 HD 
HETATM   13  C   UNL     1     -10.417  13.514  68.046  1.00  0.00    -0.245 A  
BRANCH  13  14
HETATM   14  C   UNL     1     -10.110  14.919  68.429  1.00  0.00    -0.225 C  
HETATM   15  O   UNL     1      -9.542  15.707  67.686  1.00  0.00    -0.218 OA 
BRANCH  14  16
HETATM   16  O   UNL     1     -10.298  15.078  69.760  1.00  0.00    -0.222 OA 
BRANCH  16  17
HETATM   17  C   UNL     1     -11.233  16.104  70.128  1.00  0.00    -0.370 C  
BRANCH  17  18
HETATM   18  C   UNL     1     -12.540  15.377  70.489  1.00  0.00    -0.423 C  
BRANCH  18  19
HETATM   19  N   UNL     1     -12.643  14.783  71.838  1.00  0.00    -0.321 NA 
BRANCH  19  20
HETATM   20  C   UNL     1     -13.389  13.515  71.737  1.00  0.00    -0.397 C  
HETATM   21  C   UNL     1     -12.573  12.345  71.205  1.00  0.00    -0.349 C  
ENDBRANCH  19  20
BRANCH  19  22
HETATM   22  C   UNL     1     -13.165  15.716  72.843  1.00  0.00    -0.532 C  
HETATM   23  C   UNL     1     -12.486  15.691  74.209  1.00  0.00    -0.804 C  
ENDBRANCH  19  22
ENDBRANCH  18  19
ENDBRANCH  17  18
ENDBRANCH  16  17
ENDBRANCH  14  16
ENDBRANCH  13  14
ENDBRANCH   4   5
ENDBRANCH   3   4
ENDBRANCH   2   3
TORSDOF 10
ENDMDL
MODEL       29
REMARK 921   NORMALIZED FREE ENERGY PREDICTED BY IDOCK:   -4.88 KCAL/MOL
REMARK 922        TOTAL FREE ENERGY PREDICTED BY IDOCK:   -8.78 KCAL/MOL
REMARK 923 INTER-LIGAND FREE ENERGY PREDICTED BY IDOCK:   -7.97 KCAL/MOL
REMARK 924 INTRA-LIGAND FREE ENERGY PREDICTED BY IDOCK:   -0.82 KCAL/MOL
REMARK 927      BINDING AFFINITY PREDICTED BY RF-SCORE:    0.00 PKD
ROOT
HETATM    1  C   UNL     1     -13.442   7.920  71.693  1.00  0.00    -0.386 C  
HETATM    2  C   UNL     1     -12.380   9.008  71.767  1.00  0.00    -0.438 C  
ENDROOT
BRANCH   2   3
HETATM    3  C   UNL     1     -13.024  10.388  71.810  1.00  0.00    -0.475 C  
BRANCH   3   4
HETATM    4  O   UNL     1     -12.638  11.136  70.656  1.00  0.00    -0.332 OA 
BRANCH   4   5
HETATM    5  C   UNL     1     -12.611  12.504  70.784  1.00  0.00    -0.212 A  
HETATM    6  C   UNL     1     -13.188  13.186  71.868  1.00  0.00    -0.526 A  
HETATM    7  C   UNL     1     -13.181  14.582  71.953  1.00  0.00    -0.359 A  
HETATM    8  C   UNL     1     -12.466  15.306  71.004  1.00  0.00    -0.444 A  
HETATM    9  N   UNL     1     -13.689  15.216  73.092  1.00  0.00    -0.586 NA 
HETATM   10  H1  UNL     1     -13.683  16.234  73.154  1.00  0.00     0.000 HD 
HETATM   11  C   UNL     1     -11.876  14.656  69.923  1.00  0.00    -0.372 A  
HETATM   12  H2  UNL     1     -13.210  14.840  73.910  1.00  0.00     0.000 HD 
HETATM   13  C   UNL     1     -11.962  13.261  69.792  1.00  0.00    -0.391 A  
BRANCH  13  14
HETATM   14  C   UNL     1     -11.416  12.711  68.521  1.00  0.00    -0.311 C  
HETATM   15  O   UNL     1     -12.058  11.985  67.774  1.00  0.00    -0.537 OA 
BRANCH  14  16
HETATM   16  O   UNL     1     -10.077  12.906  68.479  1.00  0.00    -0.233 OA 
BRANCH  16  17
HETATM   17  C   UNL     1      -9.519  13.042  67.164  1.00  0.00    -0.230 C  
BRANCH  17  18
HETATM   18  C   UNL     1      -9.675  14.526  66.788  1.00  0.00    -0.260 C  
BRANCH  18  19
HETATM   19  N   UNL     1     -10.739  14.881  65.826  1.00  0.00    -0.314 NA 
BRANCH  19  20
HETATM   20  C   UNL     1     -10.771  13.860  64.763  1.00  0.00    -0.423 C  
HETATM   21  C   UNL     1     -12.141  13.238  64.528  1.00  0.00    -0.461 C  
ENDBRANCH  19  20
BRANCH  19  22
HETATM   22  C   UNL     1     -10.641  16.262  65.339  1.00  0.00    -0.352 C  
HETATM   23  C   UNL     1     -10.045  17.280  66.307  1.00  0.00    -0.323 C  
ENDBRANCH  19  22
ENDBRANCH  18  19
ENDBRANCH  17  18
ENDBRANCH  16  17
ENDBRANCH  14  16
ENDBRANCH  13  14
ENDBRANCH   4   5
ENDBRANCH   3   4
ENDBRANCH   2   3
TORSDOF 10
ENDMDL
MODEL       30
REMARK 921   NORMALIZED FREE ENERGY PREDICTED BY IDOCK:   -4.87 KCAL/MOL
REMARK 922        TOTAL FREE ENERGY PREDICTED BY IDOCK:   -8.77 KCAL/MOL
REMARK 923 INTER-LIGAND FREE ENERGY PREDICTED BY IDOCK:   -7.93 KCAL/MOL
REMARK 924 INTRA-LIGAND FREE ENERGY PREDICTED BY IDOCK:   -0.84 KCAL/MOL
REMARK 927      BINDING AFFINITY PREDICTED BY RF-SCORE:    0.00 PKD
ROOT
HETATM    1  C   UNL     1     -12.316  10.712  70.570  1.00  0.00    -0.448 C  
HETATM    2  C   UNL     1     -11.165  10.022  69.852  1.00  0.00    -0.327 C  
ENDROOT
BRANCH   2   3
HETATM    3  C   UNL     1     -10.790  10.781  68.584  1.00  0.00    -0.220 C  
BRANCH   3   4
HETATM    4  O   UNL     1     -11.940  11.454  68.069  1.00  0.00    -0.613 OA 
BRANCH   4   5
HETATM    5  C   UNL     1     -11.753  12.235  66.954  1.00  0.00    -0.334 A  
HETATM    6  C   UNL     1     -11.512  11.705  65.675  1.00  0.00    -0.171 A  
HETATM    7  C   UNL     1     -11.285  12.524  64.564  1.00  0.00    -0.325 A  
HETATM    8  C   UNL     1     -11.433  13.900  64.706  1.00  0.00    -0.368 A  
HETATM    9  N   UNL     1     -11.138  11.955  63.295  1.00  0.00    -0.674 NA 
HETATM   10  H1  UNL     1     -10.973  12.553  62.485  1.00  0.00     0.000 HD 
HETATM   11  C   UNL     1     -11.679  14.454  65.960  1.00  0.00    -0.378 A  
HETATM   12  H2  UNL     1     -11.954  11.374  63.106  1.00  0.00     0.000 HD 
HETATM   13  C   UNL     1     -11.818  13.633  67.092  1.00  0.00    -0.435 A  
BRANCH  13  14
HETATM   14  C   UNL     1     -11.933  14.358  68.387  1.00  0.00    -0.293 C  
HETATM   15  O   UNL     1     -12.517  13.901  69.360  1.00  0.00    -0.273 OA 
BRANCH  14  16
HETATM   16  O   UNL     1     -11.553  15.646  68.222  1.00  0.00    -0.362 OA 
BRANCH  16  17
HETATM   17  C   UNL     1     -11.110  16.311  69.415  1.00  0.00    -0.328 C  
BRANCH  17  18
HETATM   18  C   UNL     1     -10.119  17.394  68.954  1.00  0.00    -0.330 C  
BRANCH  18  19
HETATM   19  N   UNL     1     -10.154  17.795  67.533  1.00  0.00    -0.325 NA 
BRANCH  19  20
HETATM   20  C   UNL     1      -8.800  17.647  66.969  1.00  0.00    -0.246 C  
HETATM   21  C   UNL     1      -8.558  16.327  66.250  1.00  0.00    -0.374 C  
ENDBRANCH  19  20
BRANCH  19  22
HETATM   22  C   UNL     1     -10.761  19.114  67.319  1.00  0.00    -0.488 C  
HETATM   23  C   UNL     1     -10.236  19.917  66.133  1.00  0.00    -0.611 C  
ENDBRANCH  19  22
ENDBRANCH  18  19
ENDBRANCH  17  18
ENDBRANCH  16  17
ENDBRANCH  14  16
ENDBRANCH  13  14
ENDBRANCH   4   5
ENDBRANCH   3   4
ENDBRANCH   2   3
TORSDOF 10
ENDMDL
MODEL       31
REMARK 921   NORMALIZED FREE ENERGY PREDICTED BY IDOCK:   -4.86 KCAL/MOL
REMARK 922        TOTAL FREE ENERGY PREDICTED BY IDOCK:   -8.76 KCAL/MOL
REMARK 923 INTER-LIGAND FREE ENERGY PREDICTED BY IDOCK:   -7.92 KCAL/MOL
REMARK 924 INTRA-LIGAND FREE ENERGY PREDICTED BY IDOCK:   -0.83 KCAL/MOL
REMARK 927      BINDING AFFINITY PREDICTED BY RF-SCORE:    0.00 PKD
ROOT
HETATM    1  C   UNL     1     -11.738  15.580  71.585  1.00  0.00    -0.498 C  
HETATM    2  C   UNL     1     -11.913  14.709  70.349  1.00  0.00    -0.375 C  
ENDROOT
BRANCH   2   3
HETATM    3  C   UNL     1     -11.326  15.393  69.121  1.00  0.00    -0.315 C  
BRANCH   3   4
HETATM    4  O   UNL     1     -10.563  14.451  68.364  1.00  0.00    -0.235 OA 
BRANCH   4   5
HETATM    5  C   UNL     1     -10.913  14.287  67.046  1.00  0.00    -0.303 A  
HETATM    6  C   UNL     1     -11.026  15.355  66.141  1.00  0.00    -0.279 A  
HETATM    7  C   UNL     1     -11.423  15.164  64.813  1.00  0.00    -0.383 A  
HETATM    8  C   UNL     1     -11.582  13.864  64.344  1.00  0.00    -0.401 A  
HETATM    9  N   UNL     1     -11.437  16.244  63.925  1.00  0.00    -1.539 NA 
HETATM   10  H1  UNL     1     -11.726  16.104  62.957  1.00  0.00     0.000 HD 
HETATM   11  C   UNL     1     -11.469  12.784  65.216  1.00  0.00    -0.360 A  
HETATM   12  H2  UNL     1     -10.512  16.674  63.926  1.00  0.00     0.000 HD 
HETATM   13  C   UNL     1     -11.157  12.986  66.571  1.00  0.00    -0.315 A  
BRANCH  13  14
HETATM   14  C   UNL     1     -11.209  11.764  67.419  1.00  0.00    -0.297 C  
HETATM   15  O   UNL     1     -12.155  11.494  68.147  1.00  0.00    -0.604 OA 
BRANCH  14  16
HETATM   16  O   UNL     1      -9.985  11.188  67.462  1.00  0.00    -0.178 OA 
BRANCH  16  17
HETATM   17  C   UNL     1      -9.665  10.521  68.693  1.00  0.00    -0.173 C  
BRANCH  17  18
HETATM   18  C   UNL     1     -10.001   9.036  68.470  1.00  0.00    -0.176 C  
BRANCH  18  19
HETATM   19  N   UNL     1     -10.751   8.336  69.533  1.00  0.00    -0.210 NA 
BRANCH  19  20
HETATM   20  C   UNL     1     -11.003   9.284  70.633  1.00  0.00    -0.276 C  
HETATM   21  C   UNL     1     -10.809   8.699  72.026  1.00  0.00    -0.430 C  
ENDBRANCH  19  20
BRANCH  19  22
HETATM   22  C   UNL     1     -10.124   7.076  69.949  1.00  0.00    -0.193 C  
HETATM   23  C   UNL     1     -10.680   5.802  69.319  1.00  0.00    -0.386 C  
ENDBRANCH  19  22
ENDBRANCH  18  19
ENDBRANCH  17  18
ENDBRANCH  16  17
ENDBRANCH  14  16
ENDBRANCH  13  14
ENDBRANCH   4   5
ENDBRANCH   3   4
ENDBRANCH   2   3
TORSDOF 10
ENDMDL
MODEL       32
REMARK 921   NORMALIZED FREE ENERGY PREDICTED BY IDOCK:   -4.86 KCAL/MOL
REMARK 922        TOTAL FREE ENERGY PREDICTED BY IDOCK:   -8.75 KCAL/MOL
REMARK 923 INTER-LIGAND FREE ENERGY PREDICTED BY IDOCK:   -7.39 KCAL/MOL
REMARK 924 INTRA-LIGAND FREE ENERGY PREDICTED BY IDOCK:   -1.36 KCAL/MOL
REMARK 927      BINDING AFFINITY PREDICTED BY RF-SCORE:    0.00 PKD
ROOT
HETATM    1  C   UNL     1     -10.702  12.028  63.391  1.00  0.00    -0.475 C  
HETATM    2  C   UNL     1     -12.176  12.398  63.469  1.00  0.00    -0.661 C  
ENDROOT
BRANCH   2   3
HETATM    3  C   UNL     1     -12.345  13.859  63.869  1.00  0.00    -0.272 C  
BRANCH   3   4
HETATM    4  O   UNL     1     -12.340  13.971  65.293  1.00  0.00    -0.419 OA 
BRANCH   4   5
HETATM    5  C   UNL     1     -11.152  14.328  65.883  1.00  0.00    -0.310 A  
HETATM    6  C   UNL     1     -10.457  15.506  65.560  1.00  0.00    -0.407 A  
HETATM    7  C   UNL     1      -9.228  15.826  66.147  1.00  0.00    -0.350 A  
HETATM    8  C   UNL     1      -8.748  15.021  67.174  1.00  0.00    -0.242 A  
HETATM    9  N   UNL     1      -8.615  17.050  65.862  1.00  0.00    -0.525 NA 
HETATM   10  H1  UNL     1      -7.719  17.283  66.290  1.00  0.00     0.000 HD 
HETATM   11  C   UNL     1      -9.420  13.851  67.522  1.00  0.00    -0.216 A  
HETATM   12  H2  UNL     1      -9.276  17.798  66.069  1.00  0.00     0.000 HD 
HETATM   13  C   UNL     1     -10.608  13.485  66.868  1.00  0.00    -0.270 A  
BRANCH  13  14
HETATM   14  C   UNL     1     -11.143  12.145  67.234  1.00  0.00    -0.287 C  
HETATM   15  O   UNL     1     -10.800  11.112  66.676  1.00  0.00    -0.266 OA 
BRANCH  14  16
HETATM   16  O   UNL     1     -12.219  12.291  68.042  1.00  0.00    -0.383 OA 
BRANCH  16  17
HETATM   17  C   UNL     1     -12.027  11.861  69.399  1.00  0.00    -0.289 C  
BRANCH  17  18
HETATM   18  C   UNL     1     -11.833  13.143  70.227  1.00  0.00    -0.224 C  
BRANCH  18  19
HETATM   19  N   UNL     1     -12.830  14.222  70.064  1.00  0.00    -0.128 NA 
BRANCH  19  20
HETATM   20  C   UNL     1     -12.128  15.453  69.656  1.00  0.00    -0.327 C  
HETATM   21  C   UNL     1     -10.765  15.645  70.305  1.00  0.00    -0.354 C  
ENDBRANCH  19  20
BRANCH  19  22
HETATM   22  C   UNL     1     -13.706  14.380  71.231  1.00  0.00    -0.298 C  
HETATM   23  C   UNL     1     -13.436  13.451  72.411  1.00  0.00    -0.685 C  
ENDBRANCH  19  22
ENDBRANCH  18  19
ENDBRANCH  17  18
ENDBRANCH  16  17
ENDBRANCH  14  16
ENDBRANCH  13  14
ENDBRANCH   4   5
ENDBRANCH   3   4
ENDBRANCH   2   3
TORSDOF 10
ENDMDL
MODEL       33
REMARK 921   NORMALIZED FREE ENERGY PREDICTED BY IDOCK:   -4.85 KCAL/MOL
REMARK 922        TOTAL FREE ENERGY PREDICTED BY IDOCK:   -8.74 KCAL/MOL
REMARK 923 INTER-LIGAND FREE ENERGY PREDICTED BY IDOCK:   -7.78 KCAL/MOL
REMARK 924 INTRA-LIGAND FREE ENERGY PREDICTED BY IDOCK:   -0.96 KCAL/MOL
REMARK 927      BINDING AFFINITY PREDICTED BY RF-SCORE:    0.00 PKD
ROOT
HETATM    1  C   UNL     1     -11.958  12.588  65.518  1.00  0.00    -0.500 C  
HETATM    2  C   UNL     1     -10.894  11.846  66.313  1.00  0.00    -0.323 C  
ENDROOT
BRANCH   2   3
HETATM    3  C   UNL     1     -11.479  11.285  67.604  1.00  0.00    -0.264 C  
BRANCH   3   4
HETATM    4  O   UNL     1     -10.917  11.971  68.724  1.00  0.00    -0.219 OA 
BRANCH   4   5
HETATM    5  C   UNL     1     -11.738  12.161  69.809  1.00  0.00    -0.310 A  
HETATM    6  C   UNL     1     -12.248  11.105  70.583  1.00  0.00    -0.492 A  
HETATM    7  C   UNL     1     -13.115  11.326  71.658  1.00  0.00    -0.408 A  
HETATM    8  C   UNL     1     -13.372  12.634  72.053  1.00  0.00    -0.555 A  
HETATM    9  N   UNL     1     -13.528  10.252  72.454  1.00  0.00    -0.575 NA 
HETATM   10  H1  UNL     1     -14.159  10.413  73.239  1.00  0.00     0.000 HD 
HETATM   11  C   UNL     1     -12.873  13.702  71.311  1.00  0.00    -0.424 A  
HETATM   12  H2  UNL     1     -12.699   9.771  72.801  1.00  0.00     0.000 HD 
HETATM   13  C   UNL     1     -12.075  13.477  70.177  1.00  0.00    -0.425 A  
BRANCH  13  14
HETATM   14  C   UNL     1     -11.730  14.695  69.395  1.00  0.00    -0.316 C  
HETATM   15  O   UNL     1     -12.026  14.841  68.217  1.00  0.00    -0.298 OA 
BRANCH  14  16
HETATM   16  O   UNL     1     -10.840  15.443  70.087  1.00  0.00    -0.273 OA 
BRANCH  16  17
HETATM   17  C   UNL     1      -9.628  15.759  69.384  1.00  0.00    -0.284 C  
BRANCH  17  18
HETATM   18  C   UNL     1      -9.851  17.146  68.758  1.00  0.00    -0.293 C  
BRANCH  18  19
HETATM   19  N   UNL     1      -9.367  17.362  67.379  1.00  0.00    -0.235 NA 
BRANCH  19  20
HETATM   20  C   UNL     1     -10.285  18.293  66.698  1.00  0.00    -0.384 C  
HETATM   21  C   UNL     1     -10.740  19.467  67.555  1.00  0.00    -0.570 C  
ENDBRANCH  19  20
BRANCH  19  22
HETATM   22  C   UNL     1      -9.120  16.112  66.651  1.00  0.00    -0.252 C  
HETATM   23  C   UNL     1     -10.062  15.806  65.490  1.00  0.00    -0.383 C  
ENDBRANCH  19  22
ENDBRANCH  18  19
ENDBRANCH  17  18
ENDBRANCH  16  17
ENDBRANCH  14  16
ENDBRANCH  13  14
ENDBRANCH   4   5
ENDBRANCH   3   4
ENDBRANCH   2   3
TORSDOF 10
ENDMDL
MODEL       34
REMARK 921   NORMALIZED FREE ENERGY PREDICTED BY IDOCK:   -4.85 KCAL/MOL
REMARK 922        TOTAL FREE ENERGY PREDICTED BY IDOCK:   -8.74 KCAL/MOL
REMARK 923 INTER-LIGAND FREE ENERGY PREDICTED BY IDOCK:   -8.02 KCAL/MOL
REMARK 924 INTRA-LIGAND FREE ENERGY PREDICTED BY IDOCK:   -0.72 KCAL/MOL
REMARK 927      BINDING AFFINITY PREDICTED BY RF-SCORE:    0.00 PKD
ROOT
HETATM    1  C   UNL     1     -12.726  15.708  71.198  1.00  0.00    -0.525 C  
HETATM    2  C   UNL     1     -12.483  14.531  70.264  1.00  0.00    -0.405 C  
ENDROOT
BRANCH   2   3
HETATM    3  C   UNL     1     -12.598  13.212  71.018  1.00  0.00    -0.312 C  
BRANCH   3   4
HETATM    4  O   UNL     1     -12.048  12.156  70.227  1.00  0.00    -0.339 OA 
BRANCH   4   5
HETATM    5  C   UNL     1     -12.188  10.879  70.715  1.00  0.00    -0.383 A  
HETATM    6  C   UNL     1     -13.058  10.549  71.767  1.00  0.00    -0.570 A  
HETATM    7  C   UNL     1     -13.151   9.247  72.271  1.00  0.00    -0.441 A  
HETATM    8  C   UNL     1     -12.460   8.229  71.623  1.00  0.00    -0.351 A  
HETATM    9  N   UNL     1     -14.095   8.946  73.258  1.00  0.00    -1.248 NA 
HETATM   10  H1  UNL     1     -14.163   7.997  73.625  1.00  0.00     0.000 HD 
HETATM   11  C   UNL     1     -11.596   8.525  70.571  1.00  0.00    -0.145 A  
HETATM   12  H2  UNL     1     -15.015   9.229  72.922  1.00  0.00     0.000 HD 
HETATM   13  C   UNL     1     -11.436   9.847  70.126  1.00  0.00    -0.309 A  
BRANCH  13  14
HETATM   14  C   UNL     1     -10.378  10.043  69.097  1.00  0.00    -0.216 C  
HETATM   15  O   UNL     1      -9.285  10.532  69.345  1.00  0.00    -0.184 OA 
BRANCH  14  16
HETATM   16  O   UNL     1     -10.905   9.863  67.863  1.00  0.00    -0.260 OA 
BRANCH  16  17
HETATM   17  C   UNL     1     -10.884  11.020  67.014  1.00  0.00    -0.279 C  
BRANCH  17  18
HETATM   18  C   UNL     1      -9.924  10.682  65.860  1.00  0.00    -0.255 C  
BRANCH  18  19
HETATM   19  N   UNL     1     -10.450  10.770  64.482  1.00  0.00    -0.339 NA 
BRANCH  19  20
HETATM   20  C   UNL     1      -9.372  10.409  63.544  1.00  0.00    -0.297 C  
HETATM   21  C   UNL     1      -8.207   9.662  64.180  1.00  0.00    -0.158 C  
ENDBRANCH  19  20
BRANCH  19  22
HETATM   22  C   UNL     1     -11.102  12.053  64.194  1.00  0.00    -0.368 C  
HETATM   23  C   UNL     1     -12.363  11.993  63.336  1.00  0.00    -0.635 C  
ENDBRANCH  19  22
ENDBRANCH  18  19
ENDBRANCH  17  18
ENDBRANCH  16  17
ENDBRANCH  14  16
ENDBRANCH  13  14
ENDBRANCH   4   5
ENDBRANCH   3   4
ENDBRANCH   2   3
TORSDOF 10
ENDMDL
MODEL       35
REMARK 921   NORMALIZED FREE ENERGY PREDICTED BY IDOCK:   -4.85 KCAL/MOL
REMARK 922        TOTAL FREE ENERGY PREDICTED BY IDOCK:   -8.74 KCAL/MOL
REMARK 923 INTER-LIGAND FREE ENERGY PREDICTED BY IDOCK:   -7.98 KCAL/MOL
REMARK 924 INTRA-LIGAND FREE ENERGY PREDICTED BY IDOCK:   -0.76 KCAL/MOL
REMARK 927      BINDING AFFINITY PREDICTED BY RF-SCORE:    0.00 PKD
ROOT
HETATM    1  C   UNL     1     -10.120  17.451  67.267  1.00  0.00    -0.310 C  
HETATM    2  C   UNL     1     -10.529  17.120  68.695  1.00  0.00    -0.366 C  
ENDROOT
BRANCH   2   3
HETATM    3  C   UNL     1     -11.587  16.023  68.712  1.00  0.00    -0.351 C  
BRANCH   3   4
HETATM    4  O   UNL     1     -11.136  14.933  69.519  1.00  0.00    -0.260 OA 
BRANCH   4   5
HETATM    5  C   UNL     1     -11.962  14.536  70.542  1.00  0.00    -0.318 A  
HETATM    6  C   UNL     1     -12.431  15.412  71.536  1.00  0.00    -0.450 A  
HETATM    7  C   UNL     1     -13.239  14.973  72.590  1.00  0.00    -0.432 A  
HETATM    8  C   UNL     1     -13.698  13.660  72.577  1.00  0.00    -0.663 A  
HETATM    9  N   UNL     1     -13.755  15.895  73.506  1.00  0.00    -0.735 NA 
HETATM   10  H1  UNL     1     -14.345  15.574  74.274  1.00  0.00     0.000 HD 
HETATM   11  C   UNL     1     -13.257  12.771  71.600  1.00  0.00    -0.410 A  
HETATM   12  H2  UNL     1     -14.260  16.614  72.990  1.00  0.00     0.000 HD 
HETATM   13  C   UNL     1     -12.373  13.192  70.594  1.00  0.00    -0.405 A  
BRANCH  13  14
HETATM   14  C   UNL     1     -11.869  12.112  69.703  1.00  0.00    -0.322 C  
HETATM   15  O   UNL     1     -11.162  11.194  70.096  1.00  0.00    -0.250 OA 
BRANCH  14  16
HETATM   16  O   UNL     1     -12.076  12.455  68.410  1.00  0.00    -0.278 OA 
BRANCH  16  17
HETATM   17  C   UNL     1     -11.370  11.661  67.445  1.00  0.00    -0.300 C  
BRANCH  17  18
HETATM   18  C   UNL     1     -10.290  12.580  66.848  1.00  0.00    -0.229 C  
BRANCH  18  19
HETATM   19  N   UNL     1     -10.491  13.066  65.467  1.00  0.00    -0.281 NA 
BRANCH  19  20
HETATM   20  C   UNL     1     -11.096  14.409  65.524  1.00  0.00    -0.326 C  
HETATM   21  C   UNL     1     -12.093  14.698  64.410  1.00  0.00    -0.481 C  
ENDBRANCH  19  20
BRANCH  19  22
HETATM   22  C   UNL     1     -11.211  12.111  64.617  1.00  0.00    -0.323 C  
HETATM   23  C   UNL     1     -10.414  11.481  63.478  1.00  0.00    -0.486 C  
ENDBRANCH  19  22
ENDBRANCH  18  19
ENDBRANCH  17  18
ENDBRANCH  16  17
ENDBRANCH  14  16
ENDBRANCH  13  14
ENDBRANCH   4   5
ENDBRANCH   3   4
ENDBRANCH   2   3
TORSDOF 10
ENDMDL
MODEL       36
REMARK 921   NORMALIZED FREE ENERGY PREDICTED BY IDOCK:   -4.84 KCAL/MOL
REMARK 922        TOTAL FREE ENERGY PREDICTED BY IDOCK:   -8.72 KCAL/MOL
REMARK 923 INTER-LIGAND FREE ENERGY PREDICTED BY IDOCK:   -7.66 KCAL/MOL
REMARK 924 INTRA-LIGAND FREE ENERGY PREDICTED BY IDOCK:   -1.06 KCAL/MOL
REMARK 927      BINDING AFFINITY PREDICTED BY RF-SCORE:    0.00 PKD
ROOT
HETATM    1  C   UNL     1      -8.144  12.437  68.081  1.00  0.00    -0.163 C  
HETATM    2  C   UNL     1      -9.568  12.892  68.366  1.00  0.00    -0.176 C  
ENDROOT
BRANCH   2   3
HETATM    3  C   UNL     1     -10.541  11.726  68.239  1.00  0.00    -0.211 C  
BRANCH   3   4
HETATM    4  O   UNL     1     -11.483  11.998  67.198  1.00  0.00    -0.316 OA 
BRANCH   4   5
HETATM    5  C   UNL     1     -11.067  11.762  65.910  1.00  0.00    -0.302 A  
HETATM    6  C   UNL     1     -10.330  10.626  65.536  1.00  0.00    -0.297 A  
HETATM    7  C   UNL     1      -9.885  10.430  64.224  1.00  0.00    -0.322 A  
HETATM    8  C   UNL     1     -10.298  11.321  63.238  1.00  0.00    -0.406 A  
HETATM    9  N   UNL     1      -9.232   9.244  63.877  1.00  0.00    -0.395 NA 
HETATM   10  H1  UNL     1      -8.908   9.101  62.920  1.00  0.00     0.000 HD 
HETATM   11  C   UNL     1     -11.036  12.452  63.578  1.00  0.00    -0.521 A  
HETATM   12  H2  UNL     1      -9.829   8.459  64.135  1.00  0.00     0.000 HD 
HETATM   13  C   UNL     1     -11.406  12.693  64.912  1.00  0.00    -0.347 A  
BRANCH  13  14
HETATM   14  C   UNL     1     -12.064  14.005  65.158  1.00  0.00    -0.410 C  
HETATM   15  O   UNL     1     -13.279  14.149  65.193  1.00  0.00    -0.743 OA 
BRANCH  14  16
HETATM   16  O   UNL     1     -11.151  14.998  65.055  1.00  0.00    -0.368 OA 
BRANCH  16  17
HETATM   17  C   UNL     1     -10.761  15.602  66.298  1.00  0.00    -0.295 C  
BRANCH  17  18
HETATM   18  C   UNL     1      -9.339  16.147  66.077  1.00  0.00    -0.333 C  
BRANCH  18  19
HETATM   19  N   UNL     1      -9.173  17.613  65.986  1.00  0.00    -0.513 NA 
BRANCH  19  20
HETATM   20  C   UNL     1      -7.886  17.979  66.604  1.00  0.00    -0.243 C  
HETATM   21  C   UNL     1      -7.953  18.214  68.107  1.00  0.00    -0.290 C  
ENDBRANCH  19  20
BRANCH  19  22
HETATM   22  C   UNL     1     -10.328  18.358  66.500  1.00  0.00    -0.400 C  
HETATM   23  C   UNL     1     -10.516  19.773  65.960  1.00  0.00    -0.609 C  
ENDBRANCH  19  22
ENDBRANCH  18  19
ENDBRANCH  17  18
ENDBRANCH  16  17
ENDBRANCH  14  16
ENDBRANCH  13  14
ENDBRANCH   4   5
ENDBRANCH   3   4
ENDBRANCH   2   3
TORSDOF 10
ENDMDL
MODEL       37
REMARK 921   NORMALIZED FREE ENERGY PREDICTED BY IDOCK:   -4.83 KCAL/MOL
REMARK 922        TOTAL FREE ENERGY PREDICTED BY IDOCK:   -8.71 KCAL/MOL
REMARK 923 INTER-LIGAND FREE ENERGY PREDICTED BY IDOCK:   -7.99 KCAL/MOL
REMARK 924 INTRA-LIGAND FREE ENERGY PREDICTED BY IDOCK:   -0.72 KCAL/MOL
REMARK 927      BINDING AFFINITY PREDICTED BY RF-SCORE:    0.00 PKD
ROOT
HETATM    1  C   UNL     1     -11.895  15.801  71.844  1.00  0.00    -0.568 C  
HETATM    2  C   UNL     1     -12.401  15.662  70.416  1.00  0.00    -0.427 C  
ENDROOT
BRANCH   2   3
HETATM    3  C   UNL     1     -11.259  15.829  69.421  1.00  0.00    -0.324 C  
BRANCH   3   4
HETATM    4  O   UNL     1     -11.784  15.898  68.094  1.00  0.00    -0.292 OA 
BRANCH   4   5
HETATM    5  C   UNL     1     -11.532  14.827  67.271  1.00  0.00    -0.366 A  
HETATM    6  C   UNL     1     -11.734  13.493  67.663  1.00  0.00    -0.398 A  
HETATM    7  C   UNL     1     -11.431  12.419  66.819  1.00  0.00    -0.362 A  
HETATM    8  C   UNL     1     -11.047  12.686  65.509  1.00  0.00    -0.329 A  
HETATM    9  N   UNL     1     -11.730  11.112  67.217  1.00  0.00    -0.506 NA 
HETATM   10  H1  UNL     1     -11.510  10.329  66.601  1.00  0.00     0.000 HD 
HETATM   11  C   UNL     1     -10.847  13.999  65.089  1.00  0.00    -0.376 A  
HETATM   12  H2  UNL     1     -12.720  11.066  67.456  1.00  0.00     0.000 HD 
HETATM   13  C   UNL     1     -11.065  15.073  65.968  1.00  0.00    -0.329 A  
BRANCH  13  14
HETATM   14  C   UNL     1     -10.677  16.409  65.439  1.00  0.00    -0.296 C  
HETATM   15  O   UNL     1     -11.190  16.913  64.450  1.00  0.00    -1.159 OA 
BRANCH  14  16
HETATM   16  O   UNL     1      -9.532  16.818  66.034  1.00  0.00    -0.400 OA 
BRANCH  16  17
HETATM   17  C   UNL     1      -9.507  18.197  66.431  1.00  0.00    -0.278 C  
BRANCH  17  18
HETATM   18  C   UNL     1      -8.022  18.602  66.465  1.00  0.00    -0.278 C  
BRANCH  18  19
HETATM   19  N   UNL     1      -7.468  19.071  67.752  1.00  0.00    -0.243 NA 
BRANCH  19  20
HETATM   20  C   UNL     1      -7.356  20.540  67.707  1.00  0.00    -0.265 C  
HETATM   21  C   UNL     1      -6.470  21.070  66.588  1.00  0.00    -0.361 C  
ENDBRANCH  19  20
BRANCH  19  22
HETATM   22  C   UNL     1      -6.233  18.378  68.136  1.00  0.00    -0.187 C  
HETATM   23  C   UNL     1      -6.327  17.443  69.339  1.00  0.00    -0.246 C  
ENDBRANCH  19  22
ENDBRANCH  18  19
ENDBRANCH  17  18
ENDBRANCH  16  17
ENDBRANCH  14  16
ENDBRANCH  13  14
ENDBRANCH   4   5
ENDBRANCH   3   4
ENDBRANCH   2   3
TORSDOF 10
ENDMDL
MODEL       38
REMARK 921   NORMALIZED FREE ENERGY PREDICTED BY IDOCK:   -4.83 KCAL/MOL
REMARK 922        TOTAL FREE ENERGY PREDICTED BY IDOCK:   -8.71 KCAL/MOL
REMARK 923 INTER-LIGAND FREE ENERGY PREDICTED BY IDOCK:   -7.61 KCAL/MOL
REMARK 924 INTRA-LIGAND FREE ENERGY PREDICTED BY IDOCK:   -1.09 KCAL/MOL
REMARK 927      BINDING AFFINITY PREDICTED BY RF-SCORE:    0.00 PKD
ROOT
HETATM    1  C   UNL     1     -12.658  11.882  63.501  1.00  0.00    -0.579 C  
HETATM    2  C   UNL     1     -11.415  12.759  63.528  1.00  0.00    -0.521 C  
ENDROOT
BRANCH   2   3
HETATM    3  C   UNL     1     -10.241  12.011  64.147  1.00  0.00    -0.339 C  
BRANCH   3   4
HETATM    4  O   UNL     1      -9.959  12.546  65.441  1.00  0.00    -0.265 OA 
BRANCH   4   5
HETATM    5  C   UNL     1     -10.509  11.890  66.516  1.00  0.00    -0.221 A  
HETATM    6  C   UNL     1     -10.269  10.535  66.796  1.00  0.00    -0.288 A  
HETATM    7  C   UNL     1     -10.875   9.882  67.874  1.00  0.00    -0.258 A  
HETATM    8  C   UNL     1     -11.631  10.631  68.770  1.00  0.00    -0.309 A  
HETATM    9  N   UNL     1     -10.539   8.556  68.167  1.00  0.00    -0.397 NA 
HETATM   10  H1  UNL     1     -10.980   8.080  68.954  1.00  0.00     0.000 HD 
HETATM   11  C   UNL     1     -11.879  11.979  68.524  1.00  0.00    -0.369 A  
HETATM   12  H2  UNL     1      -9.527   8.497  68.281  1.00  0.00     0.000 HD 
HETATM   13  C   UNL     1     -11.343  12.611  67.390  1.00  0.00    -0.367 A  
BRANCH  13  14
HETATM   14  C   UNL     1     -11.803  14.010  67.170  1.00  0.00    -0.411 C  
HETATM   15  O   UNL     1     -12.613  14.320  66.308  1.00  0.00    -0.416 OA 
BRANCH  14  16
HETATM   16  O   UNL     1     -11.005  14.863  67.854  1.00  0.00    -0.268 OA 
BRANCH  16  17
HETATM   17  C   UNL     1     -11.687  15.934  68.524  1.00  0.00    -0.292 C  
BRANCH  17  18
HETATM   18  C   UNL     1     -10.639  17.042  68.728  1.00  0.00    -0.346 C  
BRANCH  18  19
HETATM   19  N   UNL     1     -10.120  17.724  67.525  1.00  0.00    -0.325 NA 
BRANCH  19  20
HETATM   20  C   UNL     1      -8.658  17.538  67.474  1.00  0.00    -0.221 C  
HETATM   21  C   UNL     1      -8.183  16.588  66.382  1.00  0.00    -0.364 C  
ENDBRANCH  19  20
BRANCH  19  22
HETATM   22  C   UNL     1     -10.559  19.121  67.418  1.00  0.00    -0.481 C  
HETATM   23  C   UNL     1      -9.808  19.992  66.414  1.00  0.00    -0.578 C  
ENDBRANCH  19  22
ENDBRANCH  18  19
ENDBRANCH  17  18
ENDBRANCH  16  17
ENDBRANCH  14  16
ENDBRANCH  13  14
ENDBRANCH   4   5
ENDBRANCH   3   4
ENDBRANCH   2   3
TORSDOF 10
ENDMDL
MODEL       39
REMARK 921   NORMALIZED FREE ENERGY PREDICTED BY IDOCK:   -4.82 KCAL/MOL
REMARK 922        TOTAL FREE ENERGY PREDICTED BY IDOCK:   -8.69 KCAL/MOL
REMARK 923 INTER-LIGAND FREE ENERGY PREDICTED BY IDOCK:   -8.18 KCAL/MOL
REMARK 924 INTRA-LIGAND FREE ENERGY PREDICTED BY IDOCK:   -0.51 KCAL/MOL
REMARK 927      BINDING AFFINITY PREDICTED BY RF-SCORE:    0.00 PKD
ROOT
HETATM    1  C   UNL     1     -11.687  12.094  64.927  1.00  0.00    -0.373 C  
HETATM    2  C   UNL     1     -11.959  13.230  63.951  1.00  0.00    -0.541 C  
ENDROOT
BRANCH   2   3
HETATM    3  C   UNL     1     -12.036  14.563  64.685  1.00  0.00    -0.468 C  
BRANCH   3   4
HETATM    4  O   UNL     1     -10.743  14.911  65.186  1.00  0.00    -0.353 OA 
BRANCH   4   5
HETATM    5  C   UNL     1     -10.658  16.058  65.938  1.00  0.00    -0.328 A  
HETATM    6  C   UNL     1     -10.584  17.343  65.375  1.00  0.00    -0.043 A  
HETATM    7  C   UNL     1     -10.458  18.491  66.164  1.00  0.00    -0.413 A  
HETATM    8  C   UNL     1     -10.542  18.365  67.546  1.00  0.00    -0.447 A  
HETATM    9  N   UNL     1     -10.476  19.755  65.565  1.00  0.00    -0.430 NA 
HETATM   10  H1  UNL     1     -10.385  20.593  66.141  1.00  0.00     0.000 HD 
HETATM   11  C   UNL     1     -10.624  17.105  68.133  1.00  0.00    -0.380 A  
HETATM   12  H2  UNL     1     -11.327  19.837  65.010  1.00  0.00     0.000 HD 
HETATM   13  C   UNL     1     -10.660  15.946  67.340  1.00  0.00    -0.315 A  
BRANCH  13  14
HETATM   14  C   UNL     1     -10.602  14.663  68.093  1.00  0.00    -0.237 C  
HETATM   15  O   UNL     1      -9.638  13.911  68.060  1.00  0.00    -0.205 OA 
BRANCH  14  16
HETATM   16  O   UNL     1     -11.834  14.355  68.560  1.00  0.00    -0.326 OA 
BRANCH  16  17
HETATM   17  C   UNL     1     -11.929  14.212  69.986  1.00  0.00    -0.340 C  
BRANCH  17  18
HETATM   18  C   UNL     1     -12.947  15.268  70.451  1.00  0.00    -0.266 C  
BRANCH  18  19
HETATM   19  N   UNL     1     -13.369  15.238  71.866  1.00  0.00    -0.393 NA 
BRANCH  19  20
HETATM   20  C   UNL     1     -12.165  15.289  72.716  1.00  0.00    -0.408 C  
HETATM   21  C   UNL     1     -12.428  15.711  74.156  1.00  0.00    -0.804 C  
ENDBRANCH  19  20
BRANCH  19  22
HETATM   22  C   UNL     1     -14.283  14.132  72.174  1.00  0.00    -0.546 C  
HETATM   23  C   UNL     1     -13.658  12.743  72.270  1.00  0.00    -0.563 C  
ENDBRANCH  19  22
ENDBRANCH  18  19
ENDBRANCH  17  18
ENDBRANCH  16  17
ENDBRANCH  14  16
ENDBRANCH  13  14
ENDBRANCH   4   5
ENDBRANCH   3   4
ENDBRANCH   2   3
TORSDOF 10
ENDMDL
MODEL       40
REMARK 921   NORMALIZED FREE ENERGY PREDICTED BY IDOCK:   -4.81 KCAL/MOL
REMARK 922        TOTAL FREE ENERGY PREDICTED BY IDOCK:   -8.68 KCAL/MOL
REMARK 923 INTER-LIGAND FREE ENERGY PREDICTED BY IDOCK:   -7.91 KCAL/MOL
REMARK 924 INTRA-LIGAND FREE ENERGY PREDICTED BY IDOCK:   -0.78 KCAL/MOL
REMARK 927      BINDING AFFINITY PREDICTED BY RF-SCORE:    0.00 PKD
ROOT
HETATM    1  C   UNL     1     -11.598   9.393  71.682  1.00  0.00    -0.466 C  
HETATM    2  C   UNL     1     -11.164   9.908  70.317  1.00  0.00    -0.364 C  
ENDROOT
BRANCH   2   3
HETATM    3  C   UNL     1     -12.263  10.756  69.688  1.00  0.00    -0.254 C  
BRANCH   3   4
HETATM    4  O   UNL     1     -11.697  11.953  69.149  1.00  0.00    -0.273 OA 
BRANCH   4   5
HETATM    5  C   UNL     1     -12.018  13.129  69.783  1.00  0.00    -0.314 A  
HETATM    6  C   UNL     1     -12.542  13.183  71.085  1.00  0.00    -0.403 A  
HETATM    7  C   UNL     1     -12.897  14.393  71.691  1.00  0.00    -0.343 A  
HETATM    8  C   UNL     1     -12.599  15.582  71.035  1.00  0.00    -0.513 A  
HETATM    9  N   UNL     1     -13.333  14.407  73.020  1.00  0.00    -0.635 NA 
HETATM   10  H1  UNL     1     -13.591  15.290  73.462  1.00  0.00     0.000 HD 
HETATM   11  C   UNL     1     -12.071  15.560  69.746  1.00  0.00    -0.372 A  
HETATM   12  H2  UNL     1     -12.624  13.954  73.596  1.00  0.00     0.000 HD 
HETATM   13  C   UNL     1     -11.798  14.341  69.104  1.00  0.00    -0.368 A  
BRANCH  13  14
HETATM   14  C   UNL     1     -11.375  14.458  67.682  1.00  0.00    -0.329 C  
HETATM   15  O   UNL     1     -12.001  13.964  66.754  1.00  0.00    -0.396 OA 
BRANCH  14  16
HETATM   16  O   UNL     1     -10.107  14.926  67.622  1.00  0.00    -0.226 OA 
BRANCH  16  17
HETATM   17  C   UNL     1      -9.778  15.651  66.427  1.00  0.00    -0.279 C  
BRANCH  17  18
HETATM   18  C   UNL     1     -10.352  17.066  66.619  1.00  0.00    -0.299 C  
BRANCH  18  19
HETATM   19  N   UNL     1      -9.556  18.203  66.112  1.00  0.00    -0.494 NA 
BRANCH  19  20
HETATM   20  C   UNL     1      -8.198  18.117  66.679  1.00  0.00    -0.262 C  
HETATM   21  C   UNL     1      -7.085  18.484  65.707  1.00  0.00    -0.255 C  
ENDBRANCH  19  20
BRANCH  19  22
HETATM   22  C   UNL     1     -10.213  19.501  66.305  1.00  0.00    -0.488 C  
HETATM   23  C   UNL     1      -9.765  20.314  67.516  1.00  0.00    -0.575 C  
ENDBRANCH  19  22
ENDBRANCH  18  19
ENDBRANCH  17  18
ENDBRANCH  16  17
ENDBRANCH  14  16
ENDBRANCH  13  14
ENDBRANCH   4   5
ENDBRANCH   3   4
ENDBRANCH   2   3
TORSDOF 10
ENDMDL
MODEL       41
REMARK 921   NORMALIZED FREE ENERGY PREDICTED BY IDOCK:   -4.81 KCAL/MOL
REMARK 922        TOTAL FREE ENERGY PREDICTED BY IDOCK:   -8.68 KCAL/MOL
REMARK 923 INTER-LIGAND FREE ENERGY PREDICTED BY IDOCK:   -8.18 KCAL/MOL
REMARK 924 INTRA-LIGAND FREE ENERGY PREDICTED BY IDOCK:   -0.50 KCAL/MOL
REMARK 927      BINDING AFFINITY PREDICTED BY RF-SCORE:    0.00 PKD
ROOT
HETATM    1  C   UNL     1      -9.348  10.108  63.899  1.00  0.00    -0.336 C  
HETATM    2  C   UNL     1      -9.621  11.246  62.925  1.00  0.00    -0.377 C  
ENDROOT
BRANCH   2   3
HETATM    3  C   UNL     1     -10.802  12.085  63.395  1.00  0.00    -0.405 C  
BRANCH   3   4
HETATM    4  O   UNL     1     -10.328  13.208  64.141  1.00  0.00    -0.421 OA 
BRANCH   4   5
HETATM    5  C   UNL     1     -10.863  13.391  65.393  1.00  0.00    -0.294 A  
HETATM    6  C   UNL     1     -11.298  12.331  66.205  1.00  0.00    -0.395 A  
HETATM    7  C   UNL     1     -11.877  12.548  67.461  1.00  0.00    -0.323 A  
HETATM    8  C   UNL     1     -11.899  13.842  67.971  1.00  0.00    -0.408 A  
HETATM    9  N   UNL     1     -12.215  11.461  68.272  1.00  0.00    -0.526 NA 
HETATM   10  H1  UNL     1     -12.636  11.619  69.187  1.00  0.00     0.000 HD 
HETATM   11  C   UNL     1     -11.466  14.912  67.192  1.00  0.00    -0.344 A  
HETATM   12  H2  UNL     1     -11.386  10.880  68.395  1.00  0.00     0.000 HD 
HETATM   13  C   UNL     1     -10.968  14.700  65.896  1.00  0.00    -0.332 A  
BRANCH  13  14
HETATM   14  C   UNL     1     -10.678  15.937  65.121  1.00  0.00    -0.429 C  
HETATM   15  O   UNL     1     -11.468  16.433  64.329  1.00  0.00    -0.876 OA 
BRANCH  14  16
HETATM   16  O   UNL     1      -9.362  16.238  65.223  1.00  0.00    -0.249 OA 
BRANCH  16  17
HETATM   17  C   UNL     1      -8.819  16.170  66.550  1.00  0.00    -0.296 C  
BRANCH  17  18
HETATM   18  C   UNL     1      -8.587  17.627  66.989  1.00  0.00    -0.237 C  
BRANCH  18  19
HETATM   19  N   UNL     1      -8.668  18.676  65.951  1.00  0.00    -0.439 NA 
BRANCH  19  20
HETATM   20  C   UNL     1      -7.380  19.391  65.906  1.00  0.00    -0.287 C  
HETATM   21  C   UNL     1      -6.329  18.859  66.871  1.00  0.00    -0.193 C  
ENDBRANCH  19  20
BRANCH  19  22
HETATM   22  C   UNL     1      -9.841  19.545  66.098  1.00  0.00    -0.412 C  
HETATM   23  C   UNL     1     -10.506  19.559  67.472  1.00  0.00    -0.596 C  
ENDBRANCH  19  22
ENDBRANCH  18  19
ENDBRANCH  17  18
ENDBRANCH  16  17
ENDBRANCH  14  16
ENDBRANCH  13  14
ENDBRANCH   4   5
ENDBRANCH   3   4
ENDBRANCH   2   3
TORSDOF 10
ENDMDL
MODEL       42
REMARK 921   NORMALIZED FREE ENERGY PREDICTED BY IDOCK:   -4.80 KCAL/MOL
REMARK 922        TOTAL FREE ENERGY PREDICTED BY IDOCK:   -8.66 KCAL/MOL
REMARK 923 INTER-LIGAND FREE ENERGY PREDICTED BY IDOCK:   -8.03 KCAL/MOL
REMARK 924 INTRA-LIGAND FREE ENERGY PREDICTED BY IDOCK:   -0.63 KCAL/MOL
REMARK 927      BINDING AFFINITY PREDICTED BY RF-SCORE:    0.00 PKD
ROOT
HETATM    1  C   UNL     1     -12.719  15.126  70.646  1.00  0.00    -0.451 C  
HETATM    2  C   UNL     1     -12.281  13.763  70.129  1.00  0.00    -0.425 C  
ENDROOT
BRANCH   2   3
HETATM    3  C   UNL     1     -11.893  13.844  68.658  1.00  0.00    -0.372 C  
BRANCH   3   4
HETATM    4  O   UNL     1     -12.043  12.560  68.050  1.00  0.00    -0.351 OA 
BRANCH   4   5
HETATM    5  C   UNL     1     -11.769  12.475  66.706  1.00  0.00    -0.384 A  
HETATM    6  C   UNL     1     -12.288  13.371  65.757  1.00  0.00    -0.513 A  
HETATM    7  C   UNL     1     -12.025  13.238  64.390  1.00  0.00    -0.406 A  
HETATM    8  C   UNL     1     -11.118  12.269  63.975  1.00  0.00    -0.446 A  
HETATM    9  N   UNL     1     -12.490  14.204  63.491  1.00  0.00    -1.106 NA 
HETATM   10  H1  UNL     1     -12.298  14.106  62.494  1.00  0.00     0.000 HD 
HETATM   11  C   UNL     1     -10.581  11.371  64.894  1.00  0.00    -0.368 A  
HETATM   12  H2  UNL     1     -12.154  15.117  63.797  1.00  0.00     0.000 HD 
HETATM   13  C   UNL     1     -10.917  11.451  66.255  1.00  0.00    -0.303 A  
BRANCH  13  14
HETATM   14  C   UNL     1     -10.389  10.346  67.102  1.00  0.00    -0.238 C  
HETATM   15  O   UNL     1     -10.737   9.180  66.974  1.00  0.00    -0.234 OA 
BRANCH  14  16
HETATM   16  O   UNL     1      -9.720  10.863  68.158  1.00  0.00    -0.157 OA 
BRANCH  16  17
HETATM   17  C   UNL     1      -9.510   9.958  69.253  1.00  0.00    -0.209 C  
BRANCH  17  18
HETATM   18  C   UNL     1     -10.728  10.124  70.179  1.00  0.00    -0.300 C  
BRANCH  18  19
HETATM   19  N   UNL     1     -11.030   9.025  71.119  1.00  0.00    -0.273 NA 
BRANCH  19  20
HETATM   20  C   UNL     1     -12.305   9.321  71.795  1.00  0.00    -0.379 C  
HETATM   21  C   UNL     1     -13.220  10.267  71.028  1.00  0.00    -0.399 C  
ENDBRANCH  19  20
BRANCH  19  22
HETATM   22  C   UNL     1      -9.917   8.719  72.026  1.00  0.00    -0.321 C  
HETATM   23  C   UNL     1     -10.228   7.774  73.184  1.00  0.00    -0.398 C  
ENDBRANCH  19  22
ENDBRANCH  18  19
ENDBRANCH  17  18
ENDBRANCH  16  17
ENDBRANCH  14  16
ENDBRANCH  13  14
ENDBRANCH   4   5
ENDBRANCH   3   4
ENDBRANCH   2   3
TORSDOF 10
ENDMDL
MODEL       43
REMARK 921   NORMALIZED FREE ENERGY PREDICTED BY IDOCK:   -4.79 KCAL/MOL
REMARK 922        TOTAL FREE ENERGY PREDICTED BY IDOCK:   -8.64 KCAL/MOL
REMARK 923 INTER-LIGAND FREE ENERGY PREDICTED BY IDOCK:   -7.67 KCAL/MOL
REMARK 924 INTRA-LIGAND FREE ENERGY PREDICTED BY IDOCK:   -0.98 KCAL/MOL
REMARK 927      BINDING AFFINITY PREDICTED BY RF-SCORE:    0.00 PKD
ROOT
HETATM    1  C   UNL     1     -11.155  11.731  63.762  1.00  0.00    -0.513 C  
HETATM    2  C   UNL     1     -12.385  12.472  64.268  1.00  0.00    -0.541 C  
ENDROOT
BRANCH   2   3
HETATM    3  C   UNL     1     -12.110  13.967  64.364  1.00  0.00    -0.458 C  
BRANCH   3   4
HETATM    4  O   UNL     1     -11.964  14.342  65.736  1.00  0.00    -0.375 OA 
BRANCH   4   5
HETATM    5  C   UNL     1     -10.682  14.517  66.197  1.00  0.00    -0.310 A  
HETATM    6  C   UNL     1      -9.932  13.490  66.793  1.00  0.00    -0.269 A  
HETATM    7  C   UNL     1      -8.642  13.707  67.290  1.00  0.00    -0.214 A  
HETATM    8  C   UNL     1      -8.039  14.940  67.067  1.00  0.00    -0.200 A  
HETATM    9  N   UNL     1      -7.899  12.636  67.795  1.00  0.00    -0.139 NA 
HETATM   10  H1  UNL     1      -6.958  12.794  68.157  1.00  0.00     0.000 HD 
HETATM   11  C   UNL     1      -8.755  15.975  66.471  1.00  0.00    -0.338 A  
HETATM   12  H2  UNL     1      -7.851  11.910  67.080  1.00  0.00     0.000 HD 
HETATM   13  C   UNL     1     -10.082  15.781  66.054  1.00  0.00    -0.359 A  
BRANCH  13  14
HETATM   14  C   UNL     1     -10.776  17.005  65.567  1.00  0.00    -0.138 C  
HETATM   15  O   UNL     1     -11.195  17.127  64.424  1.00  0.00    -1.143 OA 
BRANCH  14  16
HETATM   16  O   UNL     1     -10.618  18.004  66.466  1.00  0.00    -0.337 OA 
BRANCH  16  17
HETATM   17  C   UNL     1     -10.655  19.331  65.918  1.00  0.00    -0.435 C  
BRANCH  17  18
HETATM   18  C   UNL     1      -9.518  20.106  66.608  1.00  0.00    -0.391 C  
BRANCH  18  19
HETATM   19  N   UNL     1      -8.202  19.443  66.712  1.00  0.00    -0.279 NA 
BRANCH  19  20
HETATM   20  C   UNL     1      -7.735  19.542  68.107  1.00  0.00    -0.306 C  
HETATM   21  C   UNL     1      -7.201  18.238  68.686  1.00  0.00    -0.293 C  
ENDBRANCH  19  20
BRANCH  19  22
HETATM   22  C   UNL     1      -7.236  19.916  65.713  1.00  0.00    -0.311 C  
HETATM   23  C   UNL     1      -6.197  18.902  65.243  1.00  0.00    -0.316 C  
ENDBRANCH  19  22
ENDBRANCH  18  19
ENDBRANCH  17  18
ENDBRANCH  16  17
ENDBRANCH  14  16
ENDBRANCH  13  14
ENDBRANCH   4   5
ENDBRANCH   3   4
ENDBRANCH   2   3
TORSDOF 10
ENDMDL
MODEL       44
REMARK 921   NORMALIZED FREE ENERGY PREDICTED BY IDOCK:   -4.78 KCAL/MOL
REMARK 922        TOTAL FREE ENERGY PREDICTED BY IDOCK:   -8.64 KCAL/MOL
REMARK 923 INTER-LIGAND FREE ENERGY PREDICTED BY IDOCK:   -7.83 KCAL/MOL
REMARK 924 INTRA-LIGAND FREE ENERGY PREDICTED BY IDOCK:   -0.81 KCAL/MOL
REMARK 927      BINDING AFFINITY PREDICTED BY RF-SCORE:    0.00 PKD
ROOT
HETATM    1  C   UNL     1     -12.614  13.613  65.862  1.00  0.00    -0.478 C  
HETATM    2  C   UNL     1     -11.407  13.910  66.742  1.00  0.00    -0.347 C  
ENDROOT
BRANCH   2   3
HETATM    3  C   UNL     1     -11.826  14.681  67.988  1.00  0.00    -0.311 C  
BRANCH   3   4
HETATM    4  O   UNL     1     -11.196  14.113  69.138  1.00  0.00    -0.252 OA 
BRANCH   4   5
HETATM    5  C   UNL     1     -11.993  13.895  70.236  1.00  0.00    -0.331 A  
HETATM    6  C   UNL     1     -12.448  14.926  71.074  1.00  0.00    -0.396 A  
HETATM    7  C   UNL     1     -13.226  14.671  72.208  1.00  0.00    -0.378 A  
HETATM    8  C   UNL     1     -13.669  13.372  72.436  1.00  0.00    -0.698 A  
HETATM    9  N   UNL     1     -13.731  15.734  72.963  1.00  0.00    -0.637 NA 
HETATM   10  H1  UNL     1     -14.298  15.548  73.790  1.00  0.00     0.000 HD 
HETATM   11  C   UNL     1     -13.241  12.330  71.618  1.00  0.00    -0.356 A  
HETATM   12  H2  UNL     1     -14.257  16.349  72.343  1.00  0.00     0.000 HD 
HETATM   13  C   UNL     1     -12.387  12.577  70.531  1.00  0.00    -0.345 A  
BRANCH  13  14
HETATM   14  C   UNL     1     -11.891  11.361  69.829  1.00  0.00    -0.364 C  
HETATM   15  O   UNL     1     -12.218  11.068  68.687  1.00  0.00    -0.571 OA 
BRANCH  14  16
HETATM   16  O   UNL     1     -11.283  10.540  70.716  1.00  0.00    -0.300 OA 
BRANCH  16  17
HETATM   17  C   UNL     1     -11.604   9.147  70.580  1.00  0.00    -0.235 C  
BRANCH  17  18
HETATM   18  C   UNL     1     -10.541   8.387  71.392  1.00  0.00    -0.234 C  
BRANCH  18  19
HETATM   19  N   UNL     1     -10.990   7.657  72.596  1.00  0.00    -0.320 NA 
BRANCH  19  20
HETATM   20  C   UNL     1      -9.879   7.618  73.564  1.00  0.00    -0.297 C  
HETATM   21  C   UNL     1      -8.570   8.198  73.044  1.00  0.00    -0.284 C  
ENDBRANCH  19  20
BRANCH  19  22
HETATM   22  C   UNL     1     -11.579   6.348  72.293  1.00  0.00    -0.299 C  
HETATM   23  C   UNL     1     -11.164   5.192  73.199  1.00  0.00    -0.398 C  
ENDBRANCH  19  22
ENDBRANCH  18  19
ENDBRANCH  17  18
ENDBRANCH  16  17
ENDBRANCH  14  16
ENDBRANCH  13  14
ENDBRANCH   4   5
ENDBRANCH   3   4
ENDBRANCH   2   3
TORSDOF 10
ENDMDL
MODEL       45
REMARK 921   NORMALIZED FREE ENERGY PREDICTED BY IDOCK:   -4.78 KCAL/MOL
REMARK 922        TOTAL FREE ENERGY PREDICTED BY IDOCK:   -8.63 KCAL/MOL
REMARK 923 INTER-LIGAND FREE ENERGY PREDICTED BY IDOCK:   -7.65 KCAL/MOL
REMARK 924 INTRA-LIGAND FREE ENERGY PREDICTED BY IDOCK:   -0.98 KCAL/MOL
REMARK 927      BINDING AFFINITY PREDICTED BY RF-SCORE:    0.00 PKD
ROOT
HETATM    1  C   UNL     1     -11.021   6.768  67.173  1.00  0.00    -0.458 C  
HETATM    2  C   UNL     1     -10.412   8.163  67.205  1.00  0.00    -0.379 C  
ENDROOT
BRANCH   2   3
HETATM    3  C   UNL     1      -9.559   8.350  68.454  1.00  0.00    -0.148 C  
BRANCH   3   4
HETATM    4  O   UNL     1      -9.837   9.624  69.039  1.00  0.00    -0.169 OA 
BRANCH   4   5
HETATM    5  C   UNL     1     -10.848   9.672  69.968  1.00  0.00    -0.264 A  
HETATM    6  C   UNL     1     -10.998   8.721  70.992  1.00  0.00    -0.328 A  
HETATM    7  C   UNL     1     -12.060   8.771  71.900  1.00  0.00    -0.363 A  
HETATM    8  C   UNL     1     -12.915   9.868  71.870  1.00  0.00    -0.545 A  
HETATM    9  N   UNL     1     -12.121   7.856  72.956  1.00  0.00    -0.642 NA 
HETATM   10  H1  UNL     1     -12.895   7.893  73.619  1.00  0.00     0.000 HD 
HETATM   11  C   UNL     1     -12.785  10.831  70.872  1.00  0.00    -0.478 A  
HETATM   12  H2  UNL     1     -11.247   7.907  73.478  1.00  0.00     0.000 HD 
HETATM   13  C   UNL     1     -11.772  10.731  69.905  1.00  0.00    -0.412 A  
BRANCH  13  14
HETATM   14  C   UNL     1     -11.835  11.743  68.816  1.00  0.00    -0.320 C  
HETATM   15  O   UNL     1     -12.006  11.451  67.640  1.00  0.00    -0.630 OA 
BRANCH  14  16
HETATM   16  O   UNL     1     -11.412  12.940  69.283  1.00  0.00    -0.268 OA 
BRANCH  16  17
HETATM   17  C   UNL     1     -11.742  14.070  68.460  1.00  0.00    -0.352 C  
BRANCH  17  18
HETATM   18  C   UNL     1     -10.475  14.942  68.410  1.00  0.00    -0.243 C  
BRANCH  18  19
HETATM   19  N   UNL     1      -9.856  15.178  67.089  1.00  0.00    -0.227 NA 
BRANCH  19  20
HETATM   20  C   UNL     1     -10.363  16.454  66.554  1.00  0.00    -0.303 C  
HETATM   21  C   UNL     1     -10.560  17.542  67.601  1.00  0.00    -0.355 C  
ENDBRANCH  19  20
BRANCH  19  22
HETATM   22  C   UNL     1      -9.993  14.038  66.175  1.00  0.00    -0.312 C  
HETATM   23  C   UNL     1     -10.667  14.321  64.835  1.00  0.00    -0.448 C  
ENDBRANCH  19  22
ENDBRANCH  18  19
ENDBRANCH  17  18
ENDBRANCH  16  17
ENDBRANCH  14  16
ENDBRANCH  13  14
ENDBRANCH   4   5
ENDBRANCH   3   4
ENDBRANCH   2   3
TORSDOF 10
ENDMDL
MODEL       46
REMARK 921   NORMALIZED FREE ENERGY PREDICTED BY IDOCK:   -4.78 KCAL/MOL
REMARK 922        TOTAL FREE ENERGY PREDICTED BY IDOCK:   -8.63 KCAL/MOL
REMARK 923 INTER-LIGAND FREE ENERGY PREDICTED BY IDOCK:   -7.72 KCAL/MOL
REMARK 924 INTRA-LIGAND FREE ENERGY PREDICTED BY IDOCK:   -0.91 KCAL/MOL
REMARK 927      BINDING AFFINITY PREDICTED BY RF-SCORE:    0.00 PKD
ROOT
HETATM    1  C   UNL     1     -11.504  10.308  70.526  1.00  0.00    -0.427 C  
HETATM    2  C   UNL     1     -11.990  11.084  69.310  1.00  0.00    -0.410 C  
ENDROOT
BRANCH   2   3
HETATM    3  C   UNL     1     -11.265  10.623  68.052  1.00  0.00    -0.307 C  
BRANCH   3   4
HETATM    4  O   UNL     1     -10.587  11.730  67.455  1.00  0.00    -0.212 OA 
BRANCH   4   5
HETATM    5  C   UNL     1     -11.205  12.331  66.384  1.00  0.00    -0.324 A  
HETATM    6  C   UNL     1     -11.389  11.694  65.146  1.00  0.00    -0.223 A  
HETATM    7  C   UNL     1     -11.986  12.343  64.059  1.00  0.00    -0.460 A  
HETATM    8  C   UNL     1     -12.531  13.607  64.254  1.00  0.00    -0.304 A  
HETATM    9  N   UNL     1     -12.228  11.642  62.874  1.00  0.00    -0.838 NA 
HETATM   10  H1  UNL     1     -12.664  12.115  62.082  1.00  0.00     0.000 HD 
HETATM   11  C   UNL     1     -12.372  14.260  65.474  1.00  0.00    -0.417 A  
HETATM   12  H2  UNL     1     -12.777  10.812  63.096  1.00  0.00     0.000 HD 
HETATM   13  C   UNL     1     -11.693  13.641  66.535  1.00  0.00    -0.414 A  
BRANCH  13  14
HETATM   14  C   UNL     1     -11.468  14.502  67.729  1.00  0.00    -0.340 C  
HETATM   15  O   UNL     1     -12.168  14.453  68.731  1.00  0.00    -0.275 OA 
BRANCH  14  16
HETATM   16  O   UNL     1     -10.590  15.485  67.421  1.00  0.00    -0.279 OA 
BRANCH  16  17
HETATM   17  C   UNL     1     -10.891  16.772  67.983  1.00  0.00    -0.341 C  
BRANCH  17  18
HETATM   18  C   UNL     1      -9.598  17.247  68.669  1.00  0.00    -0.284 C  
BRANCH  18  19
HETATM   19  N   UNL     1      -8.906  18.417  68.092  1.00  0.00    -0.294 NA 
BRANCH  19  20
HETATM   20  C   UNL     1      -9.706  19.623  68.372  1.00  0.00    -0.403 C  
HETATM   21  C   UNL     1      -9.750  20.629  67.230  1.00  0.00    -0.562 C  
ENDBRANCH  19  20
BRANCH  19  22
HETATM   22  C   UNL     1      -8.549  18.239  66.679  1.00  0.00    -0.273 C  
HETATM   23  C   UNL     1      -7.406  17.273  66.386  1.00  0.00    -0.336 C  
ENDBRANCH  19  22
ENDBRANCH  18  19
ENDBRANCH  17  18
ENDBRANCH  16  17
ENDBRANCH  14  16
ENDBRANCH  13  14
ENDBRANCH   4   5
ENDBRANCH   3   4
ENDBRANCH   2   3
TORSDOF 10
ENDMDL
MODEL       47
REMARK 921   NORMALIZED FREE ENERGY PREDICTED BY IDOCK:   -4.77 KCAL/MOL
REMARK 922        TOTAL FREE ENERGY PREDICTED BY IDOCK:   -8.62 KCAL/MOL
REMARK 923 INTER-LIGAND FREE ENERGY PREDICTED BY IDOCK:   -7.68 KCAL/MOL
REMARK 924 INTRA-LIGAND FREE ENERGY PREDICTED BY IDOCK:   -0.93 KCAL/MOL
REMARK 927      BINDING AFFINITY PREDICTED BY RF-SCORE:    0.00 PKD
ROOT
HETATM    1  C   UNL     1      -9.331   9.707  64.619  1.00  0.00    -0.271 C  
HETATM    2  C   UNL     1      -9.772  10.537  63.421  1.00  0.00    -0.368 C  
ENDROOT
BRANCH   2   3
HETATM    3  C   UNL     1     -11.030  11.331  63.751  1.00  0.00    -0.301 C  
BRANCH   3   4
HETATM    4  O   UNL     1     -11.015  11.704  65.130  1.00  0.00    -0.294 OA 
BRANCH   4   5
HETATM    5  C   UNL     1     -10.892  13.044  65.408  1.00  0.00    -0.284 A  
HETATM    6  C   UNL     1     -11.261  14.055  64.504  1.00  0.00    -0.358 A  
HETATM    7  C   UNL     1     -11.086  15.411  64.798  1.00  0.00    -0.403 A  
HETATM    8  C   UNL     1     -10.659  15.770  66.072  1.00  0.00    -0.334 A  
HETATM    9  N   UNL     1     -11.549  16.384  63.906  1.00  0.00    -1.602 NA 
HETATM   10  H1  UNL     1     -11.423  17.373  64.120  1.00  0.00     0.000 HD 
HETATM   11  C   UNL     1     -10.294  14.791  66.992  1.00  0.00    -0.255 A  
HETATM   12  H2  UNL     1     -12.540  16.216  63.731  1.00  0.00     0.000 HD 
HETATM   13  C   UNL     1     -10.385  13.428  66.663  1.00  0.00    -0.269 A  
BRANCH  13  14
HETATM   14  C   UNL     1      -9.828  12.494  67.679  1.00  0.00    -0.202 C  
HETATM   15  O   UNL     1      -8.775  11.891  67.529  1.00  0.00    -0.151 OA 
BRANCH  14  16
HETATM   16  O   UNL     1     -10.770  12.225  68.613  1.00  0.00    -0.225 OA 
BRANCH  16  17
HETATM   17  C   UNL     1     -11.343  10.910  68.543  1.00  0.00    -0.299 C  
BRANCH  17  18
HETATM   18  C   UNL     1     -10.770  10.134  69.742  1.00  0.00    -0.279 C  
BRANCH  18  19
HETATM   19  N   UNL     1     -11.719   9.379  70.586  1.00  0.00    -0.262 NA 
BRANCH  19  20
HETATM   20  C   UNL     1     -13.000  10.107  70.619  1.00  0.00    -0.227 C  
HETATM   21  C   UNL     1     -13.133  11.098  71.768  1.00  0.00    -0.536 C  
ENDBRANCH  19  20
BRANCH  19  22
HETATM   22  C   UNL     1     -11.176   9.044  71.908  1.00  0.00    -0.368 C  
HETATM   23  C   UNL     1     -11.663   7.738  72.529  1.00  0.00    -0.393 C  
ENDBRANCH  19  22
ENDBRANCH  18  19
ENDBRANCH  17  18
ENDBRANCH  16  17
ENDBRANCH  14  16
ENDBRANCH  13  14
ENDBRANCH   4   5
ENDBRANCH   3   4
ENDBRANCH   2   3
TORSDOF 10
ENDMDL
MODEL       48
REMARK 921   NORMALIZED FREE ENERGY PREDICTED BY IDOCK:   -4.74 KCAL/MOL
REMARK 922        TOTAL FREE ENERGY PREDICTED BY IDOCK:   -8.56 KCAL/MOL
REMARK 923 INTER-LIGAND FREE ENERGY PREDICTED BY IDOCK:   -7.65 KCAL/MOL
REMARK 924 INTRA-LIGAND FREE ENERGY PREDICTED BY IDOCK:   -0.92 KCAL/MOL
REMARK 927      BINDING AFFINITY PREDICTED BY RF-SCORE:    0.00 PKD
ROOT
HETATM    1  C   UNL     1     -10.010  10.057  65.512  1.00  0.00    -0.367 C  
HETATM    2  C   UNL     1     -10.593  11.194  66.339  1.00  0.00    -0.315 C  
ENDROOT
BRANCH   2   3
HETATM    3  C   UNL     1     -11.224  10.660  67.619  1.00  0.00    -0.290 C  
BRANCH   3   4
HETATM    4  O   UNL     1     -10.704  11.370  68.744  1.00  0.00    -0.187 OA 
BRANCH   4   5
HETATM    5  C   UNL     1     -11.577  11.626  69.773  1.00  0.00    -0.315 A  
HETATM    6  C   UNL     1     -12.085  10.625  70.619  1.00  0.00    -0.461 A  
HETATM    7  C   UNL     1     -13.005  10.909  71.634  1.00  0.00    -0.464 A  
HETATM    8  C   UNL     1     -13.322  12.237  71.897  1.00  0.00    -0.431 A  
HETATM    9  N   UNL     1     -13.415   9.897  72.507  1.00  0.00    -0.616 NA 
HETATM   10  H1  UNL     1     -14.086  10.103  73.248  1.00  0.00     0.000 HD 
HETATM   11  C   UNL     1     -12.828  13.252  71.081  1.00  0.00    -0.363 A  
HETATM   12  H2  UNL     1     -12.587   9.479  72.930  1.00  0.00     0.000 HD 
HETATM   13  C   UNL     1     -11.974  12.955  70.005  1.00  0.00    -0.380 A  
BRANCH  13  14
HETATM   14  C   UNL     1     -11.637  14.111  69.130  1.00  0.00    -0.307 C  
HETATM   15  O   UNL     1     -11.994  14.194  67.962  1.00  0.00    -0.355 OA 
BRANCH  14  16
HETATM   16  O   UNL     1     -10.686  14.869  69.724  1.00  0.00    -0.248 OA 
BRANCH  16  17
HETATM   17  C   UNL     1     -10.984  16.271  69.807  1.00  0.00    -0.354 C  
BRANCH  17  18
HETATM   18  C   UNL     1      -9.971  16.975  68.887  1.00  0.00    -0.285 C  
BRANCH  18  19
HETATM   19  N   UNL     1     -10.457  17.462  67.579  1.00  0.00    -0.354 NA 
BRANCH  19  20
HETATM   20  C   UNL     1      -9.494  17.056  66.539  1.00  0.00    -0.276 C  
HETATM   21  C   UNL     1      -9.561  15.583  66.160  1.00  0.00    -0.362 C  
ENDBRANCH  19  20
BRANCH  19  22
HETATM   22  C   UNL     1     -10.782  18.894  67.580  1.00  0.00    -0.394 C  
HETATM   23  C   UNL     1      -9.852  19.799  68.383  1.00  0.00    -0.522 C  
ENDBRANCH  19  22
ENDBRANCH  18  19
ENDBRANCH  17  18
ENDBRANCH  16  17
ENDBRANCH  14  16
ENDBRANCH  13  14
ENDBRANCH   4   5
ENDBRANCH   3   4
ENDBRANCH   2   3
TORSDOF 10
ENDMDL
MODEL       49
REMARK 921   NORMALIZED FREE ENERGY PREDICTED BY IDOCK:   -4.72 KCAL/MOL
REMARK 922        TOTAL FREE ENERGY PREDICTED BY IDOCK:   -8.53 KCAL/MOL
REMARK 923 INTER-LIGAND FREE ENERGY PREDICTED BY IDOCK:   -7.22 KCAL/MOL
REMARK 924 INTRA-LIGAND FREE ENERGY PREDICTED BY IDOCK:   -1.32 KCAL/MOL
REMARK 927      BINDING AFFINITY PREDICTED BY RF-SCORE:    0.00 PKD
ROOT
HETATM    1  C   UNL     1      -8.877   9.623  63.475  1.00  0.00    -0.255 C  
HETATM    2  C   UNL     1      -9.200  10.858  62.646  1.00  0.00    -0.357 C  
ENDROOT
BRANCH   2   3
HETATM    3  C   UNL     1     -10.512  11.485  63.101  1.00  0.00    -0.291 C  
BRANCH   3   4
HETATM    4  O   UNL     1     -10.242  12.623  63.922  1.00  0.00    -0.412 OA 
BRANCH   4   5
HETATM    5  C   UNL     1     -10.805  12.631  65.175  1.00  0.00    -0.290 A  
HETATM    6  C   UNL     1     -10.771  11.526  66.041  1.00  0.00    -0.332 A  
HETATM    7  C   UNL     1     -11.387  11.548  67.296  1.00  0.00    -0.290 A  
HETATM    8  C   UNL     1     -11.934  12.743  67.751  1.00  0.00    -0.316 A  
HETATM    9  N   UNL     1     -11.252  10.457  68.161  1.00  0.00    -0.412 NA 
HETATM   10  H1  UNL     1     -11.702  10.474  69.076  1.00  0.00     0.000 HD 
HETATM   11  C   UNL     1     -11.976  13.859  66.918  1.00  0.00    -0.467 A  
HETATM   12  H2  UNL     1     -10.259  10.271  68.293  1.00  0.00     0.000 HD 
HETATM   13  C   UNL     1     -11.435  13.806  65.623  1.00  0.00    -0.318 A  
BRANCH  13  14
HETATM   14  C   UNL     1     -11.674  15.017  64.790  1.00  0.00    -0.370 C  
HETATM   15  O   UNL     1     -12.637  15.138  64.045  1.00  0.00    -0.791 OA 
BRANCH  14  16
HETATM   16  O   UNL     1     -10.562  15.789  64.781  1.00  0.00    -0.504 OA 
BRANCH  16  17
HETATM   17  C   UNL     1     -10.451  16.714  65.873  1.00  0.00    -0.313 C  
BRANCH  17  18
HETATM   18  C   UNL     1      -9.165  16.330  66.625  1.00  0.00    -0.244 C  
BRANCH  18  19
HETATM   19  N   UNL     1      -9.137  16.542  68.087  1.00  0.00    -0.203 NA 
BRANCH  19  20
HETATM   20  C   UNL     1      -8.521  15.363  68.721  1.00  0.00    -0.188 C  
HETATM   21  C   UNL     1      -8.186  14.232  67.758  1.00  0.00    -0.178 C  
ENDBRANCH  19  20
BRANCH  19  22
HETATM   22  C   UNL     1     -10.443  16.918  68.642  1.00  0.00    -0.352 C  
HETATM   23  C   UNL     1     -10.992  16.022  69.749  1.00  0.00    -0.334 C  
ENDBRANCH  19  22
ENDBRANCH  18  19
ENDBRANCH  17  18
ENDBRANCH  16  17
ENDBRANCH  14  16
ENDBRANCH  13  14
ENDBRANCH   4   5
ENDBRANCH   3   4
ENDBRANCH   2   3
TORSDOF 10
ENDMDL
MODEL       50
REMARK 921   NORMALIZED FREE ENERGY PREDICTED BY IDOCK:   -4.72 KCAL/MOL
REMARK 922        TOTAL FREE ENERGY PREDICTED BY IDOCK:   -8.53 KCAL/MOL
REMARK 923 INTER-LIGAND FREE ENERGY PREDICTED BY IDOCK:   -7.73 KCAL/MOL
REMARK 924 INTRA-LIGAND FREE ENERGY PREDICTED BY IDOCK:   -0.80 KCAL/MOL
REMARK 927      BINDING AFFINITY PREDICTED BY RF-SCORE:    0.00 PKD
ROOT
HETATM    1  C   UNL     1     -12.505  12.626  64.853  1.00  0.00    -0.564 C  
HETATM    2  C   UNL     1     -11.786  12.564  66.194  1.00  0.00    -0.466 C  
ENDROOT
BRANCH   2   3
HETATM    3  C   UNL     1     -12.059  13.821  67.010  1.00  0.00    -0.397 C  
BRANCH   3   4
HETATM    4  O   UNL     1     -11.085  13.941  68.049  1.00  0.00    -0.246 OA 
BRANCH   4   5
HETATM    5  C   UNL     1     -11.539  14.345  69.281  1.00  0.00    -0.304 A  
HETATM    6  C   UNL     1     -12.299  13.521  70.128  1.00  0.00    -0.345 A  
HETATM    7  C   UNL     1     -12.783  13.972  71.361  1.00  0.00    -0.364 A  
HETATM    8  C   UNL     1     -12.388  15.225  71.817  1.00  0.00    -0.429 A  
HETATM    9  N   UNL     1     -13.459  13.090  72.211  1.00  0.00    -0.569 NA 
HETATM   10  H1  UNL     1     -13.811  13.419  73.110  1.00  0.00     0.000 HD 
HETATM   11  C   UNL     1     -11.628  16.061  71.002  1.00  0.00    -0.472 A  
HETATM   12  H2  UNL     1     -12.863  12.280  72.375  1.00  0.00     0.000 HD 
HETATM   13  C   UNL     1     -11.218  15.640  69.726  1.00  0.00    -0.322 A  
BRANCH  13  14
HETATM   14  C   UNL     1     -10.538  16.679  68.906  1.00  0.00    -0.337 C  
HETATM   15  O   UNL     1     -11.062  17.220  67.942  1.00  0.00    -0.276 OA 
BRANCH  14  16
HETATM   16  O   UNL     1      -9.221  16.713  69.215  1.00  0.00    -0.203 OA 
BRANCH  16  17
HETATM   17  C   UNL     1      -8.367  17.256  68.197  1.00  0.00    -0.233 C  
BRANCH  17  18
HETATM   18  C   UNL     1      -8.017  18.683  68.656  1.00  0.00    -0.327 C  
BRANCH  18  19
HETATM   19  N   UNL     1      -8.307  19.793  67.724  1.00  0.00    -0.302 NA 
BRANCH  19  20
HETATM   20  C   UNL     1      -8.862  19.229  66.480  1.00  0.00    -0.346 C  
HETATM   21  C   UNL     1     -10.115  19.932  65.974  1.00  0.00    -0.589 C  
ENDBRANCH  19  20
BRANCH  19  22
HETATM   22  C   UNL     1      -7.167  20.696  67.527  1.00  0.00    -0.335 C  
HETATM   23  C   UNL     1      -5.904  20.375  68.321  1.00  0.00    -0.307 C  
ENDBRANCH  19  22
ENDBRANCH  18  19
ENDBRANCH  17  18
ENDBRANCH  16  17
ENDBRANCH  14  16
ENDBRANCH  13  14
ENDBRANCH   4   5
ENDBRANCH   3   4
ENDBRANCH   2   3
TORSDOF 10
ENDMDL
MODEL       51
REMARK 921   NORMALIZED FREE ENERGY PREDICTED BY IDOCK:   -4.72 KCAL/MOL
REMARK 922        TOTAL FREE ENERGY PREDICTED BY IDOCK:   -8.53 KCAL/MOL
REMARK 923 INTER-LIGAND FREE ENERGY PREDICTED BY IDOCK:   -7.57 KCAL/MOL
REMARK 924 INTRA-LIGAND FREE ENERGY PREDICTED BY IDOCK:   -0.96 KCAL/MOL
REMARK 927      BINDING AFFINITY PREDICTED BY RF-SCORE:    0.00 PKD
ROOT
HETATM    1  C   UNL     1      -7.278  14.298  67.587  1.00  0.00    -0.200 C  
HETATM    2  C   UNL     1      -6.551  15.629  67.456  1.00  0.00    -0.212 C  
ENDROOT
BRANCH   2   3
HETATM    3  C   UNL     1      -6.720  16.461  68.721  1.00  0.00    -0.158 C  
BRANCH   3   4
HETATM    4  O   UNL     1      -8.110  16.618  69.011  1.00  0.00    -0.239 OA 
BRANCH   4   5
HETATM    5  C   UNL     1      -8.758  17.661  68.393  1.00  0.00    -0.284 A  
HETATM    6  C   UNL     1      -8.143  18.893  68.117  1.00  0.00    -0.333 A  
HETATM    7  C   UNL     1      -8.838  19.952  67.523  1.00  0.00    -0.338 A  
HETATM    8  C   UNL     1     -10.136  19.730  67.073  1.00  0.00    -0.551 A  
HETATM    9  N   UNL     1      -8.164  21.130  67.187  1.00  0.00    -0.588 NA 
HETATM   10  H1  UNL     1      -8.671  21.901  66.753  1.00  0.00     0.000 HD 
HETATM   11  C   UNL     1     -10.769  18.516  67.325  1.00  0.00    -0.417 A  
HETATM   12  H2  UNL     1      -7.372  20.889  66.591  1.00  0.00     0.000 HD 
HETATM   13  C   UNL     1     -10.098  17.484  68.002  1.00  0.00    -0.332 A  
BRANCH  13  14
HETATM   14  C   UNL     1     -10.933  16.298  68.333  1.00  0.00    -0.351 C  
HETATM   15  O   UNL     1     -11.581  16.201  69.366  1.00  0.00    -0.321 OA 
BRANCH  14  16
HETATM   16  O   UNL     1     -10.643  15.287  67.481  1.00  0.00    -0.262 OA 
BRANCH  16  17
HETATM   17  C   UNL     1     -11.778  14.675  66.848  1.00  0.00    -0.350 C  
BRANCH  17  18
HETATM   18  C   UNL     1     -11.716  13.183  67.217  1.00  0.00    -0.374 C  
BRANCH  18  19
HETATM   19  N   UNL     1     -11.955  12.200  66.141  1.00  0.00    -0.600 NA 
BRANCH  19  20
HETATM   20  C   UNL     1     -10.700  11.473  65.879  1.00  0.00    -0.272 C  
HETATM   21  C   UNL     1     -10.197  10.643  67.052  1.00  0.00    -0.267 C  
ENDBRANCH  19  20
BRANCH  19  22
HETATM   22  C   UNL     1     -12.577  12.788  64.948  1.00  0.00    -0.470 C  
HETATM   23  C   UNL     1     -12.105  12.247  63.602  1.00  0.00    -0.648 C  
ENDBRANCH  19  22
ENDBRANCH  18  19
ENDBRANCH  17  18
ENDBRANCH  16  17
ENDBRANCH  14  16
ENDBRANCH  13  14
ENDBRANCH   4   5
ENDBRANCH   3   4
ENDBRANCH   2   3
TORSDOF 10
ENDMDL
MODEL       52
REMARK 921   NORMALIZED FREE ENERGY PREDICTED BY IDOCK:   -4.69 KCAL/MOL
REMARK 922        TOTAL FREE ENERGY PREDICTED BY IDOCK:   -8.50 KCAL/MOL
REMARK 923 INTER-LIGAND FREE ENERGY PREDICTED BY IDOCK:   -7.81 KCAL/MOL
REMARK 924 INTRA-LIGAND FREE ENERGY PREDICTED BY IDOCK:   -0.69 KCAL/MOL
REMARK 927      BINDING AFFINITY PREDICTED BY RF-SCORE:    0.00 PKD
ROOT
HETATM    1  C   UNL     1     -10.849   6.746  67.088  1.00  0.00    -0.462 C  
HETATM    2  C   UNL     1     -10.337   7.894  67.946  1.00  0.00    -0.281 C  
ENDROOT
BRANCH   2   3
HETATM    3  C   UNL     1      -9.549   8.888  67.102  1.00  0.00    -0.172 C  
BRANCH   3   4
HETATM    4  O   UNL     1     -10.119  10.192  67.238  1.00  0.00    -0.186 OA 
BRANCH   4   5
HETATM    5  C   UNL     1     -10.502  10.823  66.079  1.00  0.00    -0.208 A  
HETATM    6  C   UNL     1     -10.083  10.412  64.804  1.00  0.00    -0.387 A  
HETATM    7  C   UNL     1     -10.456  11.098  63.643  1.00  0.00    -0.376 A  
HETATM    8  C   UNL     1     -11.375  12.137  63.747  1.00  0.00    -0.529 A  
HETATM    9  N   UNL     1     -10.088  10.602  62.389  1.00  0.00    -0.744 NA 
HETATM   10  H1  UNL     1     -10.360  11.102  61.543  1.00  0.00     0.000 HD 
HETATM   11  C   UNL     1     -11.816  12.562  64.998  1.00  0.00    -0.445 A  
HETATM   12  H2  UNL     1     -10.415   9.639  62.314  1.00  0.00     0.000 HD 
HETATM   13  C   UNL     1     -11.369  11.928  66.169  1.00  0.00    -0.383 A  
BRANCH  13  14
HETATM   14  C   UNL     1     -11.801  12.571  67.440  1.00  0.00    -0.312 C  
HETATM   15  O   UNL     1     -12.100  11.938  68.443  1.00  0.00    -0.448 OA 
BRANCH  14  16
HETATM   16  O   UNL     1     -12.067  13.880  67.220  1.00  0.00    -0.401 OA 
BRANCH  16  17
HETATM   17  C   UNL     1     -11.737  14.762  68.303  1.00  0.00    -0.311 C  
BRANCH  17  18
HETATM   18  C   UNL     1     -10.520  15.576  67.831  1.00  0.00    -0.266 C  
BRANCH  18  19
HETATM   19  N   UNL     1     -10.761  16.952  67.350  1.00  0.00    -0.287 NA 
BRANCH  19  20
HETATM   20  C   UNL     1     -10.263  17.060  65.966  1.00  0.00    -0.325 C  
HETATM   21  C   UNL     1     -10.946  16.127  64.976  1.00  0.00    -0.357 C  
ENDBRANCH  19  20
BRANCH  19  22
HETATM   22  C   UNL     1     -10.249  17.982  68.262  1.00  0.00    -0.395 C  
HETATM   23  C   UNL     1     -10.172  19.401  67.707  1.00  0.00    -0.530 C  
ENDBRANCH  19  22
ENDBRANCH  18  19
ENDBRANCH  17  18
ENDBRANCH  16  17
ENDBRANCH  14  16
ENDBRANCH  13  14
ENDBRANCH   4   5
ENDBRANCH   3   4
ENDBRANCH   2   3
TORSDOF 10
ENDMDL
MODEL       53
REMARK 921   NORMALIZED FREE ENERGY PREDICTED BY IDOCK:   -4.69 KCAL/MOL
REMARK 922        TOTAL FREE ENERGY PREDICTED BY IDOCK:   -8.49 KCAL/MOL
REMARK 923 INTER-LIGAND FREE ENERGY PREDICTED BY IDOCK:   -7.49 KCAL/MOL
REMARK 924 INTRA-LIGAND FREE ENERGY PREDICTED BY IDOCK:   -1.00 KCAL/MOL
REMARK 927      BINDING AFFINITY PREDICTED BY RF-SCORE:    0.00 PKD
ROOT
HETATM    1  C   UNL     1     -12.120  12.454  64.186  1.00  0.00    -0.539 C  
HETATM    2  C   UNL     1     -12.402  13.764  64.908  1.00  0.00    -0.435 C  
ENDROOT
BRANCH   2   3
HETATM    3  C   UNL     1     -11.206  14.180  65.755  1.00  0.00    -0.312 C  
BRANCH   3   4
HETATM    4  O   UNL     1     -10.902  13.148  66.697  1.00  0.00    -0.276 OA 
BRANCH   4   5
HETATM    5  C   UNL     1     -11.384  13.313  67.973  1.00  0.00    -0.291 A  
HETATM    6  C   UNL     1     -11.836  14.546  68.472  1.00  0.00    -0.355 A  
HETATM    7  C   UNL     1     -12.284  14.693  69.789  1.00  0.00    -0.302 A  
HETATM    8  C   UNL     1     -12.410  13.558  70.583  1.00  0.00    -0.432 A  
HETATM    9  N   UNL     1     -12.808  15.918  70.216  1.00  0.00    -0.666 NA 
HETATM   10  H1  UNL     1     -13.135  16.025  71.176  1.00  0.00     0.000 HD 
HETATM   11  C   UNL     1     -11.977  12.321  70.113  1.00  0.00    -0.377 A  
HETATM   12  H2  UNL     1     -13.564  16.183  69.586  1.00  0.00     0.000 HD 
HETATM   13  C   UNL     1     -11.444  12.191  68.820  1.00  0.00    -0.359 A  
BRANCH  13  14
HETATM   14  C   UNL     1     -10.888  10.849  68.497  1.00  0.00    -0.220 C  
HETATM   15  O   UNL     1     -11.304  10.154  67.580  1.00  0.00    -0.282 OA 
BRANCH  14  16
HETATM   16  O   UNL     1     -10.089  10.433  69.508  1.00  0.00    -0.229 OA 
BRANCH  16  17
HETATM   17  C   UNL     1     -10.204   9.042  69.846  1.00  0.00    -0.202 C  
BRANCH  17  18
HETATM   18  C   UNL     1      -9.964   8.954  71.363  1.00  0.00    -0.308 C  
BRANCH  18  19
HETATM   19  N   UNL     1     -11.139   8.732  72.231  1.00  0.00    -0.333 NA 
BRANCH  19  20
HETATM   20  C   UNL     1     -10.909   7.515  73.031  1.00  0.00    -0.392 C  
HETATM   21  C   UNL     1     -11.336   6.222  72.349  1.00  0.00    -0.333 C  
ENDBRANCH  19  20
BRANCH  19  22
HETATM   22  C   UNL     1     -12.410   8.746  71.498  1.00  0.00    -0.328 C  
HETATM   23  C   UNL     1     -13.523   9.608  72.088  1.00  0.00    -0.516 C  
ENDBRANCH  19  22
ENDBRANCH  18  19
ENDBRANCH  17  18
ENDBRANCH  16  17
ENDBRANCH  14  16
ENDBRANCH  13  14
ENDBRANCH   4   5
ENDBRANCH   3   4
ENDBRANCH   2   3
TORSDOF 10
ENDMDL
MODEL       54
REMARK 921   NORMALIZED FREE ENERGY PREDICTED BY IDOCK:   -4.69 KCAL/MOL
REMARK 922        TOTAL FREE ENERGY PREDICTED BY IDOCK:   -8.49 KCAL/MOL
REMARK 923 INTER-LIGAND FREE ENERGY PREDICTED BY IDOCK:   -7.66 KCAL/MOL
REMARK 924 INTRA-LIGAND FREE ENERGY PREDICTED BY IDOCK:   -0.82 KCAL/MOL
REMARK 927      BINDING AFFINITY PREDICTED BY RF-SCORE:    0.00 PKD
ROOT
HETATM    1  C   UNL     1     -10.438  11.610  63.508  1.00  0.00    -0.498 C  
HETATM    2  C   UNL     1     -11.939  11.858  63.455  1.00  0.00    -0.528 C  
ENDROOT
BRANCH   2   3
HETATM    3  C   UNL     1     -12.255  13.316  63.766  1.00  0.00    -0.439 C  
BRANCH   3   4
HETATM    4  O   UNL     1     -12.446  13.476  65.174  1.00  0.00    -0.424 OA 
BRANCH   4   5
HETATM    5  C   UNL     1     -11.488  14.190  65.851  1.00  0.00    -0.338 A  
HETATM    6  C   UNL     1     -11.112  15.498  65.502  1.00  0.00    -0.265 A  
HETATM    7  C   UNL     1     -10.105  16.188  66.185  1.00  0.00    -0.338 A  
HETATM    8  C   UNL     1      -9.553  15.610  67.324  1.00  0.00    -0.220 A  
HETATM    9  N   UNL     1      -9.825  17.519  65.860  1.00  0.00    -0.548 NA 
HETATM   10  H1  UNL     1      -9.091  18.022  66.358  1.00  0.00     0.000 HD 
HETATM   11  C   UNL     1      -9.912  14.318  67.699  1.00  0.00    -0.225 A  
HETATM   12  H2  UNL     1     -10.689  18.057  65.931  1.00  0.00     0.000 HD 
HETATM   13  C   UNL     1     -10.859  13.593  66.959  1.00  0.00    -0.291 A  
BRANCH  13  14
HETATM   14  C   UNL     1     -11.043  12.177  67.381  1.00  0.00    -0.276 C  
HETATM   15  O   UNL     1     -10.459  11.240  66.854  1.00  0.00    -0.224 OA 
BRANCH  14  16
HETATM   16  O   UNL     1     -12.113  12.084  68.204  1.00  0.00    -0.480 OA 
BRANCH  16  17
HETATM   17  C   UNL     1     -11.803  11.887  69.592  1.00  0.00    -0.337 C  
BRANCH  17  18
HETATM   18  C   UNL     1     -11.938  10.375  69.846  1.00  0.00    -0.215 C  
BRANCH  18  19
HETATM   19  N   UNL     1     -11.901   9.910  71.248  1.00  0.00    -0.373 NA 
BRANCH  19  20
HETATM   20  C   UNL     1     -11.307   8.561  71.280  1.00  0.00    -0.271 C  
HETATM   21  C   UNL     1     -10.294   8.345  72.396  1.00  0.00    -0.399 C  
ENDBRANCH  19  20
BRANCH  19  22
HETATM   22  C   UNL     1     -13.197  10.019  71.928  1.00  0.00    -0.452 C  
HETATM   23  C   UNL     1     -13.975   8.720  72.116  1.00  0.00    -0.522 C  
ENDBRANCH  19  22
ENDBRANCH  18  19
ENDBRANCH  17  18
ENDBRANCH  16  17
ENDBRANCH  14  16
ENDBRANCH  13  14
ENDBRANCH   4   5
ENDBRANCH   3   4
ENDBRANCH   2   3
TORSDOF 10
ENDMDL
MODEL       55
REMARK 921   NORMALIZED FREE ENERGY PREDICTED BY IDOCK:   -4.69 KCAL/MOL
REMARK 922        TOTAL FREE ENERGY PREDICTED BY IDOCK:   -8.49 KCAL/MOL
REMARK 923 INTER-LIGAND FREE ENERGY PREDICTED BY IDOCK:   -7.59 KCAL/MOL
REMARK 924 INTRA-LIGAND FREE ENERGY PREDICTED BY IDOCK:   -0.90 KCAL/MOL
REMARK 927      BINDING AFFINITY PREDICTED BY RF-SCORE:    0.00 PKD
ROOT
HETATM    1  C   UNL     1     -10.311  13.767  65.178  1.00  0.00    -0.391 C  
HETATM    2  C   UNL     1     -11.039  15.069  65.478  1.00  0.00    -0.358 C  
ENDROOT
BRANCH   2   3
HETATM    3  C   UNL     1     -10.779  15.514  66.912  1.00  0.00    -0.317 C  
BRANCH   3   4
HETATM    4  O   UNL     1     -10.525  14.371  67.731  1.00  0.00    -0.243 OA 
BRANCH   4   5
HETATM    5  C   UNL     1     -11.163  14.326  68.947  1.00  0.00    -0.264 A  
HETATM    6  C   UNL     1     -11.197  15.411  69.839  1.00  0.00    -0.310 A  
HETATM    7  C   UNL     1     -11.821  15.324  71.088  1.00  0.00    -0.348 A  
HETATM    8  C   UNL     1     -12.540  14.175  71.398  1.00  0.00    -0.445 A  
HETATM    9  N   UNL     1     -11.907  16.456  71.905  1.00  0.00    -0.658 NA 
HETATM   10  H1  UNL     1     -12.362  16.392  72.816  1.00  0.00     0.000 HD 
HETATM   11  C   UNL     1     -12.531  13.086  70.530  1.00  0.00    -0.306 A  
HETATM   12  H2  UNL     1     -12.351  17.204  71.375  1.00  0.00     0.000 HD 
HETATM   13  C   UNL     1     -11.829  13.143  69.315  1.00  0.00    -0.377 A  
BRANCH  13  14
HETATM   14  C   UNL     1     -11.781  11.865  68.552  1.00  0.00    -0.330 C  
HETATM   15  O   UNL     1     -12.099  11.776  67.374  1.00  0.00    -0.595 OA 
BRANCH  14  16
HETATM   16  O   UNL     1     -11.612  10.831  69.408  1.00  0.00    -0.265 OA 
BRANCH  16  17
HETATM   17  C   UNL     1     -10.264  10.353  69.533  1.00  0.00    -0.231 C  
BRANCH  17  18
HETATM   18  C   UNL     1     -10.225   9.525  70.829  1.00  0.00    -0.293 C  
BRANCH  18  19
HETATM   19  N   UNL     1     -11.183   8.408  70.957  1.00  0.00    -0.260 NA 
BRANCH  19  20
HETATM   20  C   UNL     1     -11.860   8.516  72.262  1.00  0.00    -0.383 C  
HETATM   21  C   UNL     1     -13.166   9.299  72.230  1.00  0.00    -0.535 C  
ENDBRANCH  19  20
BRANCH  19  22
HETATM   22  C   UNL     1     -10.580   7.096  70.693  1.00  0.00    -0.225 C  
HETATM   23  C   UNL     1     -11.407   6.127  69.852  1.00  0.00    -0.454 C  
ENDBRANCH  19  22
ENDBRANCH  18  19
ENDBRANCH  17  18
ENDBRANCH  16  17
ENDBRANCH  14  16
ENDBRANCH  13  14
ENDBRANCH   4   5
ENDBRANCH   3   4
ENDBRANCH   2   3
TORSDOF 10
ENDMDL
MODEL       56
REMARK 921   NORMALIZED FREE ENERGY PREDICTED BY IDOCK:   -4.69 KCAL/MOL
REMARK 922        TOTAL FREE ENERGY PREDICTED BY IDOCK:   -8.48 KCAL/MOL
REMARK 923 INTER-LIGAND FREE ENERGY PREDICTED BY IDOCK:   -7.18 KCAL/MOL
REMARK 924 INTRA-LIGAND FREE ENERGY PREDICTED BY IDOCK:   -1.31 KCAL/MOL
REMARK 927      BINDING AFFINITY PREDICTED BY RF-SCORE:    0.00 PKD
ROOT
HETATM    1  C   UNL     1     -10.625  19.623  67.509  1.00  0.00    -0.577 C  
HETATM    2  C   UNL     1      -9.678  18.912  66.553  1.00  0.00    -0.391 C  
ENDROOT
BRANCH   2   3
HETATM    3  C   UNL     1     -10.438  17.924  65.677  1.00  0.00    -0.104 C  
BRANCH   3   4
HETATM    4  O   UNL     1      -9.936  16.604  65.894  1.00  0.00    -0.392 OA 
BRANCH   4   5
HETATM    5  C   UNL     1     -10.817  15.567  65.704  1.00  0.00    -0.346 A  
HETATM    6  C   UNL     1     -11.254  15.152  64.435  1.00  0.00    -0.181 A  
HETATM    7  C   UNL     1     -12.183  14.119  64.271  1.00  0.00    -0.420 A  
HETATM    8  C   UNL     1     -12.583  13.397  65.391  1.00  0.00    -0.528 A  
HETATM    9  N   UNL     1     -12.521  13.680  62.987  1.00  0.00    -0.973 NA 
HETATM   10  H1  UNL     1     -13.198  12.926  62.869  1.00  0.00     0.000 HD 
HETATM   11  C   UNL     1     -12.161  13.780  66.661  1.00  0.00    -0.471 A  
HETATM   12  H2  UNL     1     -11.665  13.423  62.498  1.00  0.00     0.000 HD 
HETATM   13  C   UNL     1     -11.298  14.875  66.830  1.00  0.00    -0.338 A  
BRANCH  13  14
HETATM   14  C   UNL     1     -11.041  15.265  68.244  1.00  0.00    -0.300 C  
HETATM   15  O   UNL     1     -11.292  16.377  68.687  1.00  0.00    -0.355 OA 
BRANCH  14  16
HETATM   16  O   UNL     1     -10.267  14.329  68.840  1.00  0.00    -0.235 OA 
BRANCH  16  17
HETATM   17  C   UNL     1      -8.872  14.384  68.506  1.00  0.00    -0.182 C  
BRANCH  17  18
HETATM   18  C   UNL     1      -8.446  12.933  68.221  1.00  0.00    -0.161 C  
BRANCH  18  19
HETATM   19  N   UNL     1      -9.443  12.036  67.601  1.00  0.00    -0.180 NA 
BRANCH  19  20
HETATM   20  C   UNL     1      -9.694  10.908  68.517  1.00  0.00    -0.183 C  
HETATM   21  C   UNL     1     -11.082  10.903  69.143  1.00  0.00    -0.301 C  
ENDBRANCH  19  20
BRANCH  19  22
HETATM   22  C   UNL     1      -9.091  11.640  66.232  1.00  0.00    -0.214 C  
HETATM   23  C   UNL     1     -10.044  10.668  65.542  1.00  0.00    -0.343 C  
ENDBRANCH  19  22
ENDBRANCH  18  19
ENDBRANCH  17  18
ENDBRANCH  16  17
ENDBRANCH  14  16
ENDBRANCH  13  14
ENDBRANCH   4   5
ENDBRANCH   3   4
ENDBRANCH   2   3
TORSDOF 10
ENDMDL
MODEL       57
REMARK 921   NORMALIZED FREE ENERGY PREDICTED BY IDOCK:   -4.68 KCAL/MOL
REMARK 922        TOTAL FREE ENERGY PREDICTED BY IDOCK:   -8.48 KCAL/MOL
REMARK 923 INTER-LIGAND FREE ENERGY PREDICTED BY IDOCK:   -7.55 KCAL/MOL
REMARK 924 INTRA-LIGAND FREE ENERGY PREDICTED BY IDOCK:   -0.93 KCAL/MOL
REMARK 927      BINDING AFFINITY PREDICTED BY RF-SCORE:    0.00 PKD
ROOT
HETATM    1  C   UNL     1      -8.036  11.806  68.382  1.00  0.00    -0.150 C  
HETATM    2  C   UNL     1      -7.513  10.830  69.427  1.00  0.00    -0.124 C  
ENDROOT
BRANCH   2   3
HETATM    3  C   UNL     1      -8.559   9.769  69.744  1.00  0.00    -0.201 C  
BRANCH   3   4
HETATM    4  O   UNL     1      -9.831  10.182  69.240  1.00  0.00    -0.197 OA 
BRANCH   4   5
HETATM    5  C   UNL     1     -10.886  10.152  70.121  1.00  0.00    -0.311 A  
HETATM    6  C   UNL     1     -11.100   9.101  71.028  1.00  0.00    -0.374 A  
HETATM    7  C   UNL     1     -12.205   9.076  71.886  1.00  0.00    -0.381 A  
HETATM    8  C   UNL     1     -13.040  10.187  71.933  1.00  0.00    -0.571 A  
HETATM    9  N   UNL     1     -12.330   8.055  72.834  1.00  0.00    -0.638 NA 
HETATM   10  H1  UNL     1     -13.136   8.037  73.460  1.00  0.00     0.000 HD 
HETATM   11  C   UNL     1     -12.847  11.248  71.051  1.00  0.00    -0.395 A  
HETATM   12  H2  UNL     1     -11.482   8.033  73.399  1.00  0.00     0.000 HD 
HETATM   13  C   UNL     1     -11.789  11.230  70.128  1.00  0.00    -0.449 A  
BRANCH  13  14
HETATM   14  C   UNL     1     -11.784  12.353  69.151  1.00  0.00    -0.322 C  
HETATM   15  O   UNL     1     -11.705  13.528  69.482  1.00  0.00    -0.287 OA 
BRANCH  14  16
HETATM   16  O   UNL     1     -12.149  11.895  67.931  1.00  0.00    -0.558 OA 
BRANCH  16  17
HETATM   17  C   UNL     1     -11.539  12.567  66.818  1.00  0.00    -0.382 C  
BRANCH  17  18
HETATM   18  C   UNL     1     -10.963  11.459  65.918  1.00  0.00    -0.207 C  
BRANCH  18  19
HETATM   19  N   UNL     1     -10.417  11.857  64.604  1.00  0.00    -0.280 NA 
BRANCH  19  20
HETATM   20  C   UNL     1     -11.424  12.677  63.906  1.00  0.00    -0.442 C  
HETATM   21  C   UNL     1     -12.659  11.908  63.455  1.00  0.00    -0.579 C  
ENDBRANCH  19  20
BRANCH  19  22
HETATM   22  C   UNL     1      -9.908  10.725  63.822  1.00  0.00    -0.339 C  
HETATM   23  C   UNL     1      -9.126  11.071  62.558  1.00  0.00    -0.362 C  
ENDBRANCH  19  22
ENDBRANCH  18  19
ENDBRANCH  17  18
ENDBRANCH  16  17
ENDBRANCH  14  16
ENDBRANCH  13  14
ENDBRANCH   4   5
ENDBRANCH   3   4
ENDBRANCH   2   3
TORSDOF 10
ENDMDL
MODEL       58
REMARK 921   NORMALIZED FREE ENERGY PREDICTED BY IDOCK:   -4.68 KCAL/MOL
REMARK 922        TOTAL FREE ENERGY PREDICTED BY IDOCK:   -8.47 KCAL/MOL
REMARK 923 INTER-LIGAND FREE ENERGY PREDICTED BY IDOCK:   -7.68 KCAL/MOL
REMARK 924 INTRA-LIGAND FREE ENERGY PREDICTED BY IDOCK:   -0.79 KCAL/MOL
REMARK 927      BINDING AFFINITY PREDICTED BY RF-SCORE:    0.00 PKD
ROOT
HETATM    1  C   UNL     1     -13.747  15.569  72.665  1.00  0.00    -0.667 C  
HETATM    2  C   UNL     1     -12.253  15.849  72.572  1.00  0.00    -0.597 C  
ENDROOT
BRANCH   2   3
HETATM    3  C   UNL     1     -11.671  15.251  71.298  1.00  0.00    -0.372 C  
BRANCH   3   4
HETATM    4  O   UNL     1     -12.175  13.926  71.115  1.00  0.00    -0.344 OA 
BRANCH   4   5
HETATM    5  C   UNL     1     -12.005  13.364  69.873  1.00  0.00    -0.338 A  
HETATM    6  C   UNL     1     -11.879  14.122  68.697  1.00  0.00    -0.383 A  
HETATM    7  C   UNL     1     -11.747  13.523  67.439  1.00  0.00    -0.380 A  
HETATM    8  C   UNL     1     -11.603  12.142  67.369  1.00  0.00    -0.410 A  
HETATM    9  N   UNL     1     -11.537  14.316  66.307  1.00  0.00    -0.360 NA 
HETATM   10  H1  UNL     1     -11.440  13.879  65.390  1.00  0.00     0.000 HD 
HETATM   11  C   UNL     1     -11.715  11.365  68.519  1.00  0.00    -0.386 A  
HETATM   12  H2  UNL     1     -10.721  14.904  66.471  1.00  0.00     0.000 HD 
HETATM   13  C   UNL     1     -11.937  11.963  69.770  1.00  0.00    -0.377 A  
BRANCH  13  14
HETATM   14  C   UNL     1     -12.181  11.014  70.890  1.00  0.00    -0.367 C  
HETATM   15  O   UNL     1     -13.102  11.138  71.686  1.00  0.00    -0.449 OA 
BRANCH  14  16
HETATM   16  O   UNL     1     -11.108  10.203  71.040  1.00  0.00    -0.323 OA 
BRANCH  16  17
HETATM   17  C   UNL     1     -11.363   8.971  71.732  1.00  0.00    -0.377 C  
BRANCH  17  18
HETATM   18  C   UNL     1     -10.550   7.893  70.994  1.00  0.00    -0.213 C  
BRANCH  18  19
HETATM   19  N   UNL     1     -10.706   7.801  69.527  1.00  0.00    -0.226 NA 
BRANCH  19  20
HETATM   20  C   UNL     1     -11.128   6.431  69.185  1.00  0.00    -0.365 C  
HETATM   21  C   UNL     1     -10.473   5.342  70.024  1.00  0.00    -0.351 C  
ENDBRANCH  19  20
BRANCH  19  22
HETATM   22  C   UNL     1      -9.530   8.278  68.790  1.00  0.00    -0.148 C  
HETATM   23  C   UNL     1      -9.737   8.582  67.309  1.00  0.00    -0.239 C  
ENDBRANCH  19  22
ENDBRANCH  18  19
ENDBRANCH  17  18
ENDBRANCH  16  17
ENDBRANCH  14  16
ENDBRANCH  13  14
ENDBRANCH   4   5
ENDBRANCH   3   4
ENDBRANCH   2   3
TORSDOF 10
ENDMDL
MODEL       59
REMARK 921   NORMALIZED FREE ENERGY PREDICTED BY IDOCK:   -4.67 KCAL/MOL
REMARK 922        TOTAL FREE ENERGY PREDICTED BY IDOCK:   -8.45 KCAL/MOL
REMARK 923 INTER-LIGAND FREE ENERGY PREDICTED BY IDOCK:   -7.72 KCAL/MOL
REMARK 924 INTRA-LIGAND FREE ENERGY PREDICTED BY IDOCK:   -0.73 KCAL/MOL
REMARK 927      BINDING AFFINITY PREDICTED BY RF-SCORE:    0.00 PKD
ROOT
HETATM    1  C   UNL     1     -12.521   8.470  72.172  1.00  0.00    -0.437 C  
HETATM    2  C   UNL     1     -11.819   9.666  71.545  1.00  0.00    -0.483 C  
ENDROOT
BRANCH   2   3
HETATM    3  C   UNL     1     -12.835  10.684  71.043  1.00  0.00    -0.402 C  
BRANCH   3   4
HETATM    4  O   UNL     1     -12.175  11.667  70.243  1.00  0.00    -0.331 OA 
BRANCH   4   5
HETATM    5  C   UNL     1     -12.420  12.983  70.552  1.00  0.00    -0.231 A  
HETATM    6  C   UNL     1     -12.997  13.394  71.765  1.00  0.00    -0.435 A  
HETATM    7  C   UNL     1     -13.272  14.739  72.037  1.00  0.00    -0.351 A  
HETATM    8  C   UNL     1     -12.840  15.705  71.135  1.00  0.00    -0.540 A  
HETATM    9  N   UNL     1     -13.765  15.111  73.292  1.00  0.00    -0.587 NA 
HETATM   10  H1  UNL     1     -13.965  16.091  73.490  1.00  0.00     0.000 HD 
HETATM   11  C   UNL     1     -12.257  15.328  69.927  1.00  0.00    -0.357 A  
HETATM   12  H2  UNL     1     -13.126  14.761  74.006  1.00  0.00     0.000 HD 
HETATM   13  C   UNL     1     -12.064  13.972  69.617  1.00  0.00    -0.408 A  
BRANCH  13  14
HETATM   14  C   UNL     1     -11.567  13.705  68.240  1.00  0.00    -0.339 C  
HETATM   15  O   UNL     1     -12.308  13.504  67.287  1.00  0.00    -0.297 OA 
BRANCH  14  16
HETATM   16  O   UNL     1     -10.237  13.452  68.277  1.00  0.00    -0.238 OA 
BRANCH  16  17
HETATM   17  C   UNL     1      -9.847  12.157  67.795  1.00  0.00    -0.199 C  
BRANCH  17  18
HETATM   18  C   UNL     1      -9.346  12.375  66.356  1.00  0.00    -0.219 C  
BRANCH  18  19
HETATM   19  N   UNL     1     -10.188  11.868  65.253  1.00  0.00    -0.263 NA 
BRANCH  19  20
HETATM   20  C   UNL     1      -9.545  10.669  64.684  1.00  0.00    -0.280 C  
HETATM   21  C   UNL     1      -9.713   9.407  65.520  1.00  0.00    -0.300 C  
ENDBRANCH  19  20
BRANCH  19  22
HETATM   22  C   UNL     1     -10.532  12.899  64.268  1.00  0.00    -0.407 C  
HETATM   23  C   UNL     1     -11.835  12.695  63.500  1.00  0.00    -0.619 C  
ENDBRANCH  19  22
ENDBRANCH  18  19
ENDBRANCH  17  18
ENDBRANCH  16  17
ENDBRANCH  14  16
ENDBRANCH  13  14
ENDBRANCH   4   5
ENDBRANCH   3   4
ENDBRANCH   2   3
TORSDOF 10
ENDMDL
MODEL       60
REMARK 921   NORMALIZED FREE ENERGY PREDICTED BY IDOCK:   -4.65 KCAL/MOL
REMARK 922        TOTAL FREE ENERGY PREDICTED BY IDOCK:   -8.43 KCAL/MOL
REMARK 923 INTER-LIGAND FREE ENERGY PREDICTED BY IDOCK:   -7.94 KCAL/MOL
REMARK 924 INTRA-LIGAND FREE ENERGY PREDICTED BY IDOCK:   -0.49 KCAL/MOL
REMARK 927      BINDING AFFINITY PREDICTED BY RF-SCORE:    0.00 PKD
ROOT
HETATM    1  C   UNL     1     -11.632  11.762  63.583  1.00  0.00    -0.521 C  
HETATM    2  C   UNL     1     -12.095  13.185  63.302  1.00  0.00    -0.460 C  
ENDROOT
BRANCH   2   3
HETATM    3  C   UNL     1     -12.129  14.004  64.587  1.00  0.00    -0.440 C  
BRANCH   3   4
HETATM    4  O   UNL     1     -10.987  13.690  65.387  1.00  0.00    -0.288 OA 
BRANCH   4   5
HETATM    5  C   UNL     1     -11.215  13.424  66.715  1.00  0.00    -0.310 A  
HETATM    6  C   UNL     1     -11.647  12.173  67.186  1.00  0.00    -0.405 A  
HETATM    7  C   UNL     1     -11.910  11.941  68.540  1.00  0.00    -0.297 A  
HETATM    8  C   UNL     1     -11.608  12.940  69.460  1.00  0.00    -0.348 A  
HETATM    9  N   UNL     1     -12.253  10.657  68.976  1.00  0.00    -0.769 NA 
HETATM   10  H1  UNL     1     -12.444  10.488  69.963  1.00  0.00     0.000 HD 
HETATM   11  C   UNL     1     -11.171  14.188  69.024  1.00  0.00    -0.303 A  
HETATM   12  H2  UNL     1     -11.526  10.009  68.673  1.00  0.00     0.000 HD 
HETATM   13  C   UNL     1     -10.993  14.447  67.655  1.00  0.00    -0.294 A  
BRANCH  13  14
HETATM   14  C   UNL     1     -10.663  15.858  67.317  1.00  0.00    -0.306 C  
HETATM   15  O   UNL     1     -10.025  16.177  66.323  1.00  0.00    -0.278 OA 
BRANCH  14  16
HETATM   16  O   UNL     1     -10.927  16.654  68.380  1.00  0.00    -0.346 OA 
BRANCH  16  17
HETATM   17  C   UNL     1      -9.837  17.483  68.809  1.00  0.00    -0.326 C  
BRANCH  17  18
HETATM   18  C   UNL     1     -10.224  18.923  68.428  1.00  0.00    -0.373 C  
BRANCH  18  19
HETATM   19  N   UNL     1      -9.135  19.856  68.075  1.00  0.00    -0.323 NA 
BRANCH  19  20
HETATM   20  C   UNL     1      -9.192  20.120  66.626  1.00  0.00    -0.351 C  
HETATM   21  C   UNL     1     -10.509  19.732  65.967  1.00  0.00    -0.609 C  
ENDBRANCH  19  20
BRANCH  19  22
HETATM   22  C   UNL     1      -7.820  19.421  68.562  1.00  0.00    -0.354 C  
HETATM   23  C   UNL     1      -6.661  19.532  67.576  1.00  0.00    -0.234 C  
ENDBRANCH  19  22
ENDBRANCH  18  19
ENDBRANCH  17  18
ENDBRANCH  16  17
ENDBRANCH  14  16
ENDBRANCH  13  14
ENDBRANCH   4   5
ENDBRANCH   3   4
ENDBRANCH   2   3
TORSDOF 10
ENDMDL
MODEL       61
REMARK 921   NORMALIZED FREE ENERGY PREDICTED BY IDOCK:   -4.65 KCAL/MOL
REMARK 922        TOTAL FREE ENERGY PREDICTED BY IDOCK:   -8.42 KCAL/MOL
REMARK 923 INTER-LIGAND FREE ENERGY PREDICTED BY IDOCK:   -7.51 KCAL/MOL
REMARK 924 INTRA-LIGAND FREE ENERGY PREDICTED BY IDOCK:   -0.91 KCAL/MOL
REMARK 927      BINDING AFFINITY PREDICTED BY RF-SCORE:    0.00 PKD
ROOT
HETATM    1  C   UNL     1     -11.119  12.557  63.597  1.00  0.00    -0.523 C  
HETATM    2  C   UNL     1     -12.352  12.477  64.487  1.00  0.00    -0.545 C  
ENDROOT
BRANCH   2   3
HETATM    3  C   UNL     1     -12.659  13.836  65.104  1.00  0.00    -0.433 C  
BRANCH   3   4
HETATM    4  O   UNL     1     -12.419  13.790  66.512  1.00  0.00    -0.404 OA 
BRANCH   4   5
HETATM    5  C   UNL     1     -11.450  14.631  67.003  1.00  0.00    -0.368 A  
HETATM    6  C   UNL     1     -10.738  15.536  66.199  1.00  0.00    -0.315 A  
HETATM    7  C   UNL     1      -9.728  16.353  66.719  1.00  0.00    -0.251 A  
HETATM    8  C   UNL     1      -9.517  16.363  68.094  1.00  0.00    -0.213 A  
HETATM    9  N   UNL     1      -9.106  17.302  65.900  1.00  0.00    -0.529 NA 
HETATM   10  H1  UNL     1      -8.371  17.898  66.280  1.00  0.00     0.000 HD 
HETATM   11  C   UNL     1     -10.214  15.482  68.917  1.00  0.00    -0.210 A  
HETATM   12  H2  UNL     1      -9.826  17.898  65.493  1.00  0.00     0.000 HD 
HETATM   13  C   UNL     1     -11.165  14.599  68.380  1.00  0.00    -0.290 A  
BRANCH  13  14
HETATM   14  C   UNL     1     -11.730  13.616  69.345  1.00  0.00    -0.324 C  
HETATM   15  O   UNL     1     -12.508  13.924  70.237  1.00  0.00    -0.335 OA 
BRANCH  14  16
HETATM   16  O   UNL     1     -11.054  12.447  69.251  1.00  0.00    -0.221 OA 
BRANCH  16  17
HETATM   17  C   UNL     1     -11.861  11.264  69.346  1.00  0.00    -0.355 C  
BRANCH  17  18
HETATM   18  C   UNL     1     -11.041  10.255  70.169  1.00  0.00    -0.319 C  
BRANCH  18  19
HETATM   19  N   UNL     1     -11.547   9.890  71.508  1.00  0.00    -0.354 NA 
BRANCH  19  20
HETATM   20  C   UNL     1     -11.308   8.451  71.724  1.00  0.00    -0.300 C  
HETATM   21  C   UNL     1     -11.127   7.644  70.446  1.00  0.00    -0.270 C  
ENDBRANCH  19  20
BRANCH  19  22
HETATM   22  C   UNL     1     -12.932  10.317  71.738  1.00  0.00    -0.469 C  
HETATM   23  C   UNL     1     -13.847   9.308  72.427  1.00  0.00    -0.484 C  
ENDBRANCH  19  22
ENDBRANCH  18  19
ENDBRANCH  17  18
ENDBRANCH  16  17
ENDBRANCH  14  16
ENDBRANCH  13  14
ENDBRANCH   4   5
ENDBRANCH   3   4
ENDBRANCH   2   3
TORSDOF 10
ENDMDL
MODEL       62
REMARK 921   NORMALIZED FREE ENERGY PREDICTED BY IDOCK:   -4.64 KCAL/MOL
REMARK 922        TOTAL FREE ENERGY PREDICTED BY IDOCK:   -8.41 KCAL/MOL
REMARK 923 INTER-LIGAND FREE ENERGY PREDICTED BY IDOCK:   -7.18 KCAL/MOL
REMARK 924 INTRA-LIGAND FREE ENERGY PREDICTED BY IDOCK:   -1.24 KCAL/MOL
REMARK 927      BINDING AFFINITY PREDICTED BY RF-SCORE:    0.00 PKD
ROOT
HETATM    1  C   UNL     1     -10.319  19.768  66.157  1.00  0.00    -0.627 C  
HETATM    2  C   UNL     1     -10.727  18.865  67.312  1.00  0.00    -0.523 C  
ENDROOT
BRANCH   2   3
HETATM    3  C   UNL     1      -9.505  18.198  67.932  1.00  0.00    -0.281 C  
BRANCH   3   4
HETATM    4  O   UNL     1      -9.405  16.851  67.467  1.00  0.00    -0.229 OA 
BRANCH   4   5
HETATM    5  C   UNL     1     -10.273  15.939  68.017  1.00  0.00    -0.238 A  
HETATM    6  C   UNL     1     -10.429  15.764  69.402  1.00  0.00    -0.257 A  
HETATM    7  C   UNL     1     -11.291  14.801  69.936  1.00  0.00    -0.271 A  
HETATM    8  C   UNL     1     -12.115  14.089  69.070  1.00  0.00    -0.358 A  
HETATM    9  N   UNL     1     -11.481  14.721  71.319  1.00  0.00    -0.527 NA 
HETATM   10  H1  UNL     1     -12.110  14.019  71.708  1.00  0.00     0.000 HD 
HETATM   11  C   UNL     1     -11.989  14.247  67.692  1.00  0.00    -0.400 A  
HETATM   12  H2  UNL     1     -11.772  15.638  71.658  1.00  0.00     0.000 HD 
HETATM   13  C   UNL     1     -11.058  15.151  67.156  1.00  0.00    -0.335 A  
BRANCH  13  14
HETATM   14  C   UNL     1     -10.925  15.117  65.674  1.00  0.00    -0.355 C  
HETATM   15  O   UNL     1     -10.638  16.099  65.004  1.00  0.00    -0.588 OA 
BRANCH  14  16
HETATM   16  O   UNL     1     -11.425  13.952  65.200  1.00  0.00    -0.305 OA 
BRANCH  16  17
HETATM   17  C   UNL     1     -10.541  13.208  64.347  1.00  0.00    -0.421 C  
BRANCH  17  18
HETATM   18  C   UNL     1     -10.539  11.769  64.892  1.00  0.00    -0.294 C  
BRANCH  18  19
HETATM   19  N   UNL     1     -10.322  11.585  66.342  1.00  0.00    -0.230 NA 
BRANCH  19  20
HETATM   20  C   UNL     1      -8.915  11.897  66.650  1.00  0.00    -0.198 C  
HETATM   21  C   UNL     1      -8.685  12.450  68.050  1.00  0.00    -0.186 C  
ENDBRANCH  19  20
BRANCH  19  22
HETATM   22  C   UNL     1     -10.776  10.278  66.833  1.00  0.00    -0.184 C  
HETATM   23  C   UNL     1      -9.952   9.068  66.401  1.00  0.00    -0.370 C  
ENDBRANCH  19  22
ENDBRANCH  18  19
ENDBRANCH  17  18
ENDBRANCH  16  17
ENDBRANCH  14  16
ENDBRANCH  13  14
ENDBRANCH   4   5
ENDBRANCH   3   4
ENDBRANCH   2   3
TORSDOF 10
ENDMDL
MODEL       63
REMARK 921   NORMALIZED FREE ENERGY PREDICTED BY IDOCK:   -4.63 KCAL/MOL
REMARK 922        TOTAL FREE ENERGY PREDICTED BY IDOCK:   -8.39 KCAL/MOL
REMARK 923 INTER-LIGAND FREE ENERGY PREDICTED BY IDOCK:   -7.78 KCAL/MOL
REMARK 924 INTRA-LIGAND FREE ENERGY PREDICTED BY IDOCK:   -0.61 KCAL/MOL
REMARK 927      BINDING AFFINITY PREDICTED BY RF-SCORE:    0.00 PKD
ROOT
HETATM    1  C   UNL     1     -12.747   9.705  71.722  1.00  0.00    -0.510 C  
HETATM    2  C   UNL     1     -12.693  10.961  70.863  1.00  0.00    -0.464 C  
ENDROOT
BRANCH   2   3
HETATM    3  C   UNL     1     -11.524  10.896  69.888  1.00  0.00    -0.323 C  
BRANCH   3   4
HETATM    4  O   UNL     1     -11.824  11.671  68.725  1.00  0.00    -0.309 OA 
BRANCH   4   5
HETATM    5  C   UNL     1     -11.254  11.261  67.544  1.00  0.00    -0.291 A  
HETATM    6  C   UNL     1     -10.727   9.973  67.350  1.00  0.00    -0.336 A  
HETATM    7  C   UNL     1     -10.116   9.595  66.150  1.00  0.00    -0.258 A  
HETATM    8  C   UNL     1     -10.151  10.477  65.075  1.00  0.00    -0.390 A  
HETATM    9  N   UNL     1      -9.684   8.277  65.970  1.00  0.00    -0.462 NA 
HETATM   10  H1  UNL     1      -9.239   8.001  65.095  1.00  0.00     0.000 HD 
HETATM   11  C   UNL     1     -10.675  11.758  65.234  1.00  0.00    -0.338 A  
HETATM   12  H2  UNL     1     -10.473   7.653  66.141  1.00  0.00     0.000 HD 
HETATM   13  C   UNL     1     -11.207  12.166  66.468  1.00  0.00    -0.378 A  
BRANCH  13  14
HETATM   14  C   UNL     1     -11.599  13.600  66.544  1.00  0.00    -0.366 C  
HETATM   15  O   UNL     1     -12.656  14.030  66.101  1.00  0.00    -0.468 OA 
BRANCH  14  16
HETATM   16  O   UNL     1     -10.529  14.346  66.905  1.00  0.00    -0.266 OA 
BRANCH  16  17
HETATM   17  C   UNL     1     -10.787  15.748  67.072  1.00  0.00    -0.273 C  
BRANCH  17  18
HETATM   18  C   UNL     1     -10.150  16.444  65.857  1.00  0.00    -0.347 C  
BRANCH  18  19
HETATM   19  N   UNL     1      -9.638  17.817  66.044  1.00  0.00    -0.529 NA 
BRANCH  19  20
HETATM   20  C   UNL     1      -8.344  17.745  66.747  1.00  0.00    -0.248 C  
HETATM   21  C   UNL     1      -7.190  18.415  66.013  1.00  0.00    -0.290 C  
ENDBRANCH  19  20
BRANCH  19  22
HETATM   22  C   UNL     1     -10.616  18.720  66.663  1.00  0.00    -0.383 C  
HETATM   23  C   UNL     1     -10.055  19.787  67.599  1.00  0.00    -0.550 C  
ENDBRANCH  19  22
ENDBRANCH  18  19
ENDBRANCH  17  18
ENDBRANCH  16  17
ENDBRANCH  14  16
ENDBRANCH  13  14
ENDBRANCH   4   5
ENDBRANCH   3   4
ENDBRANCH   2   3
TORSDOF 10
ENDMDL
MODEL       64
REMARK 921   NORMALIZED FREE ENERGY PREDICTED BY IDOCK:   -4.63 KCAL/MOL
REMARK 922        TOTAL FREE ENERGY PREDICTED BY IDOCK:   -8.39 KCAL/MOL
REMARK 923 INTER-LIGAND FREE ENERGY PREDICTED BY IDOCK:   -7.49 KCAL/MOL
REMARK 924 INTRA-LIGAND FREE ENERGY PREDICTED BY IDOCK:   -0.90 KCAL/MOL
REMARK 927      BINDING AFFINITY PREDICTED BY RF-SCORE:    0.00 PKD
ROOT
HETATM    1  C   UNL     1     -10.430  15.809  66.685  1.00  0.00    -0.302 C  
HETATM    2  C   UNL     1     -11.280  15.636  67.935  1.00  0.00    -0.328 C  
ENDROOT
BRANCH   2   3
HETATM    3  C   UNL     1     -11.902  14.246  67.975  1.00  0.00    -0.344 C  
BRANCH   3   4
HETATM    4  O   UNL     1     -11.090  13.378  68.769  1.00  0.00    -0.243 OA 
BRANCH   4   5
HETATM    5  C   UNL     1     -11.729  12.650  69.743  1.00  0.00    -0.284 A  
HETATM    6  C   UNL     1     -12.536  13.233  70.735  1.00  0.00    -0.403 A  
HETATM    7  C   UNL     1     -13.143  12.471  71.738  1.00  0.00    -0.347 A  
HETATM    8  C   UNL     1     -13.053  11.085  71.672  1.00  0.00    -0.543 A  
HETATM    9  N   UNL     1     -14.008  13.082  72.652  1.00  0.00    -0.729 NA 
HETATM   10  H1  UNL     1     -14.451  12.526  73.384  1.00  0.00     0.000 HD 
HETATM   11  C   UNL     1     -12.267  10.478  70.696  1.00  0.00    -0.446 A  
HETATM   12  H2  UNL     1     -14.737  13.569  72.131  1.00  0.00     0.000 HD 
HETATM   13  C   UNL     1     -11.585  11.251  69.742  1.00  0.00    -0.408 A  
BRANCH  13  14
HETATM   14  C   UNL     1     -10.670  10.489  68.849  1.00  0.00    -0.220 C  
HETATM   15  O   UNL     1      -9.541  10.151  69.178  1.00  0.00    -0.189 OA 
BRANCH  14  16
HETATM   16  O   UNL     1     -11.163  10.485  67.589  1.00  0.00    -0.326 OA 
BRANCH  16  17
HETATM   17  C   UNL     1     -10.179  10.552  66.546  1.00  0.00    -0.231 C  
BRANCH  17  18
HETATM   18  C   UNL     1     -10.453  11.864  65.788  1.00  0.00    -0.256 C  
BRANCH  18  19
HETATM   19  N   UNL     1     -10.243  11.867  64.326  1.00  0.00    -0.291 NA 
BRANCH  19  20
HETATM   20  C   UNL     1     -11.449  12.415  63.680  1.00  0.00    -0.489 C  
HETATM   21  C   UNL     1     -12.567  12.787  64.645  1.00  0.00    -0.491 C  
ENDBRANCH  19  20
BRANCH  19  22
HETATM   22  C   UNL     1      -9.810  10.567  63.801  1.00  0.00    -0.300 C  
HETATM   23  C   UNL     1      -8.985  10.595  62.517  1.00  0.00    -0.319 C  
ENDBRANCH  19  22
ENDBRANCH  18  19
ENDBRANCH  17  18
ENDBRANCH  16  17
ENDBRANCH  14  16
ENDBRANCH  13  14
ENDBRANCH   4   5
ENDBRANCH   3   4
ENDBRANCH   2   3
TORSDOF 10
ENDMDL
MODEL       65
REMARK 921   NORMALIZED FREE ENERGY PREDICTED BY IDOCK:   -4.61 KCAL/MOL
REMARK 922        TOTAL FREE ENERGY PREDICTED BY IDOCK:   -8.35 KCAL/MOL
REMARK 923 INTER-LIGAND FREE ENERGY PREDICTED BY IDOCK:   -7.38 KCAL/MOL
REMARK 924 INTRA-LIGAND FREE ENERGY PREDICTED BY IDOCK:   -0.98 KCAL/MOL
REMARK 927      BINDING AFFINITY PREDICTED BY RF-SCORE:    0.00 PKD
ROOT
HETATM    1  C   UNL     1     -10.670   7.209  67.168  1.00  0.00    -0.422 C  
HETATM    2  C   UNL     1      -9.718   8.390  67.294  1.00  0.00    -0.240 C  
ENDROOT
BRANCH   2   3
HETATM    3  C   UNL     1      -9.345   8.627  68.752  1.00  0.00    -0.142 C  
BRANCH   3   4
HETATM    4  O   UNL     1      -9.817   9.911  69.167  1.00  0.00    -0.178 OA 
BRANCH   4   5
HETATM    5  C   UNL     1     -10.849   9.927  70.074  1.00  0.00    -0.294 A  
HETATM    6  C   UNL     1     -11.029   8.935  71.052  1.00  0.00    -0.341 A  
HETATM    7  C   UNL     1     -12.112   8.955  71.938  1.00  0.00    -0.373 A  
HETATM    8  C   UNL     1     -12.958  10.059  71.934  1.00  0.00    -0.547 A  
HETATM    9  N   UNL     1     -12.203   7.997  72.952  1.00  0.00    -0.640 NA 
HETATM   10  H1  UNL     1     -12.993   8.012  73.598  1.00  0.00     0.000 HD 
HETATM   11  C   UNL     1     -12.800  11.062  70.981  1.00  0.00    -0.442 A  
HETATM   12  H2  UNL     1     -11.341   8.020  73.496  1.00  0.00     0.000 HD 
HETATM   13  C   UNL     1     -11.764  10.995  70.034  1.00  0.00    -0.437 A  
BRANCH  13  14
HETATM   14  C   UNL     1     -11.796  12.052  68.987  1.00  0.00    -0.315 C  
HETATM   15  O   UNL     1     -11.998  11.817  67.804  1.00  0.00    -0.586 OA 
BRANCH  14  16
HETATM   16  O   UNL     1     -11.308  13.208  69.494  1.00  0.00    -0.234 OA 
BRANCH  16  17
HETATM   17  C   UNL     1     -12.089  14.379  69.211  1.00  0.00    -0.299 C  
BRANCH  17  18
HETATM   18  C   UNL     1     -11.081  15.488  68.864  1.00  0.00    -0.282 C  
BRANCH  18  19
HETATM   19  N   UNL     1     -11.141  16.069  67.506  1.00  0.00    -0.261 NA 
BRANCH  19  20
HETATM   20  C   UNL     1     -10.992  14.981  66.523  1.00  0.00    -0.327 C  
HETATM   21  C   UNL     1      -9.571  14.452  66.380  1.00  0.00    -0.320 C  
ENDBRANCH  19  20
BRANCH  19  22
HETATM   22  C   UNL     1     -10.215  17.191  67.316  1.00  0.00    -0.316 C  
HETATM   23  C   UNL     1      -9.892  18.020  68.556  1.00  0.00    -0.383 C  
ENDBRANCH  19  22
ENDBRANCH  18  19
ENDBRANCH  17  18
ENDBRANCH  16  17
ENDBRANCH  14  16
ENDBRANCH  13  14
ENDBRANCH   4   5
ENDBRANCH   3   4
ENDBRANCH   2   3
TORSDOF 10
ENDMDL
MODEL       66
REMARK 921   NORMALIZED FREE ENERGY PREDICTED BY IDOCK:   -4.60 KCAL/MOL
REMARK 922        TOTAL FREE ENERGY PREDICTED BY IDOCK:   -8.35 KCAL/MOL
REMARK 923 INTER-LIGAND FREE ENERGY PREDICTED BY IDOCK:   -7.29 KCAL/MOL
REMARK 924 INTRA-LIGAND FREE ENERGY PREDICTED BY IDOCK:   -1.06 KCAL/MOL
REMARK 927      BINDING AFFINITY PREDICTED BY RF-SCORE:    0.00 PKD
ROOT
HETATM    1  C   UNL     1     -10.054  13.617  66.814  1.00  0.00    -0.269 C  
HETATM    2  C   UNL     1     -10.386  12.172  67.154  1.00  0.00    -0.233 C  
ENDROOT
BRANCH   2   3
HETATM    3  C   UNL     1     -11.738  12.080  67.851  1.00  0.00    -0.323 C  
BRANCH   3   4
HETATM    4  O   UNL     1     -11.559  11.606  69.187  1.00  0.00    -0.258 OA 
BRANCH   4   5
HETATM    5  C   UNL     1     -12.148  12.338  70.189  1.00  0.00    -0.287 A  
HETATM    6  C   UNL     1     -12.089  13.740  70.254  1.00  0.00    -0.425 A  
HETATM    7  C   UNL     1     -12.665  14.458  71.307  1.00  0.00    -0.344 A  
HETATM    8  C   UNL     1     -13.430  13.772  72.245  1.00  0.00    -0.638 A  
HETATM    9  N   UNL     1     -12.659  15.857  71.285  1.00  0.00    -0.540 NA 
HETATM   10  H1  UNL     1     -13.079  16.380  72.053  1.00  0.00     0.000 HD 
HETATM   11  C   UNL     1     -13.514  12.383  72.202  1.00  0.00    -0.481 A  
HETATM   12  H2  UNL     1     -13.084  16.168  70.413  1.00  0.00     0.000 HD 
HETATM   13  C   UNL     1     -12.859  11.656  71.193  1.00  0.00    -0.392 A  
BRANCH  13  14
HETATM   14  C   UNL     1     -12.910  10.176  71.347  1.00  0.00    -0.428 C  
HETATM   15  O   UNL     1     -13.935   9.523  71.209  1.00  0.00    -0.240 OA 
BRANCH  14  16
HETATM   16  O   UNL     1     -11.761   9.739  71.912  1.00  0.00    -0.314 OA 
BRANCH  16  17
HETATM   17  C   UNL     1     -11.737   8.343  72.247  1.00  0.00    -0.385 C  
BRANCH  17  18
HETATM   18  C   UNL     1     -10.690   7.702  71.319  1.00  0.00    -0.228 C  
BRANCH  18  19
HETATM   19  N   UNL     1     -11.033   7.565  69.889  1.00  0.00    -0.240 NA 
BRANCH  19  20
HETATM   20  C   UNL     1     -11.017   6.133  69.537  1.00  0.00    -0.393 C  
HETATM   21  C   UNL     1     -10.203   5.261  70.484  1.00  0.00    -0.334 C  
ENDBRANCH  19  20
BRANCH  19  22
HETATM   22  C   UNL     1     -10.218   8.415  69.014  1.00  0.00    -0.207 C  
HETATM   23  C   UNL     1     -10.389   8.204  67.513  1.00  0.00    -0.330 C  
ENDBRANCH  19  22
ENDBRANCH  18  19
ENDBRANCH  17  18
ENDBRANCH  16  17
ENDBRANCH  14  16
ENDBRANCH  13  14
ENDBRANCH   4   5
ENDBRANCH   3   4
ENDBRANCH   2   3
TORSDOF 10
ENDMDL
MODEL       67
REMARK 921   NORMALIZED FREE ENERGY PREDICTED BY IDOCK:   -4.60 KCAL/MOL
REMARK 922        TOTAL FREE ENERGY PREDICTED BY IDOCK:   -8.34 KCAL/MOL
REMARK 923 INTER-LIGAND FREE ENERGY PREDICTED BY IDOCK:   -7.17 KCAL/MOL
REMARK 924 INTRA-LIGAND FREE ENERGY PREDICTED BY IDOCK:   -1.17 KCAL/MOL
REMARK 927      BINDING AFFINITY PREDICTED BY RF-SCORE:    0.00 PKD
ROOT
HETATM    1  C   UNL     1     -12.423  10.939  70.544  1.00  0.00    -0.438 C  
HETATM    2  C   UNL     1     -12.017  11.093  69.085  1.00  0.00    -0.413 C  
ENDROOT
BRANCH   2   3
HETATM    3  C   UNL     1     -12.007  12.562  68.681  1.00  0.00    -0.224 C  
BRANCH   3   4
HETATM    4  O   UNL     1     -12.047  12.669  67.256  1.00  0.00    -0.448 OA 
BRANCH   4   5
HETATM    5  C   UNL     1     -11.585  13.842  66.710  1.00  0.00    -0.378 A  
HETATM    6  C   UNL     1     -11.130  14.924  67.483  1.00  0.00    -0.319 A  
HETATM    7  C   UNL     1     -10.703  16.122  66.901  1.00  0.00    -0.247 A  
HETATM    8  C   UNL     1     -10.601  16.194  65.516  1.00  0.00    -0.394 A  
HETATM    9  N   UNL     1     -10.176  17.139  67.704  1.00  0.00    -0.316 NA 
HETATM   10  H1  UNL     1      -9.864  18.013  67.280  1.00  0.00     0.000 HD 
HETATM   11  C   UNL     1     -11.036  15.135  64.724  1.00  0.00    -0.395 A  
HETATM   12  H2  UNL     1      -9.407  16.754  68.250  1.00  0.00     0.000 HD 
HETATM   13  C   UNL     1     -11.549  13.966  65.309  1.00  0.00    -0.332 A  
BRANCH  13  14
HETATM   14  C   UNL     1     -12.111  12.974  64.352  1.00  0.00    -0.411 C  
HETATM   15  O   UNL     1     -13.234  12.501  64.459  1.00  0.00    -0.832 OA 
BRANCH  14  16
HETATM   16  O   UNL     1     -11.123  12.500  63.557  1.00  0.00    -0.444 OA 
BRANCH  16  17
HETATM   17  C   UNL     1     -10.778  11.122  63.766  1.00  0.00    -0.329 C  
BRANCH  17  18
HETATM   18  C   UNL     1      -9.451  11.131  64.546  1.00  0.00    -0.223 C  
BRANCH  18  19
HETATM   19  N   UNL     1      -9.514  10.916  66.007  1.00  0.00    -0.195 NA 
BRANCH  19  20
HETATM   20  C   UNL     1      -8.177  11.166  66.576  1.00  0.00    -0.167 C  
HETATM   21  C   UNL     1      -8.100  12.379  67.493  1.00  0.00    -0.173 C  
ENDBRANCH  19  20
BRANCH  19  22
HETATM   22  C   UNL     1     -10.099   9.621  66.376  1.00  0.00    -0.247 C  
HETATM   23  C   UNL     1      -9.254   8.386  66.077  1.00  0.00    -0.247 C  
ENDBRANCH  19  22
ENDBRANCH  18  19
ENDBRANCH  17  18
ENDBRANCH  16  17
ENDBRANCH  14  16
ENDBRANCH  13  14
ENDBRANCH   4   5
ENDBRANCH   3   4
ENDBRANCH   2   3
TORSDOF 10
ENDMDL
MODEL       68
REMARK 921   NORMALIZED FREE ENERGY PREDICTED BY IDOCK:   -4.60 KCAL/MOL
REMARK 922        TOTAL FREE ENERGY PREDICTED BY IDOCK:   -8.34 KCAL/MOL
REMARK 923 INTER-LIGAND FREE ENERGY PREDICTED BY IDOCK:   -7.84 KCAL/MOL
REMARK 924 INTRA-LIGAND FREE ENERGY PREDICTED BY IDOCK:   -0.50 KCAL/MOL
REMARK 927      BINDING AFFINITY PREDICTED BY RF-SCORE:    0.00 PKD
ROOT
HETATM    1  C   UNL     1     -10.880  12.114  63.587  1.00  0.00    -0.523 C  
HETATM    2  C   UNL     1     -12.078  13.049  63.685  1.00  0.00    -0.604 C  
ENDROOT
BRANCH   2   3
HETATM    3  C   UNL     1     -11.756  14.246  64.571  1.00  0.00    -0.418 C  
BRANCH   3   4
HETATM    4  O   UNL     1     -10.925  13.830  65.657  1.00  0.00    -0.284 OA 
BRANCH   4   5
HETATM    5  C   UNL     1     -11.086  14.495  66.849  1.00  0.00    -0.325 A  
HETATM    6  C   UNL     1     -10.820  15.866  67.007  1.00  0.00    -0.252 A  
HETATM    7  C   UNL     1     -10.953  16.509  68.241  1.00  0.00    -0.346 A  
HETATM    8  C   UNL     1     -11.491  15.800  69.310  1.00  0.00    -0.368 A  
HETATM    9  N   UNL     1     -10.764  17.892  68.333  1.00  0.00    -0.292 NA 
HETATM   10  H1  UNL     1     -10.861  18.361  69.233  1.00  0.00     0.000 HD 
HETATM   11  C   UNL     1     -11.772  14.442  69.181  1.00  0.00    -0.354 A  
HETATM   12  H2  UNL     1     -11.383  18.348  67.663  1.00  0.00     0.000 HD 
HETATM   13  C   UNL     1     -11.552  13.777  67.964  1.00  0.00    -0.368 A  
BRANCH  13  14
HETATM   14  C   UNL     1     -11.755  12.303  68.004  1.00  0.00    -0.356 C  
HETATM   15  O   UNL     1     -12.085  11.645  67.027  1.00  0.00    -0.547 OA 
BRANCH  14  16
HETATM   16  O   UNL     1     -11.791  11.884  69.291  1.00  0.00    -0.296 OA 
BRANCH  16  17
HETATM   17  C   UNL     1     -11.151  10.623  69.542  1.00  0.00    -0.274 C  
BRANCH  17  18
HETATM   18  C   UNL     1     -11.764  10.089  70.848  1.00  0.00    -0.374 C  
BRANCH  18  19
HETATM   19  N   UNL     1     -11.455   8.696  71.232  1.00  0.00    -0.270 NA 
BRANCH  19  20
HETATM   20  C   UNL     1     -12.631   8.123  71.911  1.00  0.00    -0.335 C  
HETATM   21  C   UNL     1     -13.746   9.122  72.188  1.00  0.00    -0.531 C  
ENDBRANCH  19  20
BRANCH  19  22
HETATM   22  C   UNL     1     -10.198   8.569  71.980  1.00  0.00    -0.321 C  
HETATM   23  C   UNL     1     -10.217   7.625  73.179  1.00  0.00    -0.401 C  
ENDBRANCH  19  22
ENDBRANCH  18  19
ENDBRANCH  17  18
ENDBRANCH  16  17
ENDBRANCH  14  16
ENDBRANCH  13  14
ENDBRANCH   4   5
ENDBRANCH   3   4
ENDBRANCH   2   3
TORSDOF 10
ENDMDL
MODEL       69
REMARK 921   NORMALIZED FREE ENERGY PREDICTED BY IDOCK:   -4.59 KCAL/MOL
REMARK 922        TOTAL FREE ENERGY PREDICTED BY IDOCK:   -8.34 KCAL/MOL
REMARK 923 INTER-LIGAND FREE ENERGY PREDICTED BY IDOCK:   -7.44 KCAL/MOL
REMARK 924 INTRA-LIGAND FREE ENERGY PREDICTED BY IDOCK:   -0.89 KCAL/MOL
REMARK 927      BINDING AFFINITY PREDICTED BY RF-SCORE:    0.00 PKD
ROOT
HETATM    1  C   UNL     1     -11.675  14.893  70.774  1.00  0.00    -0.364 C  
HETATM    2  C   UNL     1     -12.332  13.819  69.919  1.00  0.00    -0.334 C  
ENDROOT
BRANCH   2   3
HETATM    3  C   UNL     1     -11.789  13.856  68.496  1.00  0.00    -0.366 C  
BRANCH   3   4
HETATM    4  O   UNL     1     -12.187  12.674  67.799  1.00  0.00    -0.338 OA 
BRANCH   4   5
HETATM    5  C   UNL     1     -11.793  12.566  66.487  1.00  0.00    -0.367 A  
HETATM    6  C   UNL     1     -12.379  13.304  65.445  1.00  0.00    -0.528 A  
HETATM    7  C   UNL     1     -11.985  13.145  64.112  1.00  0.00    -0.436 A  
HETATM    8  C   UNL     1     -10.893  12.331  63.830  1.00  0.00    -0.495 A  
HETATM    9  N   UNL     1     -12.533  13.964  63.119  1.00  0.00    -1.079 NA 
HETATM   10  H1  UNL     1     -12.246  13.848  62.147  1.00  0.00     0.000 HD 
HETATM   11  C   UNL     1     -10.287  11.594  64.844  1.00  0.00    -0.331 A  
HETATM   12  H2  UNL     1     -12.386  14.937  63.385  1.00  0.00     0.000 HD 
HETATM   13  C   UNL     1     -10.743  11.687  66.169  1.00  0.00    -0.325 A  
BRANCH  13  14
HETATM   14  C   UNL     1     -10.104  10.741  67.124  1.00  0.00    -0.204 C  
HETATM   15  O   UNL     1      -8.992  10.920  67.602  1.00  0.00    -0.139 OA 
BRANCH  14  16
HETATM   16  O   UNL     1     -10.800   9.580  67.148  1.00  0.00    -0.224 OA 
BRANCH  16  17
HETATM   17  C   UNL     1     -10.065   8.417  66.738  1.00  0.00    -0.303 C  
BRANCH  17  18
HETATM   18  C   UNL     1     -10.634   7.245  67.558  1.00  0.00    -0.274 C  
BRANCH  18  19
HETATM   19  N   UNL     1     -10.676   7.393  69.027  1.00  0.00    -0.187 NA 
BRANCH  19  20
HETATM   20  C   UNL     1      -9.319   7.712  69.506  1.00  0.00    -0.153 C  
HETATM   21  C   UNL     1      -9.253   8.884  70.477  1.00  0.00    -0.239 C  
ENDBRANCH  19  20
BRANCH  19  22
HETATM   22  C   UNL     1     -11.307   6.255  69.705  1.00  0.00    -0.422 C  
HETATM   23  C   UNL     1     -10.373   5.310  70.456  1.00  0.00    -0.336 C  
ENDBRANCH  19  22
ENDBRANCH  18  19
ENDBRANCH  17  18
ENDBRANCH  16  17
ENDBRANCH  14  16
ENDBRANCH  13  14
ENDBRANCH   4   5
ENDBRANCH   3   4
ENDBRANCH   2   3
TORSDOF 10
ENDMDL
MODEL       70
REMARK 921   NORMALIZED FREE ENERGY PREDICTED BY IDOCK:   -4.59 KCAL/MOL
REMARK 922        TOTAL FREE ENERGY PREDICTED BY IDOCK:   -8.32 KCAL/MOL
REMARK 923 INTER-LIGAND FREE ENERGY PREDICTED BY IDOCK:   -7.04 KCAL/MOL
REMARK 924 INTRA-LIGAND FREE ENERGY PREDICTED BY IDOCK:   -1.28 KCAL/MOL
REMARK 927      BINDING AFFINITY PREDICTED BY RF-SCORE:    0.00 PKD
ROOT
HETATM    1  C   UNL     1     -11.745  11.062  70.170  1.00  0.00    -0.442 C  
HETATM    2  C   UNL     1     -11.971  12.567  70.128  1.00  0.00    -0.377 C  
ENDROOT
BRANCH   2   3
HETATM    3  C   UNL     1     -11.826  13.093  68.706  1.00  0.00    -0.324 C  
BRANCH   3   4
HETATM    4  O   UNL     1     -12.152  12.059  67.775  1.00  0.00    -0.537 OA 
BRANCH   4   5
HETATM    5  C   UNL     1     -11.745  12.245  66.475  1.00  0.00    -0.352 A  
HETATM    6  C   UNL     1     -12.340  13.176  65.609  1.00  0.00    -0.519 A  
HETATM    7  C   UNL     1     -11.932  13.317  64.278  1.00  0.00    -0.421 A  
HETATM    8  C   UNL     1     -10.819  12.606  63.842  1.00  0.00    -0.468 A  
HETATM    9  N   UNL     1     -12.492  14.317  63.477  1.00  0.00    -1.102 NA 
HETATM   10  H1  UNL     1     -12.194  14.420  62.507  1.00  0.00     0.000 HD 
HETATM   11  C   UNL     1     -10.203  11.681  64.681  1.00  0.00    -0.327 A  
HETATM   12  H2  UNL     1     -12.370  15.213  63.948  1.00  0.00     0.000 HD 
HETATM   13  C   UNL     1     -10.671  11.477  65.989  1.00  0.00    -0.332 A  
BRANCH  13  14
HETATM   14  C   UNL     1     -10.018  10.361  66.727  1.00  0.00    -0.206 C  
HETATM   15  O   UNL     1     -10.289   9.183  66.536  1.00  0.00    -0.263 OA 
BRANCH  14  16
HETATM   16  O   UNL     1      -9.327  10.856  67.780  1.00  0.00    -0.153 OA 
BRANCH  16  17
HETATM   17  C   UNL     1      -8.109  11.539  67.446  1.00  0.00    -0.146 C  
BRANCH  17  18
HETATM   18  C   UNL     1      -8.023  12.743  68.400  1.00  0.00    -0.137 C  
BRANCH  18  19
HETATM   19  N   UNL     1      -7.628  14.046  67.826  1.00  0.00    -0.152 NA 
BRANCH  19  20
HETATM   20  C   UNL     1      -6.495  14.578  68.605  1.00  0.00    -0.086 C  
HETATM   21  C   UNL     1      -6.686  16.006  69.098  1.00  0.00    -0.174 C  
ENDBRANCH  19  20
BRANCH  19  22
HETATM   22  C   UNL     1      -8.753  14.976  67.677  1.00  0.00    -0.176 C  
HETATM   23  C   UNL     1      -9.331  15.120  66.272  1.00  0.00    -0.348 C  
ENDBRANCH  19  22
ENDBRANCH  18  19
ENDBRANCH  17  18
ENDBRANCH  16  17
ENDBRANCH  14  16
ENDBRANCH  13  14
ENDBRANCH   4   5
ENDBRANCH   3   4
ENDBRANCH   2   3
TORSDOF 10
ENDMDL
MODEL       71
REMARK 921   NORMALIZED FREE ENERGY PREDICTED BY IDOCK:   -4.58 KCAL/MOL
REMARK 922        TOTAL FREE ENERGY PREDICTED BY IDOCK:   -8.31 KCAL/MOL
REMARK 923 INTER-LIGAND FREE ENERGY PREDICTED BY IDOCK:   -7.17 KCAL/MOL
REMARK 924 INTRA-LIGAND FREE ENERGY PREDICTED BY IDOCK:   -1.15 KCAL/MOL
REMARK 927      BINDING AFFINITY PREDICTED BY RF-SCORE:    0.00 PKD
ROOT
HETATM    1  C   UNL     1     -12.322   7.461  71.449  1.00  0.00    -0.394 C  
HETATM    2  C   UNL     1     -11.945   8.817  72.029  1.00  0.00    -0.446 C  
ENDROOT
BRANCH   2   3
HETATM    3  C   UNL     1     -13.124   9.780  71.959  1.00  0.00    -0.452 C  
BRANCH   3   4
HETATM    4  O   UNL     1     -13.046  10.549  70.757  1.00  0.00    -0.364 OA 
BRANCH   4   5
HETATM    5  C   UNL     1     -12.833  11.899  70.899  1.00  0.00    -0.130 A  
HETATM    6  C   UNL     1     -13.366  12.655  71.957  1.00  0.00    -0.555 A  
HETATM    7  C   UNL     1     -13.167  14.036  72.055  1.00  0.00    -0.412 A  
HETATM    8  C   UNL     1     -12.308  14.653  71.152  1.00  0.00    -0.403 A  
HETATM    9  N   UNL     1     -13.640  14.733  73.171  1.00  0.00    -0.546 NA 
HETATM   10  H1  UNL     1     -13.495  15.740  73.243  1.00  0.00     0.000 HD 
HETATM   11  C   UNL     1     -11.759  13.929  70.097  1.00  0.00    -0.314 A  
HETATM   12  H2  UNL     1     -13.264  14.292  74.010  1.00  0.00     0.000 HD 
HETATM   13  C   UNL     1     -12.033  12.559  69.949  1.00  0.00    -0.371 A  
BRANCH  13  14
HETATM   14  C   UNL     1     -11.502  11.940  68.704  1.00  0.00    -0.294 C  
HETATM   15  O   UNL     1     -12.218  11.564  67.785  1.00  0.00    -0.560 OA 
BRANCH  14  16
HETATM   16  O   UNL     1     -10.198  11.622  68.874  1.00  0.00    -0.198 OA 
BRANCH  16  17
HETATM   17  C   UNL     1      -9.941  10.250  69.208  1.00  0.00    -0.227 C  
BRANCH  17  18
HETATM   18  C   UNL     1      -8.798   9.795  68.282  1.00  0.00    -0.119 C  
BRANCH  18  19
HETATM   19  N   UNL     1      -9.166   9.118  67.021  1.00  0.00    -0.132 NA 
BRANCH  19  20
HETATM   20  C   UNL     1      -8.872  10.025  65.898  1.00  0.00    -0.144 C  
HETATM   21  C   UNL     1     -10.092  10.437  65.085  1.00  0.00    -0.379 C  
ENDBRANCH  19  20
BRANCH  19  22
HETATM   22  C   UNL     1     -10.533   8.583  67.030  1.00  0.00    -0.292 C  
HETATM   23  C   UNL     1     -10.666   7.065  67.112  1.00  0.00    -0.433 C  
ENDBRANCH  19  22
ENDBRANCH  18  19
ENDBRANCH  17  18
ENDBRANCH  16  17
ENDBRANCH  14  16
ENDBRANCH  13  14
ENDBRANCH   4   5
ENDBRANCH   3   4
ENDBRANCH   2   3
TORSDOF 10
ENDMDL
MODEL       72
REMARK 921   NORMALIZED FREE ENERGY PREDICTED BY IDOCK:   -4.57 KCAL/MOL
REMARK 922        TOTAL FREE ENERGY PREDICTED BY IDOCK:   -8.30 KCAL/MOL
REMARK 923 INTER-LIGAND FREE ENERGY PREDICTED BY IDOCK:   -7.28 KCAL/MOL
REMARK 924 INTRA-LIGAND FREE ENERGY PREDICTED BY IDOCK:   -1.02 KCAL/MOL
REMARK 927      BINDING AFFINITY PREDICTED BY RF-SCORE:    0.00 PKD
ROOT
HETATM    1  C   UNL     1     -10.497  11.956  63.401  1.00  0.00    -0.487 C  
HETATM    2  C   UNL     1     -12.017  12.022  63.358  1.00  0.00    -0.571 C  
ENDROOT
BRANCH   2   3
HETATM    3  C   UNL     1     -12.544  12.984  64.415  1.00  0.00    -0.285 C  
BRANCH   3   4
HETATM    4  O   UNL     1     -12.488  12.363  65.701  1.00  0.00    -0.640 OA 
BRANCH   4   5
HETATM    5  C   UNL     1     -11.772  13.018  66.674  1.00  0.00    -0.381 A  
HETATM    6  C   UNL     1     -11.833  14.407  66.871  1.00  0.00    -0.433 A  
HETATM    7  C   UNL     1     -11.062  15.053  67.844  1.00  0.00    -0.307 A  
HETATM    8  C   UNL     1     -10.315  14.280  68.726  1.00  0.00    -0.239 A  
HETATM    9  N   UNL     1     -11.221  16.425  68.064  1.00  0.00    -0.289 NA 
HETATM   10  H1  UNL     1     -10.659  16.895  68.773  1.00  0.00     0.000 HD 
HETATM   11  C   UNL     1     -10.241  12.899  68.561  1.00  0.00    -0.210 A  
HETATM   12  H2  UNL     1     -12.204  16.609  68.258  1.00  0.00     0.000 HD 
HETATM   13  C   UNL     1     -10.946  12.262  67.526  1.00  0.00    -0.298 A  
BRANCH  13  14
HETATM   14  C   UNL     1     -10.666  10.808  67.373  1.00  0.00    -0.268 C  
HETATM   15  O   UNL     1     -10.061  10.339  66.418  1.00  0.00    -0.217 OA 
BRANCH  14  16
HETATM   16  O   UNL     1     -11.400  10.107  68.269  1.00  0.00    -0.232 OA 
BRANCH  16  17
HETATM   17  C   UNL     1     -10.659   9.174  69.070  1.00  0.00    -0.199 C  
BRANCH  17  18
HETATM   18  C   UNL     1     -10.944   9.551  70.534  1.00  0.00    -0.288 C  
BRANCH  18  19
HETATM   19  N   UNL     1     -11.921   8.727  71.276  1.00  0.00    -0.294 NA 
BRANCH  19  20
HETATM   20  C   UNL     1     -13.117   9.546  71.547  1.00  0.00    -0.389 C  
HETATM   21  C   UNL     1     -12.850  11.043  71.624  1.00  0.00    -0.540 C  
ENDBRANCH  19  20
BRANCH  19  22
HETATM   22  C   UNL     1     -11.348   8.078  72.461  1.00  0.00    -0.406 C  
HETATM   23  C   UNL     1     -11.171   6.564  72.385  1.00  0.00    -0.310 C  
ENDBRANCH  19  22
ENDBRANCH  18  19
ENDBRANCH  17  18
ENDBRANCH  16  17
ENDBRANCH  14  16
ENDBRANCH  13  14
ENDBRANCH   4   5
ENDBRANCH   3   4
ENDBRANCH   2   3
TORSDOF 10
ENDMDL
MODEL       73
REMARK 921   NORMALIZED FREE ENERGY PREDICTED BY IDOCK:   -4.57 KCAL/MOL
REMARK 922        TOTAL FREE ENERGY PREDICTED BY IDOCK:   -8.29 KCAL/MOL
REMARK 923 INTER-LIGAND FREE ENERGY PREDICTED BY IDOCK:   -7.10 KCAL/MOL
REMARK 924 INTRA-LIGAND FREE ENERGY PREDICTED BY IDOCK:   -1.19 KCAL/MOL
REMARK 927      BINDING AFFINITY PREDICTED BY RF-SCORE:    0.00 PKD
ROOT
HETATM    1  C   UNL     1     -13.650  13.680  72.168  1.00  0.00    -0.632 C  
HETATM    2  C   UNL     1     -12.644  13.320  71.084  1.00  0.00    -0.412 C  
ENDROOT
BRANCH   2   3
HETATM    3  C   UNL     1     -12.407  14.504  70.154  1.00  0.00    -0.342 C  
BRANCH   3   4
HETATM    4  O   UNL     1     -12.283  14.041  68.808  1.00  0.00    -0.337 OA 
BRANCH   4   5
HETATM    5  C   UNL     1     -11.563  14.830  67.945  1.00  0.00    -0.351 A  
HETATM    6  C   UNL     1     -10.792  15.927  68.367  1.00  0.00    -0.316 A  
HETATM    7  C   UNL     1     -10.100  16.739  67.463  1.00  0.00    -0.276 A  
HETATM    8  C   UNL     1     -10.068  16.369  66.122  1.00  0.00    -0.364 A  
HETATM    9  N   UNL     1      -9.275  17.765  67.934  1.00  0.00    -0.260 NA 
HETATM   10  H1  UNL     1      -8.770  18.356  67.274  1.00  0.00     0.000 HD 
HETATM   11  C   UNL     1     -10.815  15.282  65.675  1.00  0.00    -0.371 A  
HETATM   12  H2  UNL     1      -8.603  17.364  68.588  1.00  0.00     0.000 HD 
HETATM   13  C   UNL     1     -11.582  14.522  66.573  1.00  0.00    -0.379 A  
BRANCH  13  14
HETATM   14  C   UNL     1     -12.443  13.482  65.945  1.00  0.00    -0.429 C  
HETATM   15  O   UNL     1     -13.446  13.746  65.296  1.00  0.00    -0.586 OA 
BRANCH  14  16
HETATM   16  O   UNL     1     -12.109  12.263  66.428  1.00  0.00    -0.623 OA 
BRANCH  16  17
HETATM   17  C   UNL     1     -10.998  11.630  65.774  1.00  0.00    -0.274 C  
BRANCH  17  18
HETATM   18  C   UNL     1     -10.423  10.627  66.790  1.00  0.00    -0.247 C  
BRANCH  18  19
HETATM   19  N   UNL     1      -9.134  10.961  67.429  1.00  0.00    -0.140 NA 
BRANCH  19  20
HETATM   20  C   UNL     1      -9.313  10.932  68.892  1.00  0.00    -0.160 C  
HETATM   21  C   UNL     1     -10.461  10.053  69.369  1.00  0.00    -0.252 C  
ENDBRANCH  19  20
BRANCH  19  22
HETATM   22  C   UNL     1      -8.537  12.199  66.914  1.00  0.00    -0.191 C  
HETATM   23  C   UNL     1      -8.196  13.268  67.948  1.00  0.00    -0.163 C  
ENDBRANCH  19  22
ENDBRANCH  18  19
ENDBRANCH  17  18
ENDBRANCH  16  17
ENDBRANCH  14  16
ENDBRANCH  13  14
ENDBRANCH   4   5
ENDBRANCH   3   4
ENDBRANCH   2   3
TORSDOF 10
ENDMDL
MODEL       74
REMARK 921   NORMALIZED FREE ENERGY PREDICTED BY IDOCK:   -4.56 KCAL/MOL
REMARK 922        TOTAL FREE ENERGY PREDICTED BY IDOCK:   -8.28 KCAL/MOL
REMARK 923 INTER-LIGAND FREE ENERGY PREDICTED BY IDOCK:   -7.28 KCAL/MOL
REMARK 924 INTRA-LIGAND FREE ENERGY PREDICTED BY IDOCK:   -1.00 KCAL/MOL
REMARK 927      BINDING AFFINITY PREDICTED BY RF-SCORE:    0.00 PKD
ROOT
HETATM    1  C   UNL     1     -10.544  19.355  66.099  1.00  0.00    -0.571 C  
HETATM    2  C   UNL     1      -9.747  19.480  67.389  1.00  0.00    -0.449 C  
ENDROOT
BRANCH   2   3
HETATM    3  C   UNL     1     -10.143  18.388  68.375  1.00  0.00    -0.390 C  
BRANCH   3   4
HETATM    4  O   UNL     1     -10.428  17.181  67.666  1.00  0.00    -0.335 OA 
BRANCH   4   5
HETATM    5  C   UNL     1     -10.938  16.137  68.400  1.00  0.00    -0.341 A  
HETATM    6  C   UNL     1     -11.276  16.245  69.759  1.00  0.00    -0.314 A  
HETATM    7  C   UNL     1     -11.756  15.155  70.493  1.00  0.00    -0.302 A  
HETATM    8  C   UNL     1     -12.030  13.967  69.823  1.00  0.00    -0.393 A  
HETATM    9  N   UNL     1     -12.163  15.330  71.819  1.00  0.00    -0.328 NA 
HETATM   10  H1  UNL     1     -12.513  14.535  72.354  1.00  0.00     0.000 HD 
HETATM   11  C   UNL     1     -11.713  13.833  68.473  1.00  0.00    -0.391 A  
HETATM   12  H2  UNL     1     -12.863  16.071  71.847  1.00  0.00     0.000 HD 
HETATM   13  C   UNL     1     -11.147  14.902  67.760  1.00  0.00    -0.313 A  
BRANCH  13  14
HETATM   14  C   UNL     1     -10.724  14.580  66.369  1.00  0.00    -0.309 C  
HETATM   15  O   UNL     1      -9.555  14.441  66.040  1.00  0.00    -0.302 OA 
BRANCH  14  16
HETATM   16  O   UNL     1     -11.772  14.742  65.527  1.00  0.00    -0.342 OA 
BRANCH  16  17
HETATM   17  C   UNL     1     -11.779  13.871  64.386  1.00  0.00    -0.404 C  
BRANCH  17  18
HETATM   18  C   UNL     1     -11.864  12.440  64.945  1.00  0.00    -0.386 C  
BRANCH  18  19
HETATM   19  N   UNL     1     -10.939  11.431  64.389  1.00  0.00    -0.330 NA 
BRANCH  19  20
HETATM   20  C   UNL     1      -9.984  11.039  65.441  1.00  0.00    -0.260 C  
HETATM   21  C   UNL     1     -10.631  10.495  66.708  1.00  0.00    -0.284 C  
ENDBRANCH  19  20
BRANCH  19  22
HETATM   22  C   UNL     1     -10.316  11.850  63.128  1.00  0.00    -0.286 C  
HETATM   23  C   UNL     1      -8.913  11.317  62.855  1.00  0.00    -0.246 C  
ENDBRANCH  19  22
ENDBRANCH  18  19
ENDBRANCH  17  18
ENDBRANCH  16  17
ENDBRANCH  14  16
ENDBRANCH  13  14
ENDBRANCH   4   5
ENDBRANCH   3   4
ENDBRANCH   2   3
TORSDOF 10
ENDMDL
MODEL       75
REMARK 921   NORMALIZED FREE ENERGY PREDICTED BY IDOCK:   -4.53 KCAL/MOL
REMARK 922        TOTAL FREE ENERGY PREDICTED BY IDOCK:   -8.23 KCAL/MOL
REMARK 923 INTER-LIGAND FREE ENERGY PREDICTED BY IDOCK:   -7.51 KCAL/MOL
REMARK 924 INTRA-LIGAND FREE ENERGY PREDICTED BY IDOCK:   -0.72 KCAL/MOL
REMARK 927      BINDING AFFINITY PREDICTED BY RF-SCORE:    0.00 PKD
ROOT
HETATM    1  C   UNL     1     -10.783  15.630  65.034  1.00  0.00    -0.458 C  
HETATM    2  C   UNL     1     -12.097  14.922  64.734  1.00  0.00    -0.335 C  
ENDROOT
BRANCH   2   3
HETATM    3  C   UNL     1     -12.575  14.138  65.950  1.00  0.00    -0.417 C  
BRANCH   3   4
HETATM    4  O   UNL     1     -12.658  12.749  65.623  1.00  0.00    -0.596 OA 
BRANCH   4   5
HETATM    5  C   UNL     1     -11.471  12.081  65.451  1.00  0.00    -0.305 A  
HETATM    6  C   UNL     1     -10.844  11.934  64.202  1.00  0.00    -0.412 A  
HETATM    7  C   UNL     1      -9.655  11.213  64.049  1.00  0.00    -0.254 A  
HETATM    8  C   UNL     1      -9.007  10.743  65.187  1.00  0.00    -0.215 A  
HETATM    9  N   UNL     1      -9.021  11.168  62.804  1.00  0.00    -0.420 NA 
HETATM   10  H1  UNL     1      -8.153  10.643  62.693  1.00  0.00     0.000 HD 
HETATM   11  C   UNL     1      -9.600  10.881  66.440  1.00  0.00    -0.229 A  
HETATM   12  H2  UNL     1      -8.862  12.124  62.488  1.00  0.00     0.000 HD 
HETATM   13  C   UNL     1     -10.839  11.527  66.580  1.00  0.00    -0.335 A  
BRANCH  13  14
HETATM   14  C   UNL     1     -11.426  11.478  67.947  1.00  0.00    -0.301 C  
HETATM   15  O   UNL     1     -12.211  10.612  68.308  1.00  0.00    -0.345 OA 
BRANCH  14  16
HETATM   16  O   UNL     1     -11.181  12.644  68.589  1.00  0.00    -0.246 OA 
BRANCH  16  17
HETATM   17  C   UNL     1     -11.849  12.800  69.850  1.00  0.00    -0.301 C  
BRANCH  17  18
HETATM   18  C   UNL     1     -12.372  14.247  69.876  1.00  0.00    -0.324 C  
BRANCH  18  19
HETATM   19  N   UNL     1     -11.860  15.143  70.934  1.00  0.00    -0.297 NA 
BRANCH  19  20
HETATM   20  C   UNL     1     -12.983  15.530  71.807  1.00  0.00    -0.449 C  
HETATM   21  C   UNL     1     -12.585  15.842  73.243  1.00  0.00    -0.627 C  
ENDBRANCH  19  20
BRANCH  19  22
HETATM   22  C   UNL     1     -11.081  16.271  70.409  1.00  0.00    -0.311 C  
HETATM   23  C   UNL     1     -10.956  16.359  68.891  1.00  0.00    -0.332 C  
ENDBRANCH  19  22
ENDBRANCH  18  19
ENDBRANCH  17  18
ENDBRANCH  16  17
ENDBRANCH  14  16
ENDBRANCH  13  14
ENDBRANCH   4   5
ENDBRANCH   3   4
ENDBRANCH   2   3
TORSDOF 10
ENDMDL
MODEL       76
REMARK 921   NORMALIZED FREE ENERGY PREDICTED BY IDOCK:   -4.52 KCAL/MOL
REMARK 922        TOTAL FREE ENERGY PREDICTED BY IDOCK:   -8.22 KCAL/MOL
REMARK 923 INTER-LIGAND FREE ENERGY PREDICTED BY IDOCK:   -6.86 KCAL/MOL
REMARK 924 INTRA-LIGAND FREE ENERGY PREDICTED BY IDOCK:   -1.36 KCAL/MOL
REMARK 927      BINDING AFFINITY PREDICTED BY RF-SCORE:    0.00 PKD
ROOT
HETATM    1  C   UNL     1      -5.866  17.141  69.605  1.00  0.00    -0.229 C  
HETATM    2  C   UNL     1      -6.629  15.874  69.247  1.00  0.00    -0.170 C  
ENDROOT
BRANCH   2   3
HETATM    3  C   UNL     1      -6.807  15.761  67.738  1.00  0.00    -0.156 C  
BRANCH   3   4
HETATM    4  O   UNL     1      -8.197  15.830  67.411  1.00  0.00    -0.152 OA 
BRANCH   4   5
HETATM    5  C   UNL     1      -8.744  17.085  67.296  1.00  0.00    -0.199 A  
HETATM    6  C   UNL     1      -8.148  18.120  66.556  1.00  0.00    -0.295 A  
HETATM    7  C   UNL     1      -8.707  19.400  66.489  1.00  0.00    -0.351 A  
HETATM    8  C   UNL     1      -9.955  19.616  67.062  1.00  0.00    -0.510 A  
HETATM    9  N   UNL     1      -8.126  20.374  65.670  1.00  0.00    -0.478 NA 
HETATM   10  H1  UNL     1      -8.534  21.307  65.620  1.00  0.00     0.000 HD 
HETATM   11  C   UNL     1     -10.575  18.606  67.795  1.00  0.00    -0.433 A  
HETATM   12  H2  UNL     1      -8.060  20.001  64.723  1.00  0.00     0.000 HD 
HETATM   13  C   UNL     1      -9.969  17.347  67.937  1.00  0.00    -0.301 A  
BRANCH  13  14
HETATM   14  C   UNL     1     -10.665  16.411  68.862  1.00  0.00    -0.319 C  
HETATM   15  O   UNL     1     -10.264  16.164  69.991  1.00  0.00    -0.215 OA 
BRANCH  14  16
HETATM   16  O   UNL     1     -11.597  15.707  68.178  1.00  0.00    -0.353 OA 
BRANCH  16  17
HETATM   17  C   UNL     1     -11.237  14.351  67.872  1.00  0.00    -0.286 C  
BRANCH  17  18
HETATM   18  C   UNL     1     -12.246  13.873  66.814  1.00  0.00    -0.399 C  
BRANCH  18  19
HETATM   19  N   UNL     1     -11.800  13.844  65.405  1.00  0.00    -0.339 NA 
BRANCH  19  20
HETATM   20  C   UNL     1     -11.612  12.439  65.001  1.00  0.00    -0.345 C  
HETATM   21  C   UNL     1     -12.073  12.125  63.584  1.00  0.00    -0.648 C  
ENDBRANCH  19  20
BRANCH  19  22
HETATM   22  C   UNL     1     -10.645  14.712  65.147  1.00  0.00    -0.421 C  
HETATM   23  C   UNL     1     -10.952  16.108  64.611  1.00  0.00    -0.263 C  
ENDBRANCH  19  22
ENDBRANCH  18  19
ENDBRANCH  17  18
ENDBRANCH  16  17
ENDBRANCH  14  16
ENDBRANCH  13  14
ENDBRANCH   4   5
ENDBRANCH   3   4
ENDBRANCH   2   3
TORSDOF 10
ENDMDL
MODEL       77
REMARK 921   NORMALIZED FREE ENERGY PREDICTED BY IDOCK:   -4.51 KCAL/MOL
REMARK 922        TOTAL FREE ENERGY PREDICTED BY IDOCK:   -8.21 KCAL/MOL
REMARK 923 INTER-LIGAND FREE ENERGY PREDICTED BY IDOCK:   -7.45 KCAL/MOL
REMARK 924 INTRA-LIGAND FREE ENERGY PREDICTED BY IDOCK:   -0.76 KCAL/MOL
REMARK 927      BINDING AFFINITY PREDICTED BY RF-SCORE:    0.00 PKD
ROOT
HETATM    1  C   UNL     1     -12.535  15.584  70.508  1.00  0.00    -0.472 C  
HETATM    2  C   UNL     1     -12.542  14.085  70.245  1.00  0.00    -0.354 C  
ENDROOT
BRANCH   2   3
HETATM    3  C   UNL     1     -11.651  13.742  69.058  1.00  0.00    -0.313 C  
BRANCH   3   4
HETATM    4  O   UNL     1     -11.903  14.655  67.988  1.00  0.00    -0.338 OA 
BRANCH   4   5
HETATM    5  C   UNL     1     -11.675  14.195  66.714  1.00  0.00    -0.410 A  
HETATM    6  C   UNL     1     -12.584  13.385  66.013  1.00  0.00    -0.361 A  
HETATM    7  C   UNL     1     -12.308  12.897  64.732  1.00  0.00    -0.459 A  
HETATM    8  C   UNL     1     -11.159  13.336  64.083  1.00  0.00    -0.393 A  
HETATM    9  N   UNL     1     -13.279  12.168  64.038  1.00  0.00    -0.705 NA 
HETATM   10  H1  UNL     1     -13.078  11.813  63.103  1.00  0.00     0.000 HD 
HETATM   11  C   UNL     1     -10.242  14.146  64.748  1.00  0.00    -0.311 A  
HETATM   12  H2  UNL     1     -14.131  12.725  63.994  1.00  0.00     0.000 HD 
HETATM   13  C   UNL     1     -10.480  14.562  66.069  1.00  0.00    -0.315 A  
BRANCH  13  14
HETATM   14  C   UNL     1      -9.357  15.301  66.710  1.00  0.00    -0.243 C  
HETATM   15  O   UNL     1      -8.719  14.860  67.655  1.00  0.00    -0.163 OA 
BRANCH  14  16
HETATM   16  O   UNL     1      -9.354  16.584  66.279  1.00  0.00    -0.266 OA 
BRANCH  16  17
HETATM   17  C   UNL     1      -8.055  17.181  66.147  1.00  0.00    -0.248 C  
BRANCH  17  18
HETATM   18  C   UNL     1      -8.221  18.653  66.565  1.00  0.00    -0.286 C  
BRANCH  18  19
HETATM   19  N   UNL     1      -8.170  18.966  68.008  1.00  0.00    -0.285 NA 
BRANCH  19  20
HETATM   20  C   UNL     1      -9.318  19.828  68.343  1.00  0.00    -0.314 C  
HETATM   21  C   UNL     1     -10.635  19.396  67.711  1.00  0.00    -0.538 C  
ENDBRANCH  19  20
BRANCH  19  22
HETATM   22  C   UNL     1      -6.870  19.492  68.440  1.00  0.00    -0.290 C  
HETATM   23  C   UNL     1      -6.502  20.886  67.938  1.00  0.00    -0.382 C  
ENDBRANCH  19  22
ENDBRANCH  18  19
ENDBRANCH  17  18
ENDBRANCH  16  17
ENDBRANCH  14  16
ENDBRANCH  13  14
ENDBRANCH   4   5
ENDBRANCH   3   4
ENDBRANCH   2   3
TORSDOF 10
ENDMDL
MODEL       78
REMARK 921   NORMALIZED FREE ENERGY PREDICTED BY IDOCK:   -4.49 KCAL/MOL
REMARK 922        TOTAL FREE ENERGY PREDICTED BY IDOCK:   -8.18 KCAL/MOL
REMARK 923 INTER-LIGAND FREE ENERGY PREDICTED BY IDOCK:   -7.39 KCAL/MOL
REMARK 924 INTRA-LIGAND FREE ENERGY PREDICTED BY IDOCK:   -0.79 KCAL/MOL
REMARK 927      BINDING AFFINITY PREDICTED BY RF-SCORE:    0.00 PKD
ROOT
HETATM    1  C   UNL     1     -13.570  14.804  71.898  1.00  0.00    -0.492 C  
HETATM    2  C   UNL     1     -12.400  15.718  71.564  1.00  0.00    -0.514 C  
ENDROOT
BRANCH   2   3
HETATM    3  C   UNL     1     -11.492  15.073  70.524  1.00  0.00    -0.290 C  
BRANCH   3   4
HETATM    4  O   UNL     1     -12.064  15.229  69.224  1.00  0.00    -0.306 OA 
BRANCH   4   5
HETATM    5  C   UNL     1     -11.324  15.930  68.302  1.00  0.00    -0.342 A  
HETATM    6  C   UNL     1     -10.748  17.183  68.570  1.00  0.00    -0.326 A  
HETATM    7  C   UNL     1     -10.033  17.893  67.600  1.00  0.00    -0.324 A  
HETATM    8  C   UNL     1      -9.773  17.280  66.379  1.00  0.00    -0.303 A  
HETATM    9  N   UNL     1      -9.402  19.095  67.937  1.00  0.00    -0.306 NA 
HETATM   10  H1  UNL     1      -8.880  19.612  67.229  1.00  0.00     0.000 HD 
HETATM   11  C   UNL     1     -10.324  16.034  66.088  1.00  0.00    -0.340 A  
HETATM   12  H2  UNL     1      -8.787  18.925  68.731  1.00  0.00     0.000 HD 
HETATM   13  C   UNL     1     -11.117  15.362  67.032  1.00  0.00    -0.273 A  
BRANCH  13  14
HETATM   14  C   UNL     1     -11.760  14.112  66.542  1.00  0.00    -0.397 C  
HETATM   15  O   UNL     1     -12.837  14.096  65.961  1.00  0.00    -0.425 OA 
BRANCH  14  16
HETATM   16  O   UNL     1     -11.129  13.039  67.071  1.00  0.00    -0.267 OA 
BRANCH  16  17
HETATM   17  C   UNL     1     -10.013  12.549  66.311  1.00  0.00    -0.252 C  
BRANCH  17  18
HETATM   18  C   UNL     1     -10.400  11.130  65.858  1.00  0.00    -0.259 C  
BRANCH  18  19
HETATM   19  N   UNL     1     -10.455  10.865  64.406  1.00  0.00    -0.361 NA 
BRANCH  19  20
HETATM   20  C   UNL     1      -9.123  10.420  63.958  1.00  0.00    -0.242 C  
HETATM   21  C   UNL     1      -8.939  10.406  62.446  1.00  0.00    -0.297 C  
ENDBRANCH  19  20
BRANCH  19  22
HETATM   22  C   UNL     1     -11.014  11.983  63.635  1.00  0.00    -0.448 C  
HETATM   23  C   UNL     1     -12.527  11.981  63.439  1.00  0.00    -0.625 C  
ENDBRANCH  19  22
ENDBRANCH  18  19
ENDBRANCH  17  18
ENDBRANCH  16  17
ENDBRANCH  14  16
ENDBRANCH  13  14
ENDBRANCH   4   5
ENDBRANCH   3   4
ENDBRANCH   2   3
TORSDOF 10
ENDMDL
MODEL       79
REMARK 921   NORMALIZED FREE ENERGY PREDICTED BY IDOCK:   -4.49 KCAL/MOL
REMARK 922        TOTAL FREE ENERGY PREDICTED BY IDOCK:   -8.17 KCAL/MOL
REMARK 923 INTER-LIGAND FREE ENERGY PREDICTED BY IDOCK:   -7.11 KCAL/MOL
REMARK 924 INTRA-LIGAND FREE ENERGY PREDICTED BY IDOCK:   -1.06 KCAL/MOL
REMARK 927      BINDING AFFINITY PREDICTED BY RF-SCORE:    0.00 PKD
ROOT
HETATM    1  C   UNL     1     -12.691  13.616  71.500  1.00  0.00    -0.420 C  
HETATM    2  C   UNL     1     -13.389  14.901  71.080  1.00  0.00    -0.480 C  
ENDROOT
BRANCH   2   3
HETATM    3  C   UNL     1     -12.504  15.713  70.142  1.00  0.00    -0.278 C  
BRANCH   3   4
HETATM    4  O   UNL     1     -11.526  14.860  69.545  1.00  0.00    -0.264 OA 
BRANCH   4   5
HETATM    5  C   UNL     1     -11.418  14.904  68.176  1.00  0.00    -0.330 A  
HETATM    6  C   UNL     1     -12.083  14.009  67.322  1.00  0.00    -0.405 A  
HETATM    7  C   UNL     1     -11.924  14.052  65.933  1.00  0.00    -0.408 A  
HETATM    8  C   UNL     1     -11.191  15.095  65.377  1.00  0.00    -0.338 A  
HETATM    9  N   UNL     1     -12.673  13.198  65.117  1.00  0.00    -0.659 NA 
HETATM   10  H1  UNL     1     -12.557  13.230  64.104  1.00  0.00     0.000 HD 
HETATM   11  C   UNL     1     -10.527  16.003  66.198  1.00  0.00    -0.334 A  
HETATM   12  H2  UNL     1     -13.660  13.330  65.332  1.00  0.00     0.000 HD 
HETATM   13  C   UNL     1     -10.616  15.903  67.596  1.00  0.00    -0.307 A  
BRANCH  13  14
HETATM   14  C   UNL     1      -9.745  16.844  68.353  1.00  0.00    -0.263 C  
HETATM   15  O   UNL     1      -8.831  16.475  69.077  1.00  0.00    -0.257 OA 
BRANCH  14  16
HETATM   16  O   UNL     1     -10.288  18.084  68.329  1.00  0.00    -0.368 OA 
BRANCH  16  17
HETATM   17  C   UNL     1      -9.416  19.141  68.757  1.00  0.00    -0.399 C  
BRANCH  17  18
HETATM   18  C   UNL     1      -8.645  19.589  67.503  1.00  0.00    -0.307 C  
BRANCH  18  19
HETATM   19  N   UNL     1      -7.214  19.920  67.659  1.00  0.00    -0.267 NA 
BRANCH  19  20
HETATM   20  C   UNL     1      -6.465  19.304  66.549  1.00  0.00    -0.188 C  
HETATM   21  C   UNL     1      -7.144  18.090  65.928  1.00  0.00    -0.302 C  
ENDBRANCH  19  20
BRANCH  19  22
HETATM   22  C   UNL     1      -6.690  19.605  68.994  1.00  0.00    -0.337 C  
HETATM   23  C   UNL     1      -5.173  19.503  69.120  1.00  0.00    -0.201 C  
ENDBRANCH  19  22
ENDBRANCH  18  19
ENDBRANCH  17  18
ENDBRANCH  16  17
ENDBRANCH  14  16
ENDBRANCH  13  14
ENDBRANCH   4   5
ENDBRANCH   3   4
ENDBRANCH   2   3
TORSDOF 10
ENDMDL
MODEL       80
REMARK 921   NORMALIZED FREE ENERGY PREDICTED BY IDOCK:   -4.49 KCAL/MOL
REMARK 922        TOTAL FREE ENERGY PREDICTED BY IDOCK:   -8.17 KCAL/MOL
REMARK 923 INTER-LIGAND FREE ENERGY PREDICTED BY IDOCK:   -7.13 KCAL/MOL
REMARK 924 INTRA-LIGAND FREE ENERGY PREDICTED BY IDOCK:   -1.03 KCAL/MOL
REMARK 927      BINDING AFFINITY PREDICTED BY RF-SCORE:    0.00 PKD
ROOT
HETATM    1  C   UNL     1      -6.653  10.782  67.215  1.00  0.00    -0.075 C  
HETATM    2  C   UNL     1      -7.852  11.532  67.777  1.00  0.00    -0.126 C  
ENDROOT
BRANCH   2   3
HETATM    3  C   UNL     1      -8.957  11.640  66.733  1.00  0.00    -0.189 C  
BRANCH   3   4
HETATM    4  O   UNL     1      -9.280  13.015  66.515  1.00  0.00    -0.240 OA 
BRANCH   4   5
HETATM    5  C   UNL     1     -10.255  13.282  65.584  1.00  0.00    -0.289 A  
HETATM    6  C   UNL     1     -10.878  12.285  64.815  1.00  0.00    -0.345 A  
HETATM    7  C   UNL     1     -11.839  12.590  63.846  1.00  0.00    -0.463 A  
HETATM    8  C   UNL     1     -12.285  13.903  63.735  1.00  0.00    -0.310 A  
HETATM    9  N   UNL     1     -12.497  11.559  63.166  1.00  0.00    -0.911 NA 
HETATM   10  H1  UNL     1     -13.199  11.781  62.460  1.00  0.00     0.000 HD 
HETATM   11  C   UNL     1     -11.691  14.911  64.490  1.00  0.00    -0.388 A  
HETATM   12  H2  UNL     1     -12.919  10.936  63.854  1.00  0.00     0.000 HD 
HETATM   13  C   UNL     1     -10.662  14.615  65.400  1.00  0.00    -0.382 A  
BRANCH  13  14
HETATM   14  C   UNL     1     -10.019  15.799  66.033  1.00  0.00    -0.332 C  
HETATM   15  O   UNL     1      -8.926  16.229  65.693  1.00  0.00    -0.403 OA 
BRANCH  14  16
HETATM   16  O   UNL     1     -10.681  16.122  67.169  1.00  0.00    -0.310 OA 
BRANCH  16  17
HETATM   17  C   UNL     1      -9.891  16.781  68.170  1.00  0.00    -0.264 C  
BRANCH  17  18
HETATM   18  C   UNL     1     -10.346  18.251  68.170  1.00  0.00    -0.373 C  
BRANCH  18  19
HETATM   19  N   UNL     1      -9.330  19.283  67.881  1.00  0.00    -0.307 NA 
BRANCH  19  20
HETATM   20  C   UNL     1      -9.375  19.597  66.441  1.00  0.00    -0.387 C  
HETATM   21  C   UNL     1     -10.763  19.513  65.821  1.00  0.00    -0.490 C  
ENDBRANCH  19  20
BRANCH  19  22
HETATM   22  C   UNL     1      -7.996  18.939  68.386  1.00  0.00    -0.338 C  
HETATM   23  C   UNL     1      -6.841  19.069  67.397  1.00  0.00    -0.214 C  
ENDBRANCH  19  22
ENDBRANCH  18  19
ENDBRANCH  17  18
ENDBRANCH  16  17
ENDBRANCH  14  16
ENDBRANCH  13  14
ENDBRANCH   4   5
ENDBRANCH   3   4
ENDBRANCH   2   3
TORSDOF 10
ENDMDL
MODEL       81
REMARK 921   NORMALIZED FREE ENERGY PREDICTED BY IDOCK:   -4.46 KCAL/MOL
REMARK 922        TOTAL FREE ENERGY PREDICTED BY IDOCK:   -8.13 KCAL/MOL
REMARK 923 INTER-LIGAND FREE ENERGY PREDICTED BY IDOCK:   -6.75 KCAL/MOL
REMARK 924 INTRA-LIGAND FREE ENERGY PREDICTED BY IDOCK:   -1.38 KCAL/MOL
REMARK 927      BINDING AFFINITY PREDICTED BY RF-SCORE:    0.00 PKD
ROOT
HETATM    1  C   UNL     1     -11.916  11.410  70.263  1.00  0.00    -0.460 C  
HETATM    2  C   UNL     1     -12.319  12.839  70.596  1.00  0.00    -0.381 C  
ENDROOT
BRANCH   2   3
HETATM    3  C   UNL     1     -12.084  13.757  69.403  1.00  0.00    -0.328 C  
BRANCH   3   4
HETATM    4  O   UNL     1     -11.715  12.978  68.263  1.00  0.00    -0.314 OA 
BRANCH   4   5
HETATM    5  C   UNL     1     -11.318  13.668  67.143  1.00  0.00    -0.319 A  
HETATM    6  C   UNL     1     -12.143  13.855  66.021  1.00  0.00    -0.465 A  
HETATM    7  C   UNL     1     -11.700  14.528  64.878  1.00  0.00    -0.402 A  
HETATM    8  C   UNL     1     -10.452  15.143  64.906  1.00  0.00    -0.350 A  
HETATM    9  N   UNL     1     -12.583  14.767  63.821  1.00  0.00    -0.986 NA 
HETATM   10  H1  UNL     1     -12.260  15.258  62.987  1.00  0.00     0.000 HD 
HETATM   11  C   UNL     1      -9.615  14.982  66.008  1.00  0.00    -0.359 A  
HETATM   12  H2  UNL     1     -13.399  15.256  64.187  1.00  0.00     0.000 HD 
HETATM   13  C   UNL     1     -10.029  14.230  67.119  1.00  0.00    -0.255 A  
BRANCH  13  14
HETATM   14  C   UNL     1      -8.987  14.018  68.161  1.00  0.00    -0.183 C  
HETATM   15  O   UNL     1      -8.740  14.834  69.038  1.00  0.00    -0.183 OA 
BRANCH  14  16
HETATM   16  O   UNL     1      -8.213  12.961  67.821  1.00  0.00    -0.147 OA 
BRANCH  16  17
HETATM   17  C   UNL     1      -8.373  11.795  68.643  1.00  0.00    -0.079 C  
BRANCH  17  18
HETATM   18  C   UNL     1      -8.469  10.603  67.675  1.00  0.00    -0.118 C  
BRANCH  18  19
HETATM   19  N   UNL     1      -9.651  10.530  66.792  1.00  0.00    -0.166 NA 
BRANCH  19  20
HETATM   20  C   UNL     1     -10.600   9.552  67.354  1.00  0.00    -0.271 C  
HETATM   21  C   UNL     1     -10.290   8.102  67.005  1.00  0.00    -0.403 C  
ENDBRANCH  19  20
BRANCH  19  22
HETATM   22  C   UNL     1      -9.308  10.303  65.383  1.00  0.00    -0.207 C  
HETATM   23  C   UNL     1     -10.038  11.167  64.359  1.00  0.00    -0.377 C  
ENDBRANCH  19  22
ENDBRANCH  18  19
ENDBRANCH  17  18
ENDBRANCH  16  17
ENDBRANCH  14  16
ENDBRANCH  13  14
ENDBRANCH   4   5
ENDBRANCH   3   4
ENDBRANCH   2   3
TORSDOF 10
ENDMDL
MODEL       82
REMARK 921   NORMALIZED FREE ENERGY PREDICTED BY IDOCK:   -4.46 KCAL/MOL
REMARK 922        TOTAL FREE ENERGY PREDICTED BY IDOCK:   -8.12 KCAL/MOL
REMARK 923 INTER-LIGAND FREE ENERGY PREDICTED BY IDOCK:   -7.42 KCAL/MOL
REMARK 924 INTRA-LIGAND FREE ENERGY PREDICTED BY IDOCK:   -0.69 KCAL/MOL
REMARK 927      BINDING AFFINITY PREDICTED BY RF-SCORE:    0.00 PKD
ROOT
HETATM    1  C   UNL     1      -8.409  18.522  68.295  1.00  0.00    -0.344 C  
HETATM    2  C   UNL     1      -8.505  17.080  68.773  1.00  0.00    -0.237 C  
ENDROOT
BRANCH   2   3
HETATM    3  C   UNL     1      -9.929  16.557  68.624  1.00  0.00    -0.248 C  
BRANCH   3   4
HETATM    4  O   UNL     1      -9.899  15.214  68.138  1.00  0.00    -0.213 OA 
BRANCH   4   5
HETATM    5  C   UNL     1     -10.694  14.929  67.054  1.00  0.00    -0.307 A  
HETATM    6  C   UNL     1     -10.782  15.762  65.926  1.00  0.00    -0.320 A  
HETATM    7  C   UNL     1     -11.631  15.468  64.853  1.00  0.00    -0.201 A  
HETATM    8  C   UNL     1     -12.305  14.251  64.847  1.00  0.00    -0.435 A  
HETATM    9  N   UNL     1     -11.621  16.278  63.712  1.00  0.00    -1.482 NA 
HETATM   10  H1  UNL     1     -12.240  16.063  62.930  1.00  0.00     0.000 HD 
HETATM   11  C   UNL     1     -12.230  13.402  65.948  1.00  0.00    -0.502 A  
HETATM   12  H2  UNL     1     -10.665  16.330  63.362  1.00  0.00     0.000 HD 
HETATM   13  C   UNL     1     -11.447  13.741  67.063  1.00  0.00    -0.368 A  
BRANCH  13  14
HETATM   14  C   UNL     1     -11.569  12.819  68.225  1.00  0.00    -0.334 C  
HETATM   15  O   UNL     1     -12.104  13.136  69.279  1.00  0.00    -0.289 OA 
BRANCH  14  16
HETATM   16  O   UNL     1     -10.782  11.735  68.030  1.00  0.00    -0.194 OA 
BRANCH  16  17
HETATM   17  C   UNL     1     -11.330  10.491  68.491  1.00  0.00    -0.257 C  
BRANCH  17  18
HETATM   18  C   UNL     1     -10.302   9.918  69.484  1.00  0.00    -0.229 C  
BRANCH  18  19
HETATM   19  N   UNL     1     -10.679   8.703  70.235  1.00  0.00    -0.223 NA 
BRANCH  19  20
HETATM   20  C   UNL     1     -10.834   9.058  71.657  1.00  0.00    -0.366 C  
HETATM   21  C   UNL     1     -12.134   8.578  72.288  1.00  0.00    -0.455 C  
ENDBRANCH  19  20
BRANCH  19  22
HETATM   22  C   UNL     1      -9.781   7.568  69.987  1.00  0.00    -0.172 C  
HETATM   23  C   UNL     1     -10.397   6.356  69.293  1.00  0.00    -0.248 C  
ENDBRANCH  19  22
ENDBRANCH  18  19
ENDBRANCH  17  18
ENDBRANCH  16  17
ENDBRANCH  14  16
ENDBRANCH  13  14
ENDBRANCH   4   5
ENDBRANCH   3   4
ENDBRANCH   2   3
TORSDOF 10
ENDMDL
MODEL       83
REMARK 921   NORMALIZED FREE ENERGY PREDICTED BY IDOCK:   -4.45 KCAL/MOL
REMARK 922        TOTAL FREE ENERGY PREDICTED BY IDOCK:   -8.10 KCAL/MOL
REMARK 923 INTER-LIGAND FREE ENERGY PREDICTED BY IDOCK:   -7.34 KCAL/MOL
REMARK 924 INTRA-LIGAND FREE ENERGY PREDICTED BY IDOCK:   -0.76 KCAL/MOL
REMARK 927      BINDING AFFINITY PREDICTED BY RF-SCORE:    0.00 PKD
ROOT
HETATM    1  C   UNL     1     -10.083  10.242  65.177  1.00  0.00    -0.355 C  
HETATM    2  C   UNL     1      -9.984   9.233  66.313  1.00  0.00    -0.357 C  
ENDROOT
BRANCH   2   3
HETATM    3  C   UNL     1     -10.888   9.635  67.471  1.00  0.00    -0.198 C  
BRANCH   3   4
HETATM    4  O   UNL     1     -11.411  10.945  67.240  1.00  0.00    -0.458 OA 
BRANCH   4   5
HETATM    5  C   UNL     1     -11.762  11.676  68.349  1.00  0.00    -0.307 A  
HETATM    6  C   UNL     1     -12.071  11.093  69.589  1.00  0.00    -0.406 A  
HETATM    7  C   UNL     1     -12.465  11.859  70.692  1.00  0.00    -0.257 A  
HETATM    8  C   UNL     1     -12.420  13.245  70.592  1.00  0.00    -0.373 A  
HETATM    9  N   UNL     1     -12.677  11.244  71.930  1.00  0.00    -0.274 NA 
HETATM   10  H1  UNL     1     -12.963  11.803  72.734  1.00  0.00     0.000 HD 
HETATM   11  C   UNL     1     -12.109  13.853  69.378  1.00  0.00    -0.384 A  
HETATM   12  H2  UNL     1     -11.836  10.726  72.181  1.00  0.00     0.000 HD 
HETATM   13  C   UNL     1     -11.801  13.078  68.247  1.00  0.00    -0.381 A  
BRANCH  13  14
HETATM   14  C   UNL     1     -11.631  13.846  66.984  1.00  0.00    -0.369 C  
HETATM   15  O   UNL     1     -12.524  13.986  66.159  1.00  0.00    -0.467 OA 
BRANCH  14  16
HETATM   16  O   UNL     1     -10.318  14.104  66.781  1.00  0.00    -0.269 OA 
BRANCH  16  17
HETATM   17  C   UNL     1     -10.031  15.022  65.716  1.00  0.00    -0.346 C  
BRANCH  17  18
HETATM   18  C   UNL     1      -9.357  16.238  66.375  1.00  0.00    -0.292 C  
BRANCH  18  19
HETATM   19  N   UNL     1     -10.224  17.204  67.081  1.00  0.00    -0.309 NA 
BRANCH  19  20
HETATM   20  C   UNL     1     -10.254  18.460  66.309  1.00  0.00    -0.406 C  
HETATM   21  C   UNL     1     -10.479  19.710  67.149  1.00  0.00    -0.595 C  
ENDBRANCH  19  20
BRANCH  19  22
HETATM   22  C   UNL     1      -9.873  17.370  68.496  1.00  0.00    -0.320 C  
HETATM   23  C   UNL     1      -8.389  17.541  68.811  1.00  0.00    -0.219 C  
ENDBRANCH  19  22
ENDBRANCH  18  19
ENDBRANCH  17  18
ENDBRANCH  16  17
ENDBRANCH  14  16
ENDBRANCH  13  14
ENDBRANCH   4   5
ENDBRANCH   3   4
ENDBRANCH   2   3
TORSDOF 10
ENDMDL
MODEL       84
REMARK 921   NORMALIZED FREE ENERGY PREDICTED BY IDOCK:   -4.44 KCAL/MOL
REMARK 922        TOTAL FREE ENERGY PREDICTED BY IDOCK:   -8.09 KCAL/MOL
REMARK 923 INTER-LIGAND FREE ENERGY PREDICTED BY IDOCK:   -7.11 KCAL/MOL
REMARK 924 INTRA-LIGAND FREE ENERGY PREDICTED BY IDOCK:   -0.98 KCAL/MOL
REMARK 927      BINDING AFFINITY PREDICTED BY RF-SCORE:    0.00 PKD
ROOT
HETATM    1  C   UNL     1      -7.643   7.206  68.182  1.00  0.00    -0.115 C  
HETATM    2  C   UNL     1      -8.636   7.832  67.213  1.00  0.00    -0.128 C  
ENDROOT
BRANCH   2   3
HETATM    3  C   UNL     1      -8.602   9.352  67.314  1.00  0.00    -0.128 C  
BRANCH   3   4
HETATM    4  O   UNL     1      -9.924   9.849  67.532  1.00  0.00    -0.168 OA 
BRANCH   4   5
HETATM    5  C   UNL     1     -10.458  10.641  66.544  1.00  0.00    -0.224 A  
HETATM    6  C   UNL     1     -10.199  10.445  65.177  1.00  0.00    -0.326 A  
HETATM    7  C   UNL     1     -10.724  11.291  64.195  1.00  0.00    -0.369 A  
HETATM    8  C   UNL     1     -11.634  12.272  64.574  1.00  0.00    -0.418 A  
HETATM    9  N   UNL     1     -10.513  11.007  62.842  1.00  0.00    -0.797 NA 
HETATM   10  H1  UNL     1     -10.897  11.624  62.125  1.00  0.00     0.000 HD 
HETATM   11  C   UNL     1     -11.916  12.485  65.921  1.00  0.00    -0.472 A  
HETATM   12  H2  UNL     1     -10.837  10.058  62.657  1.00  0.00     0.000 HD 
HETATM   13  C   UNL     1     -11.317  11.691  66.913  1.00  0.00    -0.364 A  
BRANCH  13  14
HETATM   14  C   UNL     1     -11.592  12.116  68.313  1.00  0.00    -0.325 C  
HETATM   15  O   UNL     1     -10.993  13.028  68.866  1.00  0.00    -0.244 OA 
BRANCH  14  16
HETATM   16  O   UNL     1     -12.367  11.191  68.925  1.00  0.00    -0.512 OA 
BRANCH  16  17
HETATM   17  C   UNL     1     -12.333  11.215  70.360  1.00  0.00    -0.344 C  
BRANCH  17  18
HETATM   18  C   UNL     1     -11.529   9.974  70.786  1.00  0.00    -0.356 C  
BRANCH  18  19
HETATM   19  N   UNL     1     -12.162   9.043  71.743  1.00  0.00    -0.339 NA 
BRANCH  19  20
HETATM   20  C   UNL     1     -11.472   7.742  71.659  1.00  0.00    -0.261 C  
HETATM   21  C   UNL     1     -10.659   7.542  70.387  1.00  0.00    -0.236 C  
ENDBRANCH  19  20
BRANCH  19  22
HETATM   22  C   UNL     1     -13.620   8.968  71.598  1.00  0.00    -0.390 C  
HETATM   23  C   UNL     1     -14.229   7.569  71.584  1.00  0.00    -0.592 C  
ENDBRANCH  19  22
ENDBRANCH  18  19
ENDBRANCH  17  18
ENDBRANCH  16  17
ENDBRANCH  14  16
ENDBRANCH  13  14
ENDBRANCH   4   5
ENDBRANCH   3   4
ENDBRANCH   2   3
TORSDOF 10
ENDMDL
MODEL       85
REMARK 921   NORMALIZED FREE ENERGY PREDICTED BY IDOCK:   -4.44 KCAL/MOL
REMARK 922        TOTAL FREE ENERGY PREDICTED BY IDOCK:   -8.09 KCAL/MOL
REMARK 923 INTER-LIGAND FREE ENERGY PREDICTED BY IDOCK:   -7.20 KCAL/MOL
REMARK 924 INTRA-LIGAND FREE ENERGY PREDICTED BY IDOCK:   -0.89 KCAL/MOL
REMARK 927      BINDING AFFINITY PREDICTED BY RF-SCORE:    0.00 PKD
ROOT
HETATM    1  C   UNL     1      -9.704  11.296  62.960  1.00  0.00    -0.389 C  
HETATM    2  C   UNL     1     -10.708  11.185  64.098  1.00  0.00    -0.415 C  
ENDROOT
BRANCH   2   3
HETATM    3  C   UNL     1     -12.026  11.850  63.720  1.00  0.00    -0.445 C  
BRANCH   3   4
HETATM    4  O   UNL     1     -12.609  12.454  64.876  1.00  0.00    -0.563 OA 
BRANCH   4   5
HETATM    5  C   UNL     1     -11.960  13.547  65.398  1.00  0.00    -0.379 A  
HETATM    6  C   UNL     1     -11.828  14.764  64.710  1.00  0.00    -0.425 A  
HETATM    7  C   UNL     1     -11.126  15.848  65.248  1.00  0.00    -0.248 A  
HETATM    8  C   UNL     1     -10.662  15.760  66.556  1.00  0.00    -0.283 A  
HETATM    9  N   UNL     1     -11.096  17.069  64.567  1.00  0.00    -1.062 NA 
HETATM   10  H1  UNL     1     -10.585  17.860  64.960  1.00  0.00     0.000 HD 
HETATM   11  C   UNL     1     -10.785  14.569  67.267  1.00  0.00    -0.287 A  
HETATM   12  H2  UNL     1     -12.056  17.363  64.387  1.00  0.00     0.000 HD 
HETATM   13  C   UNL     1     -11.411  13.452  66.690  1.00  0.00    -0.376 A  
BRANCH  13  14
HETATM   14  C   UNL     1     -11.347  12.204  67.499  1.00  0.00    -0.326 C  
HETATM   15  O   UNL     1     -12.326  11.703  68.036  1.00  0.00    -0.429 OA 
BRANCH  14  16
HETATM   16  O   UNL     1     -10.055  11.897  67.760  1.00  0.00    -0.185 OA 
BRANCH  16  17
HETATM   17  C   UNL     1      -9.689  10.531  67.514  1.00  0.00    -0.166 C  
BRANCH  17  18
HETATM   18  C   UNL     1      -9.496   9.888  68.898  1.00  0.00    -0.170 C  
BRANCH  18  19
HETATM   19  N   UNL     1      -9.838   8.458  69.044  1.00  0.00    -0.178 NA 
BRANCH  19  20
HETATM   20  C   UNL     1      -8.682   7.755  69.627  1.00  0.00    -0.135 C  
HETATM   21  C   UNL     1      -7.444   7.736  68.741  1.00  0.00    -0.096 C  
ENDBRANCH  19  20
BRANCH  19  22
HETATM   22  C   UNL     1     -10.354   7.858  67.808  1.00  0.00    -0.226 C  
HETATM   23  C   UNL     1     -10.950   6.459  67.931  1.00  0.00    -0.416 C  
ENDBRANCH  19  22
ENDBRANCH  18  19
ENDBRANCH  17  18
ENDBRANCH  16  17
ENDBRANCH  14  16
ENDBRANCH  13  14
ENDBRANCH   4   5
ENDBRANCH   3   4
ENDBRANCH   2   3
TORSDOF 10
ENDMDL
MODEL       86
REMARK 921   NORMALIZED FREE ENERGY PREDICTED BY IDOCK:   -4.40 KCAL/MOL
REMARK 922        TOTAL FREE ENERGY PREDICTED BY IDOCK:   -8.03 KCAL/MOL
REMARK 923 INTER-LIGAND FREE ENERGY PREDICTED BY IDOCK:   -7.21 KCAL/MOL
REMARK 924 INTRA-LIGAND FREE ENERGY PREDICTED BY IDOCK:   -0.81 KCAL/MOL
REMARK 927      BINDING AFFINITY PREDICTED BY RF-SCORE:    0.00 PKD
ROOT
HETATM    1  C   UNL     1      -9.704  18.497  66.951  1.00  0.00    -0.334 C  
HETATM    2  C   UNL     1     -10.014  17.341  67.891  1.00  0.00    -0.297 C  
ENDROOT
BRANCH   2   3
HETATM    3  C   UNL     1     -10.872  16.293  67.192  1.00  0.00    -0.190 C  
BRANCH   3   4
HETATM    4  O   UNL     1     -10.081  15.136  66.909  1.00  0.00    -0.249 OA 
BRANCH   4   5
HETATM    5  C   UNL     1     -10.650  14.180  66.103  1.00  0.00    -0.293 A  
HETATM    6  C   UNL     1     -11.373  14.486  64.938  1.00  0.00    -0.394 A  
HETATM    7  C   UNL     1     -11.975  13.494  64.157  1.00  0.00    -0.448 A  
HETATM    8  C   UNL     1     -11.738  12.160  64.471  1.00  0.00    -0.410 A  
HETATM    9  N   UNL     1     -12.609  13.838  62.958  1.00  0.00    -0.905 NA 
HETATM   10  H1  UNL     1     -13.048  13.114  62.389  1.00  0.00     0.000 HD 
HETATM   11  C   UNL     1     -11.018  11.826  65.615  1.00  0.00    -0.348 A  
HETATM   12  H2  UNL     1     -11.946  14.348  62.377  1.00  0.00     0.000 HD 
HETATM   13  C   UNL     1     -10.490  12.826  66.448  1.00  0.00    -0.265 A  
BRANCH  13  14
HETATM   14  C   UNL     1      -9.870  12.335  67.709  1.00  0.00    -0.201 C  
HETATM   15  O   UNL     1      -8.952  12.914  68.274  1.00  0.00    -0.194 OA 
BRANCH  14  16
HETATM   16  O   UNL     1     -10.276  11.067  67.952  1.00  0.00    -0.175 OA 
BRANCH  16  17
HETATM   17  C   UNL     1     -10.596  10.778  69.321  1.00  0.00    -0.229 C  
BRANCH  17  18
HETATM   18  C   UNL     1     -11.980  11.403  69.574  1.00  0.00    -0.341 C  
BRANCH  18  19
HETATM   19  N   UNL     1     -12.075  12.466  70.596  1.00  0.00    -0.316 NA 
BRANCH  19  20
HETATM   20  C   UNL     1     -13.081  12.066  71.597  1.00  0.00    -0.318 C  
HETATM   21  C   UNL     1     -13.702  13.227  72.363  1.00  0.00    -0.678 C  
ENDBRANCH  19  20
BRANCH  19  22
HETATM   22  C   UNL     1     -12.285  13.801  70.023  1.00  0.00    -0.342 C  
HETATM   23  C   UNL     1     -11.302  14.885  70.454  1.00  0.00    -0.287 C  
ENDBRANCH  19  22
ENDBRANCH  18  19
ENDBRANCH  17  18
ENDBRANCH  16  17
ENDBRANCH  14  16
ENDBRANCH  13  14
ENDBRANCH   4   5
ENDBRANCH   3   4
ENDBRANCH   2   3
TORSDOF 10
ENDMDL
MODEL       87
REMARK 921   NORMALIZED FREE ENERGY PREDICTED BY IDOCK:   -4.38 KCAL/MOL
REMARK 922        TOTAL FREE ENERGY PREDICTED BY IDOCK:   -8.00 KCAL/MOL
REMARK 923 INTER-LIGAND FREE ENERGY PREDICTED BY IDOCK:   -6.79 KCAL/MOL
REMARK 924 INTRA-LIGAND FREE ENERGY PREDICTED BY IDOCK:   -1.21 KCAL/MOL
REMARK 927      BINDING AFFINITY PREDICTED BY RF-SCORE:    0.00 PKD
ROOT
HETATM    1  C   UNL     1      -8.455   7.819  72.877  1.00  0.00    -0.205 C  
HETATM    2  C   UNL     1      -8.577   6.993  71.605  1.00  0.00    -0.116 C  
ENDROOT
BRANCH   2   3
HETATM    3  C   UNL     1      -9.962   6.366  71.500  1.00  0.00    -0.180 C  
BRANCH   3   4
HETATM    4  O   UNL     1     -10.715   7.030  70.483  1.00  0.00    -0.226 OA 
BRANCH   4   5
HETATM    5  C   UNL     1     -11.479   8.102  70.878  1.00  0.00    -0.271 A  
HETATM    6  C   UNL     1     -12.514   8.002  71.823  1.00  0.00    -0.355 A  
HETATM    7  C   UNL     1     -13.303   9.102  72.177  1.00  0.00    -0.463 A  
HETATM    8  C   UNL     1     -12.966  10.355  71.677  1.00  0.00    -0.581 A  
HETATM    9  N   UNL     1     -14.263   8.977  73.186  1.00  0.00    -1.190 NA 
HETATM   10  H1  UNL     1     -14.838   9.779  73.444  1.00  0.00     0.000 HD 
HETATM   11  C   UNL     1     -11.940  10.486  70.744  1.00  0.00    -0.472 A  
HETATM   12  H2  UNL     1     -13.805   8.625  74.026  1.00  0.00     0.000 HD 
HETATM   13  C   UNL     1     -11.207   9.365  70.322  1.00  0.00    -0.286 A  
BRANCH  13  14
HETATM   14  C   UNL     1     -10.240   9.621  69.220  1.00  0.00    -0.205 C  
HETATM   15  O   UNL     1      -9.085   9.975  69.411  1.00  0.00    -0.189 OA 
BRANCH  14  16
HETATM   16  O   UNL     1     -10.900   9.670  68.039  1.00  0.00    -0.242 OA 
BRANCH  16  17
HETATM   17  C   UNL     1     -10.074   9.886  66.885  1.00  0.00    -0.225 C  
BRANCH  17  18
HETATM   18  C   UNL     1     -10.711  11.062  66.122  1.00  0.00    -0.194 C  
BRANCH  18  19
HETATM   19  N   UNL     1     -10.471  12.425  66.640  1.00  0.00    -0.228 NA 
BRANCH  19  20
HETATM   20  C   UNL     1     -11.048  13.395  65.693  1.00  0.00    -0.285 C  
HETATM   21  C   UNL     1     -12.367  14.008  66.145  1.00  0.00    -0.491 C  
ENDBRANCH  19  20
BRANCH  19  22
HETATM   22  C   UNL     1      -9.067  12.674  66.985  1.00  0.00    -0.215 C  
HETATM   23  C   UNL     1      -8.810  13.384  68.312  1.00  0.00    -0.172 C  
ENDBRANCH  19  22
ENDBRANCH  18  19
ENDBRANCH  17  18
ENDBRANCH  16  17
ENDBRANCH  14  16
ENDBRANCH  13  14
ENDBRANCH   4   5
ENDBRANCH   3   4
ENDBRANCH   2   3
TORSDOF 10
ENDMDL
MODEL       88
REMARK 921   NORMALIZED FREE ENERGY PREDICTED BY IDOCK:   -4.37 KCAL/MOL
REMARK 922        TOTAL FREE ENERGY PREDICTED BY IDOCK:   -7.97 KCAL/MOL
REMARK 923 INTER-LIGAND FREE ENERGY PREDICTED BY IDOCK:   -7.02 KCAL/MOL
REMARK 924 INTRA-LIGAND FREE ENERGY PREDICTED BY IDOCK:   -0.95 KCAL/MOL
REMARK 927      BINDING AFFINITY PREDICTED BY RF-SCORE:    0.00 PKD
ROOT
HETATM    1  C   UNL     1      -6.975  18.144  67.481  1.00  0.00    -0.204 C  
HETATM    2  C   UNL     1      -7.835  17.933  66.243  1.00  0.00    -0.296 C  
ENDROOT
BRANCH   2   3
HETATM    3  C   UNL     1      -8.460  16.543  66.252  1.00  0.00    -0.328 C  
BRANCH   3   4
HETATM    4  O   UNL     1      -9.884  16.657  66.289  1.00  0.00    -0.276 OA 
BRANCH   4   5
HETATM    5  C   UNL     1     -10.562  15.712  67.021  1.00  0.00    -0.311 A  
HETATM    6  C   UNL     1     -10.513  15.646  68.424  1.00  0.00    -0.242 A  
HETATM    7  C   UNL     1     -11.182  14.648  69.142  1.00  0.00    -0.270 A  
HETATM    8  C   UNL     1     -12.023  13.780  68.454  1.00  0.00    -0.395 A  
HETATM    9  N   UNL     1     -11.178  14.673  70.540  1.00  0.00    -0.479 NA 
HETATM   10  H1  UNL     1     -11.666  13.946  71.063  1.00  0.00     0.000 HD 
HETATM   11  C   UNL     1     -12.098  13.828  67.065  1.00  0.00    -0.436 A  
HETATM   12  H2  UNL     1     -11.527  15.580  70.848  1.00  0.00     0.000 HD 
HETATM   13  C   UNL     1     -11.356  14.773  66.339  1.00  0.00    -0.339 A  
BRANCH  13  14
HETATM   14  C   UNL     1     -11.414  14.622  64.859  1.00  0.00    -0.401 C  
HETATM   15  O   UNL     1     -12.313  15.089  64.173  1.00  0.00    -0.659 OA 
BRANCH  14  16
HETATM   16  O   UNL     1     -10.515  13.692  64.461  1.00  0.00    -0.430 OA 
BRANCH  16  17
HETATM   17  C   UNL     1     -11.014  12.712  63.539  1.00  0.00    -0.364 C  
BRANCH  17  18
HETATM   18  C   UNL     1     -10.939  11.362  64.274  1.00  0.00    -0.321 C  
BRANCH  18  19
HETATM   19  N   UNL     1      -9.842  10.442  63.908  1.00  0.00    -0.307 NA 
BRANCH  19  20
HETATM   20  C   UNL     1      -8.965  10.267  65.079  1.00  0.00    -0.196 C  
HETATM   21  C   UNL     1      -9.412   9.175  66.043  1.00  0.00    -0.321 C  
ENDBRANCH  19  20
BRANCH  19  22
HETATM   22  C   UNL     1      -9.143  10.837  62.679  1.00  0.00    -0.318 C  
HETATM   23  C   UNL     1      -7.641  10.569  62.638  1.00  0.00    -0.128 C  
ENDBRANCH  19  22
ENDBRANCH  18  19
ENDBRANCH  17  18
ENDBRANCH  16  17
ENDBRANCH  14  16
ENDBRANCH  13  14
ENDBRANCH   4   5
ENDBRANCH   3   4
ENDBRANCH   2   3
TORSDOF 10
ENDMDL
MODEL       89
REMARK 921   NORMALIZED FREE ENERGY PREDICTED BY IDOCK:   -4.36 KCAL/MOL
REMARK 922        TOTAL FREE ENERGY PREDICTED BY IDOCK:   -7.96 KCAL/MOL
REMARK 923 INTER-LIGAND FREE ENERGY PREDICTED BY IDOCK:   -7.03 KCAL/MOL
REMARK 924 INTRA-LIGAND FREE ENERGY PREDICTED BY IDOCK:   -0.93 KCAL/MOL
REMARK 927      BINDING AFFINITY PREDICTED BY RF-SCORE:    0.00 PKD
ROOT
HETATM    1  C   UNL     1      -5.349  17.247  69.963  1.00  0.00    -0.222 C  
HETATM    2  C   UNL     1      -6.175  15.982  69.771  1.00  0.00    -0.179 C  
ENDROOT
BRANCH   2   3
HETATM    3  C   UNL     1      -7.080  16.111  68.552  1.00  0.00    -0.139 C  
BRANCH   3   4
HETATM    4  O   UNL     1      -8.332  16.680  68.941  1.00  0.00    -0.238 OA 
BRANCH   4   5
HETATM    5  C   UNL     1      -8.814  17.706  68.165  1.00  0.00    -0.269 A  
HETATM    6  C   UNL     1      -8.194  18.963  68.081  1.00  0.00    -0.343 A  
HETATM    7  C   UNL     1      -8.729  20.004  67.314  1.00  0.00    -0.343 A  
HETATM    8  C   UNL     1      -9.832  19.742  66.509  1.00  0.00    -0.546 A  
HETATM    9  N   UNL     1      -8.031  21.210  67.189  1.00  0.00    -0.649 NA 
HETATM   10  H1  UNL     1      -8.421  21.968  66.629  1.00  0.00     0.000 HD 
HETATM   11  C   UNL     1     -10.464  18.502  66.565  1.00  0.00    -0.435 A  
HETATM   12  H2  UNL     1      -7.093  21.005  66.846  1.00  0.00     0.000 HD 
HETATM   13  C   UNL     1      -9.977  17.487  67.405  1.00  0.00    -0.315 A  
BRANCH  13  14
HETATM   14  C   UNL     1     -10.826  16.266  67.477  1.00  0.00    -0.268 C  
HETATM   15  O   UNL     1     -11.610  16.049  68.392  1.00  0.00    -0.364 OA 
BRANCH  14  16
HETATM   16  O   UNL     1     -10.400  15.361  66.566  1.00  0.00    -0.273 OA 
BRANCH  16  17
HETATM   17  C   UNL     1     -11.389  14.936  65.616  1.00  0.00    -0.325 C  
BRANCH  17  18
HETATM   18  C   UNL     1     -11.374  13.398  65.648  1.00  0.00    -0.298 C  
BRANCH  18  19
HETATM   19  N   UNL     1     -10.271  12.709  64.947  1.00  0.00    -0.288 NA 
BRANCH  19  20
HETATM   20  C   UNL     1     -10.747  12.293  63.615  1.00  0.00    -0.467 C  
HETATM   21  C   UNL     1     -12.235  11.978  63.549  1.00  0.00    -0.653 C  
ENDBRANCH  19  20
BRANCH  19  22
HETATM   22  C   UNL     1      -9.666  11.632  65.740  1.00  0.00    -0.236 C  
HETATM   23  C   UNL     1      -9.660  11.826  67.254  1.00  0.00    -0.182 C  
ENDBRANCH  19  22
ENDBRANCH  18  19
ENDBRANCH  17  18
ENDBRANCH  16  17
ENDBRANCH  14  16
ENDBRANCH  13  14
ENDBRANCH   4   5
ENDBRANCH   3   4
ENDBRANCH   2   3
TORSDOF 10
ENDMDL
MODEL       90
REMARK 921   NORMALIZED FREE ENERGY PREDICTED BY IDOCK:   -4.32 KCAL/MOL
REMARK 922        TOTAL FREE ENERGY PREDICTED BY IDOCK:   -7.91 KCAL/MOL
REMARK 923 INTER-LIGAND FREE ENERGY PREDICTED BY IDOCK:   -7.07 KCAL/MOL
REMARK 924 INTRA-LIGAND FREE ENERGY PREDICTED BY IDOCK:   -0.84 KCAL/MOL
REMARK 927      BINDING AFFINITY PREDICTED BY RF-SCORE:    0.00 PKD
ROOT
HETATM    1  C   UNL     1      -8.492   9.438  68.899  1.00  0.00    -0.122 C  
HETATM    2  C   UNL     1      -9.638  10.441  68.900  1.00  0.00    -0.197 C  
ENDROOT
BRANCH   2   3
HETATM    3  C   UNL     1     -10.765   9.972  67.989  1.00  0.00    -0.256 C  
BRANCH   3   4
HETATM    4  O   UNL     1     -11.218  11.062  67.184  1.00  0.00    -0.309 OA 
BRANCH   4   5
HETATM    5  C   UNL     1     -10.774  11.100  65.885  1.00  0.00    -0.198 A  
HETATM    6  C   UNL     1      -9.977  10.093  65.315  1.00  0.00    -0.381 A  
HETATM    7  C   UNL     1      -9.504  10.175  64.001  1.00  0.00    -0.282 A  
HETATM    8  C   UNL     1      -9.947  11.220  63.197  1.00  0.00    -0.398 A  
HETATM    9  N   UNL     1      -8.788   9.109  63.448  1.00  0.00    -0.418 NA 
HETATM   10  H1  UNL     1      -8.445   9.170  62.489  1.00  0.00     0.000 HD 
HETATM   11  C   UNL     1     -10.745  12.229  63.731  1.00  0.00    -0.494 A  
HETATM   12  H2  UNL     1      -9.350   8.263  63.536  1.00  0.00     0.000 HD 
HETATM   13  C   UNL     1     -11.144  12.190  65.077  1.00  0.00    -0.368 A  
BRANCH  13  14
HETATM   14  C   UNL     1     -11.870  13.398  65.556  1.00  0.00    -0.363 C  
HETATM   15  O   UNL     1     -12.941  13.764  65.092  1.00  0.00    -0.738 OA 
BRANCH  14  16
HETATM   16  O   UNL     1     -11.053  14.136  66.344  1.00  0.00    -0.311 OA 
BRANCH  16  17
HETATM   17  C   UNL     1     -11.720  15.032  67.247  1.00  0.00    -0.223 C  
BRANCH  17  18
HETATM   18  C   UNL     1     -11.395  14.525  68.663  1.00  0.00    -0.276 C  
BRANCH  18  19
HETATM   19  N   UNL     1     -10.692  15.449  69.577  1.00  0.00    -0.249 NA 
BRANCH  19  20
HETATM   20  C   UNL     1     -11.358  15.408  70.891  1.00  0.00    -0.359 C  
HETATM   21  C   UNL     1     -12.879  15.352  70.825  1.00  0.00    -0.524 C  
ENDBRANCH  19  20
BRANCH  19  22
HETATM   22  C   UNL     1     -10.526  16.797  69.021  1.00  0.00    -0.336 C  
HETATM   23  C   UNL     1      -9.105  17.206  68.646  1.00  0.00    -0.268 C  
ENDBRANCH  19  22
ENDBRANCH  18  19
ENDBRANCH  17  18
ENDBRANCH  16  17
ENDBRANCH  14  16
ENDBRANCH  13  14
ENDBRANCH   4   5
ENDBRANCH   3   4
ENDBRANCH   2   3
TORSDOF 10
ENDMDL
MODEL       91
REMARK 921   NORMALIZED FREE ENERGY PREDICTED BY IDOCK:   -4.32 KCAL/MOL
REMARK 922        TOTAL FREE ENERGY PREDICTED BY IDOCK:   -7.91 KCAL/MOL
REMARK 923 INTER-LIGAND FREE ENERGY PREDICTED BY IDOCK:   -7.17 KCAL/MOL
REMARK 924 INTRA-LIGAND FREE ENERGY PREDICTED BY IDOCK:   -0.73 KCAL/MOL
REMARK 927      BINDING AFFINITY PREDICTED BY RF-SCORE:    0.00 PKD
ROOT
HETATM    1  C   UNL     1      -9.003   5.409  70.255  1.00  0.00    -0.158 C  
HETATM    2  C   UNL     1     -10.513   5.216  70.282  1.00  0.00    -0.296 C  
ENDROOT
BRANCH   2   3
HETATM    3  C   UNL     1     -11.223   6.444  69.725  1.00  0.00    -0.419 C  
BRANCH   3   4
HETATM    4  O   UNL     1     -10.630   7.628  70.264  1.00  0.00    -0.220 OA 
BRANCH   4   5
HETATM    5  C   UNL     1     -11.487   8.573  70.773  1.00  0.00    -0.253 A  
HETATM    6  C   UNL     1     -12.470   8.282  71.734  1.00  0.00    -0.367 A  
HETATM    7  C   UNL     1     -13.356   9.256  72.206  1.00  0.00    -0.477 A  
HETATM    8  C   UNL     1     -13.171  10.577  71.810  1.00  0.00    -0.522 A  
HETATM    9  N   UNL     1     -14.260   8.943  73.226  1.00  0.00    -1.237 NA 
HETATM   10  H1  UNL     1     -14.906   9.654  73.570  1.00  0.00     0.000 HD 
HETATM   11  C   UNL     1     -12.199  10.897  70.865  1.00  0.00    -0.485 A  
HETATM   12  H2  UNL     1     -13.737   8.572  74.018  1.00  0.00     0.000 HD 
HETATM   13  C   UNL     1     -11.369   9.901  70.325  1.00  0.00    -0.357 A  
BRANCH  13  14
HETATM   14  C   UNL     1     -10.475  10.353  69.224  1.00  0.00    -0.234 C  
HETATM   15  O   UNL     1      -9.292  10.619  69.387  1.00  0.00    -0.163 OA 
BRANCH  14  16
HETATM   16  O   UNL     1     -11.218  10.675  68.139  1.00  0.00    -0.270 OA 
BRANCH  16  17
HETATM   17  C   UNL     1     -10.518  11.386  67.107  1.00  0.00    -0.224 C  
BRANCH  17  18
HETATM   18  C   UNL     1     -10.492  10.447  65.888  1.00  0.00    -0.125 C  
BRANCH  18  19
HETATM   19  N   UNL     1      -9.759  10.901  64.688  1.00  0.00    -0.256 NA 
BRANCH  19  20
HETATM   20  C   UNL     1     -10.739  11.234  63.638  1.00  0.00    -0.367 C  
HETATM   21  C   UNL     1     -11.319  12.638  63.740  1.00  0.00    -0.529 C  
ENDBRANCH  19  20
BRANCH  19  22
HETATM   22  C   UNL     1      -8.708   9.969  64.265  1.00  0.00    -0.206 C  
HETATM   23  C   UNL     1      -7.270  10.400  64.541  1.00  0.00    -0.008 C  
ENDBRANCH  19  22
ENDBRANCH  18  19
ENDBRANCH  17  18
ENDBRANCH  16  17
ENDBRANCH  14  16
ENDBRANCH  13  14
ENDBRANCH   4   5
ENDBRANCH   3   4
ENDBRANCH   2   3
TORSDOF 10
ENDMDL
MODEL       92
REMARK 921   NORMALIZED FREE ENERGY PREDICTED BY IDOCK:   -4.31 KCAL/MOL
REMARK 922        TOTAL FREE ENERGY PREDICTED BY IDOCK:   -7.89 KCAL/MOL
REMARK 923 INTER-LIGAND FREE ENERGY PREDICTED BY IDOCK:   -7.38 KCAL/MOL
REMARK 924 INTRA-LIGAND FREE ENERGY PREDICTED BY IDOCK:   -0.50 KCAL/MOL
REMARK 927      BINDING AFFINITY PREDICTED BY RF-SCORE:    0.00 PKD
ROOT
HETATM    1  C   UNL     1      -9.645   4.177  69.975  1.00  0.00    -0.274 C  
HETATM    2  C   UNL     1     -10.303   5.243  70.841  1.00  0.00    -0.303 C  
ENDROOT
BRANCH   2   3
HETATM    3  C   UNL     1     -10.563   6.508  70.032  1.00  0.00    -0.230 C  
BRANCH   3   4
HETATM    4  O   UNL     1     -10.140   7.651  70.778  1.00  0.00    -0.189 OA 
BRANCH   4   5
HETATM    5  C   UNL     1     -11.108   8.568  71.108  1.00  0.00    -0.260 A  
HETATM    6  C   UNL     1     -12.168   8.286  71.985  1.00  0.00    -0.398 A  
HETATM    7  C   UNL     1     -13.163   9.227  72.272  1.00  0.00    -0.460 A  
HETATM    8  C   UNL     1     -13.024  10.519  71.778  1.00  0.00    -0.582 A  
HETATM    9  N   UNL     1     -14.150   8.933  73.219  1.00  0.00    -1.248 NA 
HETATM   10  H1  UNL     1     -14.875   9.620  73.428  1.00  0.00     0.000 HD 
HETATM   11  C   UNL     1     -11.979  10.831  70.912  1.00  0.00    -0.438 A  
HETATM   12  H2  UNL     1     -13.692   8.672  74.092  1.00  0.00     0.000 HD 
HETATM   13  C   UNL     1     -11.030   9.858  70.554  1.00  0.00    -0.391 A  
BRANCH  13  14
HETATM   14  C   UNL     1     -10.054  10.282  69.512  1.00  0.00    -0.235 C  
HETATM   15  O   UNL     1      -8.900   9.877  69.472  1.00  0.00    -0.168 OA 
BRANCH  14  16
HETATM   16  O   UNL     1     -10.547  11.343  68.832  1.00  0.00    -0.197 OA 
BRANCH  16  17
HETATM   17  C   UNL     1      -9.585  12.073  68.056  1.00  0.00    -0.199 C  
BRANCH  17  18
HETATM   18  C   UNL     1      -9.818  13.559  68.379  1.00  0.00    -0.225 C  
BRANCH  18  19
HETATM   19  N   UNL     1     -10.814  14.289  67.568  1.00  0.00    -0.276 NA 
BRANCH  19  20
HETATM   20  C   UNL     1     -10.295  14.421  66.194  1.00  0.00    -0.298 C  
HETATM   21  C   UNL     1      -9.410  15.640  65.970  1.00  0.00    -0.384 C  
ENDBRANCH  19  20
BRANCH  19  22
HETATM   22  C   UNL     1     -11.244  15.552  68.179  1.00  0.00    -0.343 C  
HETATM   23  C   UNL     1     -10.957  15.715  69.669  1.00  0.00    -0.288 C  
ENDBRANCH  19  22
ENDBRANCH  18  19
ENDBRANCH  17  18
ENDBRANCH  16  17
ENDBRANCH  14  16
ENDBRANCH  13  14
ENDBRANCH   4   5
ENDBRANCH   3   4
ENDBRANCH   2   3
TORSDOF 10
ENDMDL
MODEL       93
REMARK 921   NORMALIZED FREE ENERGY PREDICTED BY IDOCK:   -4.31 KCAL/MOL
REMARK 922        TOTAL FREE ENERGY PREDICTED BY IDOCK:   -7.89 KCAL/MOL
REMARK 923 INTER-LIGAND FREE ENERGY PREDICTED BY IDOCK:   -6.58 KCAL/MOL
REMARK 924 INTRA-LIGAND FREE ENERGY PREDICTED BY IDOCK:   -1.31 KCAL/MOL
REMARK 927      BINDING AFFINITY PREDICTED BY RF-SCORE:    0.00 PKD
ROOT
HETATM    1  C   UNL     1     -10.629   9.769  70.805  1.00  0.00    -0.371 C  
HETATM    2  C   UNL     1     -11.702   9.925  69.736  1.00  0.00    -0.079 C  
ENDROOT
BRANCH   2   3
HETATM    3  C   UNL     1     -12.264  11.341  69.740  1.00  0.00    -0.275 C  
BRANCH   3   4
HETATM    4  O   UNL     1     -12.157  11.904  68.431  1.00  0.00    -0.448 OA 
BRANCH   4   5
HETATM    5  C   UNL     1     -11.907  13.253  68.355  1.00  0.00    -0.360 A  
HETATM    6  C   UNL     1     -11.864  14.091  69.481  1.00  0.00    -0.378 A  
HETATM    7  C   UNL     1     -11.647  15.469  69.372  1.00  0.00    -0.355 A  
HETATM    8  C   UNL     1     -11.334  15.999  68.125  1.00  0.00    -0.289 A  
HETATM    9  N   UNL     1     -11.524  16.251  70.525  1.00  0.00    -0.493 NA 
HETATM   10  H1  UNL     1     -11.365  17.255  70.445  1.00  0.00     0.000 HD 
HETATM   11  C   UNL     1     -11.361  15.191  66.991  1.00  0.00    -0.277 A  
HETATM   12  H2  UNL     1     -10.787  15.853  71.107  1.00  0.00     0.000 HD 
HETATM   13  C   UNL     1     -11.667  13.824  67.092  1.00  0.00    -0.417 A  
BRANCH  13  14
HETATM   14  C   UNL     1     -11.804  13.109  65.794  1.00  0.00    -0.397 C  
HETATM   15  O   UNL     1     -12.882  12.777  65.322  1.00  0.00    -0.674 OA 
BRANCH  14  16
HETATM   16  O   UNL     1     -10.591  12.664  65.390  1.00  0.00    -0.270 OA 
BRANCH  16  17
HETATM   17  C   UNL     1     -10.543  11.282  65.006  1.00  0.00    -0.289 C  
BRANCH  17  18
HETATM   18  C   UNL     1      -9.064  10.867  65.101  1.00  0.00    -0.196 C  
BRANCH  18  19
HETATM   19  N   UNL     1      -8.677   9.958  66.200  1.00  0.00    -0.134 NA 
BRANCH  19  20
HETATM   20  C   UNL     1      -9.170   8.605  65.887  1.00  0.00    -0.202 C  
HETATM   21  C   UNL     1     -10.224   8.080  66.852  1.00  0.00    -0.385 C  
ENDBRANCH  19  20
BRANCH  19  22
HETATM   22  C   UNL     1      -9.066  10.455  67.525  1.00  0.00    -0.134 C  
HETATM   23  C   UNL     1      -8.429  11.768  67.970  1.00  0.00    -0.157 C  
ENDBRANCH  19  22
ENDBRANCH  18  19
ENDBRANCH  17  18
ENDBRANCH  16  17
ENDBRANCH  14  16
ENDBRANCH  13  14
ENDBRANCH   4   5
ENDBRANCH   3   4
ENDBRANCH   2   3
TORSDOF 10
ENDMDL
MODEL       94
REMARK 921   NORMALIZED FREE ENERGY PREDICTED BY IDOCK:   -4.31 KCAL/MOL
REMARK 922        TOTAL FREE ENERGY PREDICTED BY IDOCK:   -7.89 KCAL/MOL
REMARK 923 INTER-LIGAND FREE ENERGY PREDICTED BY IDOCK:   -6.71 KCAL/MOL
REMARK 924 INTRA-LIGAND FREE ENERGY PREDICTED BY IDOCK:   -1.18 KCAL/MOL
REMARK 927      BINDING AFFINITY PREDICTED BY RF-SCORE:    0.00 PKD
ROOT
HETATM    1  C   UNL     1     -14.378   8.481  71.987  1.00  0.00    -0.537 C  
HETATM    2  C   UNL     1     -13.009   9.093  71.729  1.00  0.00    -0.448 C  
ENDROOT
BRANCH   2   3
HETATM    3  C   UNL     1     -13.074  10.613  71.815  1.00  0.00    -0.466 C  
BRANCH   3   4
HETATM    4  O   UNL     1     -12.216  11.187  70.826  1.00  0.00    -0.346 OA 
BRANCH   4   5
HETATM    5  C   UNL     1     -12.304  12.546  70.644  1.00  0.00    -0.282 A  
HETATM    6  C   UNL     1     -12.828  13.420  71.611  1.00  0.00    -0.414 A  
HETATM    7  C   UNL     1     -12.943  14.795  71.384  1.00  0.00    -0.342 A  
HETATM    8  C   UNL     1     -12.400  15.327  70.219  1.00  0.00    -0.407 A  
HETATM    9  N   UNL     1     -13.388  15.638  72.407  1.00  0.00    -0.460 NA 
HETATM   10  H1  UNL     1     -13.471  16.641  72.241  1.00  0.00     0.000 HD 
HETATM   11  C   UNL     1     -11.867  14.487  69.245  1.00  0.00    -0.361 A  
HETATM   12  H2  UNL     1     -12.795  15.495  73.224  1.00  0.00     0.000 HD 
HETATM   13  C   UNL     1     -11.834  13.096  69.438  1.00  0.00    -0.383 A  
BRANCH  13  14
HETATM   14  C   UNL     1     -11.373  12.306  68.263  1.00  0.00    -0.289 C  
HETATM   15  O   UNL     1     -12.129  11.657  67.554  1.00  0.00    -0.611 OA 
BRANCH  14  16
HETATM   16  O   UNL     1     -10.023  12.205  68.286  1.00  0.00    -0.203 OA 
BRANCH  16  17
HETATM   17  C   UNL     1      -9.503  10.897  68.004  1.00  0.00    -0.163 C  
BRANCH  17  18
HETATM   18  C   UNL     1      -8.933  10.372  69.334  1.00  0.00    -0.151 C  
BRANCH  18  19
HETATM   19  N   UNL     1      -9.602   9.212  69.957  1.00  0.00    -0.184 NA 
BRANCH  19  20
HETATM   20  C   UNL     1      -8.578   8.366  70.596  1.00  0.00    -0.141 C  
HETATM   21  C   UNL     1      -7.305   8.192  69.779  1.00  0.00    -0.065 C  
ENDBRANCH  19  20
BRANCH  19  22
HETATM   22  C   UNL     1     -10.494   8.497  69.038  1.00  0.00    -0.200 C  
HETATM   23  C   UNL     1     -10.797   7.041  69.382  1.00  0.00    -0.253 C  
ENDBRANCH  19  22
ENDBRANCH  18  19
ENDBRANCH  17  18
ENDBRANCH  16  17
ENDBRANCH  14  16
ENDBRANCH  13  14
ENDBRANCH   4   5
ENDBRANCH   3   4
ENDBRANCH   2   3
TORSDOF 10
ENDMDL
MODEL       95
REMARK 921   NORMALIZED FREE ENERGY PREDICTED BY IDOCK:   -4.30 KCAL/MOL
REMARK 922        TOTAL FREE ENERGY PREDICTED BY IDOCK:   -7.86 KCAL/MOL
REMARK 923 INTER-LIGAND FREE ENERGY PREDICTED BY IDOCK:   -6.64 KCAL/MOL
REMARK 924 INTRA-LIGAND FREE ENERGY PREDICTED BY IDOCK:   -1.22 KCAL/MOL
REMARK 927      BINDING AFFINITY PREDICTED BY RF-SCORE:    0.00 PKD
ROOT
HETATM    1  C   UNL     1      -8.740  20.214  66.209  1.00  0.00    -0.283 C  
HETATM    2  C   UNL     1      -9.578  20.161  67.479  1.00  0.00    -0.547 C  
ENDROOT
BRANCH   2   3
HETATM    3  C   UNL     1     -10.396  18.876  67.531  1.00  0.00    -0.426 C  
BRANCH   3   4
HETATM    4  O   UNL     1     -10.107  18.172  68.741  1.00  0.00    -0.375 OA 
BRANCH   4   5
HETATM    5  C   UNL     1      -9.289  17.073  68.637  1.00  0.00    -0.270 A  
HETATM    6  C   UNL     1      -8.075  17.081  67.931  1.00  0.00    -0.196 A  
HETATM    7  C   UNL     1      -7.281  15.936  67.808  1.00  0.00    -0.147 A  
HETATM    8  C   UNL     1      -7.641  14.794  68.516  1.00  0.00    -0.120 A  
HETATM    9  N   UNL     1      -6.038  16.012  67.172  1.00  0.00    -0.327 NA 
HETATM   10  H1  UNL     1      -5.459  15.177  67.083  1.00  0.00     0.000 HD 
HETATM   11  C   UNL     1      -8.835  14.758  69.231  1.00  0.00    -0.030 A  
HETATM   12  H2  UNL     1      -5.487  16.739  67.627  1.00  0.00     0.000 HD 
HETATM   13  C   UNL     1      -9.676  15.883  69.279  1.00  0.00    -0.263 A  
BRANCH  13  14
HETATM   14  C   UNL     1     -10.984  15.664  69.954  1.00  0.00    -0.318 C  
HETATM   15  O   UNL     1     -11.135  15.745  71.166  1.00  0.00    -0.339 OA 
BRANCH  14  16
HETATM   16  O   UNL     1     -11.860  15.114  69.081  1.00  0.00    -0.308 OA 
BRANCH  16  17
HETATM   17  C   UNL     1     -12.026  13.692  69.196  1.00  0.00    -0.351 C  
BRANCH  17  18
HETATM   18  C   UNL     1     -11.912  13.135  67.766  1.00  0.00    -0.307 C  
BRANCH  18  19
HETATM   19  N   UNL     1     -11.831  14.108  66.656  1.00  0.00    -0.406 NA 
BRANCH  19  20
HETATM   20  C   UNL     1     -12.900  13.805  65.687  1.00  0.00    -0.408 C  
HETATM   21  C   UNL     1     -12.564  12.688  64.708  1.00  0.00    -0.530 C  
ENDBRANCH  19  20
BRANCH  19  22
HETATM   22  C   UNL     1     -10.489  14.206  66.070  1.00  0.00    -0.304 C  
HETATM   23  C   UNL     1     -10.153  15.516  65.365  1.00  0.00    -0.387 C  
ENDBRANCH  19  22
ENDBRANCH  18  19
ENDBRANCH  17  18
ENDBRANCH  16  17
ENDBRANCH  14  16
ENDBRANCH  13  14
ENDBRANCH   4   5
ENDBRANCH   3   4
ENDBRANCH   2   3
TORSDOF 10
ENDMDL
MODEL       96
REMARK 921   NORMALIZED FREE ENERGY PREDICTED BY IDOCK:   -4.28 KCAL/MOL
REMARK 922        TOTAL FREE ENERGY PREDICTED BY IDOCK:   -7.84 KCAL/MOL
REMARK 923 INTER-LIGAND FREE ENERGY PREDICTED BY IDOCK:   -6.62 KCAL/MOL
REMARK 924 INTRA-LIGAND FREE ENERGY PREDICTED BY IDOCK:   -1.22 KCAL/MOL
REMARK 927      BINDING AFFINITY PREDICTED BY RF-SCORE:    0.00 PKD
ROOT
HETATM    1  C   UNL     1     -10.303  16.728  67.518  1.00  0.00    -0.301 C  
HETATM    2  C   UNL     1     -10.521  15.525  68.424  1.00  0.00    -0.240 C  
ENDROOT
BRANCH   2   3
HETATM    3  C   UNL     1     -11.979  15.081  68.389  1.00  0.00    -0.200 C  
BRANCH   3   4
HETATM    4  O   UNL     1     -12.047  13.674  68.150  1.00  0.00    -0.359 OA 
BRANCH   4   5
HETATM    5  C   UNL     1     -11.766  13.248  66.874  1.00  0.00    -0.388 A  
HETATM    6  C   UNL     1     -12.283  13.869  65.725  1.00  0.00    -0.488 A  
HETATM    7  C   UNL     1     -12.013  13.390  64.439  1.00  0.00    -0.411 A  
HETATM    8  C   UNL     1     -11.100  12.351  64.291  1.00  0.00    -0.399 A  
HETATM    9  N   UNL     1     -12.475  14.091  63.320  1.00  0.00    -1.112 NA 
HETATM   10  H1  UNL     1     -12.278  13.742  62.383  1.00  0.00     0.000 HD 
HETATM   11  C   UNL     1     -10.565  11.721  65.412  1.00  0.00    -0.325 A  
HETATM   12  H2  UNL     1     -12.144  15.053  63.383  1.00  0.00     0.000 HD 
HETATM   13  C   UNL     1     -10.909  12.147  66.705  1.00  0.00    -0.289 A  
BRANCH  13  14
HETATM   14  C   UNL     1     -10.382  11.298  67.810  1.00  0.00    -0.182 C  
HETATM   15  O   UNL     1      -9.264  11.436  68.285  1.00  0.00    -0.170 OA 
BRANCH  14  16
HETATM   16  O   UNL     1     -11.195  10.231  67.989  1.00  0.00    -0.293 OA 
BRANCH  16  17
HETATM   17  C   UNL     1     -10.524   8.987  68.240  1.00  0.00    -0.200 C  
BRANCH  17  18
HETATM   18  C   UNL     1     -10.371   8.305  66.869  1.00  0.00    -0.320 C  
BRANCH  18  19
HETATM   19  N   UNL     1      -9.062   7.700  66.546  1.00  0.00    -0.160 NA 
BRANCH  19  20
HETATM   20  C   UNL     1      -8.500   8.393  65.373  1.00  0.00    -0.176 C  
HETATM   21  C   UNL     1      -7.598   9.573  65.710  1.00  0.00    -0.100 C  
ENDBRANCH  19  20
BRANCH  19  22
HETATM   22  C   UNL     1      -9.115   6.239  66.421  1.00  0.00    -0.153 C  
HETATM   23  C   UNL     1     -10.453   5.579  66.745  1.00  0.00    -0.355 C  
ENDBRANCH  19  22
ENDBRANCH  18  19
ENDBRANCH  17  18
ENDBRANCH  16  17
ENDBRANCH  14  16
ENDBRANCH  13  14
ENDBRANCH   4   5
ENDBRANCH   3   4
ENDBRANCH   2   3
TORSDOF 10
ENDMDL
MODEL       97
REMARK 921   NORMALIZED FREE ENERGY PREDICTED BY IDOCK:   -4.27 KCAL/MOL
REMARK 922        TOTAL FREE ENERGY PREDICTED BY IDOCK:   -7.82 KCAL/MOL
REMARK 923 INTER-LIGAND FREE ENERGY PREDICTED BY IDOCK:   -7.00 KCAL/MOL
REMARK 924 INTRA-LIGAND FREE ENERGY PREDICTED BY IDOCK:   -0.82 KCAL/MOL
REMARK 927      BINDING AFFINITY PREDICTED BY RF-SCORE:    0.00 PKD
ROOT
HETATM    1  C   UNL     1     -10.653  19.797  66.845  1.00  0.00    -0.588 C  
HETATM    2  C   UNL     1      -9.795  18.773  66.116  1.00  0.00    -0.327 C  
ENDROOT
BRANCH   2   3
HETATM    3  C   UNL     1     -10.647  17.614  65.616  1.00  0.00    -0.135 C  
BRANCH   3   4
HETATM    4  O   UNL     1     -10.466  16.481  66.469  1.00  0.00    -0.301 OA 
BRANCH   4   5
HETATM    5  C   UNL     1     -11.102  15.320  66.100  1.00  0.00    -0.280 A  
HETATM    6  C   UNL     1     -11.496  15.045  64.780  1.00  0.00    -0.403 A  
HETATM    7  C   UNL     1     -12.178  13.872  64.440  1.00  0.00    -0.413 A  
HETATM    8  C   UNL     1     -12.352  12.893  65.413  1.00  0.00    -0.538 A  
HETATM    9  N   UNL     1     -12.472  13.598  63.100  1.00  0.00    -1.045 NA 
HETATM   10  H1  UNL     1     -12.969  12.743  62.852  1.00  0.00     0.000 HD 
HETATM   11  C   UNL     1     -11.965  13.135  66.729  1.00  0.00    -0.434 A  
HETATM   12  H2  UNL     1     -11.605  13.634  62.565  1.00  0.00     0.000 HD 
HETATM   13  C   UNL     1     -11.360  14.351  67.086  1.00  0.00    -0.356 A  
BRANCH  13  14
HETATM   14  C   UNL     1     -11.129  14.537  68.545  1.00  0.00    -0.256 C  
HETATM   15  O   UNL     1     -11.938  15.075  69.288  1.00  0.00    -0.307 OA 
BRANCH  14  16
HETATM   16  O   UNL     1      -9.832  14.282  68.835  1.00  0.00    -0.213 OA 
BRANCH  16  17
HETATM   17  C   UNL     1      -9.083  15.403  69.329  1.00  0.00    -0.260 C  
BRANCH  17  18
HETATM   18  C   UNL     1      -7.700  15.317  68.661  1.00  0.00    -0.135 C  
BRANCH  18  19
HETATM   19  N   UNL     1      -6.826  16.505  68.739  1.00  0.00    -0.164 NA 
BRANCH  19  20
HETATM   20  C   UNL     1      -6.102  16.472  70.022  1.00  0.00    -0.151 C  
HETATM   21  C   UNL     1      -5.465  15.129  70.352  1.00  0.00    -0.134 C  
ENDBRANCH  19  20
BRANCH  19  22
HETATM   22  C   UNL     1      -7.534  17.763  68.472  1.00  0.00    -0.272 C  
HETATM   23  C   UNL     1      -6.684  19.030  68.462  1.00  0.00    -0.293 C  
ENDBRANCH  19  22
ENDBRANCH  18  19
ENDBRANCH  17  18
ENDBRANCH  16  17
ENDBRANCH  14  16
ENDBRANCH  13  14
ENDBRANCH   4   5
ENDBRANCH   3   4
ENDBRANCH   2   3
TORSDOF 10
ENDMDL
MODEL       98
REMARK 921   NORMALIZED FREE ENERGY PREDICTED BY IDOCK:   -4.26 KCAL/MOL
REMARK 922        TOTAL FREE ENERGY PREDICTED BY IDOCK:   -7.81 KCAL/MOL
REMARK 923 INTER-LIGAND FREE ENERGY PREDICTED BY IDOCK:   -7.13 KCAL/MOL
REMARK 924 INTRA-LIGAND FREE ENERGY PREDICTED BY IDOCK:   -0.68 KCAL/MOL
REMARK 927      BINDING AFFINITY PREDICTED BY RF-SCORE:    0.00 PKD
ROOT
HETATM    1  C   UNL     1      -8.552   7.962  68.567  1.00  0.00    -0.128 C  
HETATM    2  C   UNL     1      -8.836   9.099  67.596  1.00  0.00    -0.123 C  
ENDROOT
BRANCH   2   3
HETATM    3  C   UNL     1     -10.098   9.850  68.001  1.00  0.00    -0.171 C  
BRANCH   3   4
HETATM    4  O   UNL     1      -9.982  10.289  69.356  1.00  0.00    -0.214 OA 
BRANCH   4   5
HETATM    5  C   UNL     1     -11.075  10.094  70.165  1.00  0.00    -0.315 A  
HETATM    6  C   UNL     1     -11.358   8.871  70.795  1.00  0.00    -0.325 A  
HETATM    7  C   UNL     1     -12.500   8.688  71.582  1.00  0.00    -0.335 A  
HETATM    8  C   UNL     1     -13.306   9.788  71.854  1.00  0.00    -0.530 A  
HETATM    9  N   UNL     1     -12.696   7.482  72.261  1.00  0.00    -0.512 NA 
HETATM   10  H1  UNL     1     -13.528   7.349  72.835  1.00  0.00     0.000 HD 
HETATM   11  C   UNL     1     -13.047  11.016  71.251  1.00  0.00    -0.381 A  
HETATM   12  H2  UNL     1     -11.875   7.299  72.837  1.00  0.00     0.000 HD 
HETATM   13  C   UNL     1     -11.949  11.173  70.389  1.00  0.00    -0.469 A  
BRANCH  13  14
HETATM   14  C   UNL     1     -11.870  12.491  69.700  1.00  0.00    -0.314 C  
HETATM   15  O   UNL     1     -11.846  13.558  70.298  1.00  0.00    -0.309 OA 
BRANCH  14  16
HETATM   16  O   UNL     1     -12.104  12.327  68.378  1.00  0.00    -0.321 OA 
BRANCH  16  17
HETATM   17  C   UNL     1     -11.353  13.191  67.511  1.00  0.00    -0.298 C  
BRANCH  17  18
HETATM   18  C   UNL     1     -12.392  14.014  66.729  1.00  0.00    -0.332 C  
BRANCH  18  19
HETATM   19  N   UNL     1     -12.411  13.875  65.259  1.00  0.00    -0.438 NA 
BRANCH  19  20
HETATM   20  C   UNL     1     -11.490  12.789  64.878  1.00  0.00    -0.320 C  
HETATM   21  C   UNL     1     -11.921  12.001  63.648  1.00  0.00    -0.612 C  
ENDBRANCH  19  20
BRANCH  19  22
HETATM   22  C   UNL     1     -12.179  15.143  64.555  1.00  0.00    -0.267 C  
HETATM   23  C   UNL     1     -10.859  15.849  64.849  1.00  0.00    -0.420 C  
ENDBRANCH  19  22
ENDBRANCH  18  19
ENDBRANCH  17  18
ENDBRANCH  16  17
ENDBRANCH  14  16
ENDBRANCH  13  14
ENDBRANCH   4   5
ENDBRANCH   3   4
ENDBRANCH   2   3
TORSDOF 10
ENDMDL
MODEL       99
REMARK 921   NORMALIZED FREE ENERGY PREDICTED BY IDOCK:   -4.26 KCAL/MOL
REMARK 922        TOTAL FREE ENERGY PREDICTED BY IDOCK:   -7.80 KCAL/MOL
REMARK 923 INTER-LIGAND FREE ENERGY PREDICTED BY IDOCK:   -7.18 KCAL/MOL
REMARK 924 INTRA-LIGAND FREE ENERGY PREDICTED BY IDOCK:   -0.61 KCAL/MOL
REMARK 927      BINDING AFFINITY PREDICTED BY RF-SCORE:    0.00 PKD
ROOT
HETATM    1  C   UNL     1      -6.997  11.693  69.113  1.00  0.00    -0.105 C  
HETATM    2  C   UNL     1      -8.073  12.199  68.164  1.00  0.00    -0.161 C  
ENDROOT
BRANCH   2   3
HETATM    3  C   UNL     1      -9.167  11.154  67.983  1.00  0.00    -0.159 C  
BRANCH   3   4
HETATM    4  O   UNL     1     -10.332  11.768  67.428  1.00  0.00    -0.200 OA 
BRANCH   4   5
HETATM    5  C   UNL     1     -10.486  11.684  66.065  1.00  0.00    -0.251 A  
HETATM    6  C   UNL     1      -9.864  10.700  65.279  1.00  0.00    -0.334 A  
HETATM    7  C   UNL     1     -10.007  10.662  63.888  1.00  0.00    -0.326 A  
HETATM    8  C   UNL     1     -10.896  11.544  63.283  1.00  0.00    -0.342 A  
HETATM    9  N   UNL     1      -9.441   9.614  63.156  1.00  0.00    -0.523 NA 
HETATM   10  H1  UNL     1      -9.546   9.586  62.142  1.00  0.00     0.000 HD 
HETATM   11  C   UNL     1     -11.535  12.525  64.038  1.00  0.00    -0.476 A  
HETATM   12  H2  UNL     1      -9.781   8.732  63.539  1.00  0.00     0.000 HD 
HETATM   13  C   UNL     1     -11.320  12.618  65.423  1.00  0.00    -0.348 A  
BRANCH  13  14
HETATM   14  C   UNL     1     -11.947  13.796  66.082  1.00  0.00    -0.418 C  
HETATM   15  O   UNL     1     -13.068  14.200  65.806  1.00  0.00    -0.512 OA 
BRANCH  14  16
HETATM   16  O   UNL     1     -11.011  14.473  66.787  1.00  0.00    -0.303 OA 
BRANCH  16  17
HETATM   17  C   UNL     1     -11.511  15.221  67.906  1.00  0.00    -0.316 C  
BRANCH  17  18
HETATM   18  C   UNL     1     -11.588  14.228  69.079  1.00  0.00    -0.305 C  
BRANCH  18  19
HETATM   19  N   UNL     1     -12.383  14.623  70.260  1.00  0.00    -0.334 NA 
BRANCH  19  20
HETATM   20  C   UNL     1     -11.715  15.760  70.918  1.00  0.00    -0.406 C  
HETATM   21  C   UNL     1     -12.151  16.000  72.358  1.00  0.00    -0.629 C  
ENDBRANCH  19  20
BRANCH  19  22
HETATM   22  C   UNL     1     -12.690  13.499  71.153  1.00  0.00    -0.344 C  
HETATM   23  C   UNL     1     -12.202  12.125  70.704  1.00  0.00    -0.392 C  
ENDBRANCH  19  22
ENDBRANCH  18  19
ENDBRANCH  17  18
ENDBRANCH  16  17
ENDBRANCH  14  16
ENDBRANCH  13  14
ENDBRANCH   4   5
ENDBRANCH   3   4
ENDBRANCH   2   3
TORSDOF 10
ENDMDL
MODEL      100
REMARK 921   NORMALIZED FREE ENERGY PREDICTED BY IDOCK:   -4.25 KCAL/MOL
REMARK 922        TOTAL FREE ENERGY PREDICTED BY IDOCK:   -7.80 KCAL/MOL
REMARK 923 INTER-LIGAND FREE ENERGY PREDICTED BY IDOCK:   -7.30 KCAL/MOL
REMARK 924 INTRA-LIGAND FREE ENERGY PREDICTED BY IDOCK:   -0.49 KCAL/MOL
REMARK 927      BINDING AFFINITY PREDICTED BY RF-SCORE:    0.00 PKD
ROOT
HETATM    1  C   UNL     1      -9.861  19.378  67.608  1.00  0.00    -0.450 C  
HETATM    2  C   UNL     1     -10.651  18.078  67.548  1.00  0.00    -0.402 C  
ENDROOT
BRANCH   2   3
HETATM    3  C   UNL     1     -10.249  17.151  68.689  1.00  0.00    -0.336 C  
BRANCH   3   4
HETATM    4  O   UNL     1     -10.907  15.891  68.538  1.00  0.00    -0.267 OA 
BRANCH   4   5
HETATM    5  C   UNL     1     -11.486  15.356  69.663  1.00  0.00    -0.320 A  
HETATM    6  C   UNL     1     -11.593  16.053  70.879  1.00  0.00    -0.453 A  
HETATM    7  C   UNL     1     -12.151  15.469  72.021  1.00  0.00    -0.420 A  
HETATM    8  C   UNL     1     -12.737  14.213  71.911  1.00  0.00    -0.406 A  
HETATM    9  N   UNL     1     -12.317  16.229  73.183  1.00  0.00    -0.504 NA 
HETATM   10  H1  UNL     1     -12.725  15.804  74.016  1.00  0.00     0.000 HD 
HETATM   11  C   UNL     1     -12.655  13.501  70.717  1.00  0.00    -0.382 A  
HETATM   12  H2  UNL     1     -12.856  17.062  72.950  1.00  0.00     0.000 HD 
HETATM   13  C   UNL     1     -12.013  14.054  69.596  1.00  0.00    -0.393 A  
BRANCH  13  14
HETATM   14  C   UNL     1     -11.869  13.135  68.434  1.00  0.00    -0.351 C  
HETATM   15  O   UNL     1     -11.607  13.521  67.303  1.00  0.00    -0.323 OA 
BRANCH  14  16
HETATM   16  O   UNL     1     -12.332  11.907  68.766  1.00  0.00    -0.264 OA 
BRANCH  16  17
HETATM   17  C   UNL     1     -11.459  10.815  68.438  1.00  0.00    -0.288 C  
BRANCH  17  18
HETATM   18  C   UNL     1     -10.755  10.426  69.750  1.00  0.00    -0.278 C  
BRANCH  18  19
HETATM   19  N   UNL     1     -11.315   9.297  70.520  1.00  0.00    -0.257 NA 
BRANCH  19  20
HETATM   20  C   UNL     1     -12.253   9.832  71.524  1.00  0.00    -0.406 C  
HETATM   21  C   UNL     1     -13.589   9.103  71.590  1.00  0.00    -0.451 C  
ENDBRANCH  19  20
BRANCH  19  22
HETATM   22  C   UNL     1     -10.287   8.402  71.065  1.00  0.00    -0.198 C  
HETATM   23  C   UNL     1      -9.174   7.987  70.107  1.00  0.00    -0.152 C  
ENDBRANCH  19  22
ENDBRANCH  18  19
ENDBRANCH  17  18
ENDBRANCH  16  17
ENDBRANCH  14  16
ENDBRANCH  13  14
ENDBRANCH   4   5
ENDBRANCH   3   4
ENDBRANCH   2   3
TORSDOF 10
ENDMDL
MODEL      101
REMARK 921   NORMALIZED FREE ENERGY PREDICTED BY IDOCK:   -4.25 KCAL/MOL
REMARK 922        TOTAL FREE ENERGY PREDICTED BY IDOCK:   -7.79 KCAL/MOL
REMARK 923 INTER-LIGAND FREE ENERGY PREDICTED BY IDOCK:   -7.03 KCAL/MOL
REMARK 924 INTRA-LIGAND FREE ENERGY PREDICTED BY IDOCK:   -0.76 KCAL/MOL
REMARK 927      BINDING AFFINITY PREDICTED BY RF-SCORE:    0.00 PKD
ROOT
HETATM    1  C   UNL     1     -12.179  12.052  63.471  1.00  0.00    -0.653 C  
HETATM    2  C   UNL     1     -10.694  11.730  63.556  1.00  0.00    -0.501 C  
ENDROOT
BRANCH   2   3
HETATM    3  C   UNL     1     -10.316  11.302  64.969  1.00  0.00    -0.301 C  
BRANCH   3   4
HETATM    4  O   UNL     1      -9.836  12.431  65.701  1.00  0.00    -0.254 OA 
BRANCH   4   5
HETATM    5  C   UNL     1     -10.554  12.800  66.813  1.00  0.00    -0.252 A  
HETATM    6  C   UNL     1     -10.616  12.022  67.981  1.00  0.00    -0.233 A  
HETATM    7  C   UNL     1     -11.388  12.402  69.084  1.00  0.00    -0.269 A  
HETATM    8  C   UNL     1     -12.004  13.648  69.071  1.00  0.00    -0.392 A  
HETATM    9  N   UNL     1     -11.350  11.642  70.258  1.00  0.00    -0.468 NA 
HETATM   10  H1  UNL     1     -11.912  11.920  71.062  1.00  0.00     0.000 HD 
HETATM   11  C   UNL     1     -11.953  14.445  67.930  1.00  0.00    -0.348 A  
HETATM   12  H2  UNL     1     -10.379  11.559  70.557  1.00  0.00     0.000 HD 
HETATM   13  C   UNL     1     -11.251  14.021  66.790  1.00  0.00    -0.323 A  
BRANCH  13  14
HETATM   14  C   UNL     1     -11.398  14.897  65.596  1.00  0.00    -0.325 C  
HETATM   15  O   UNL     1     -12.342  14.822  64.821  1.00  0.00    -0.394 OA 
BRANCH  14  16
HETATM   16  O   UNL     1     -10.237  15.554  65.369  1.00  0.00    -0.356 OA 
BRANCH  16  17
HETATM   17  C   UNL     1     -10.321  16.986  65.431  1.00  0.00    -0.063 C  
BRANCH  17  18
HETATM   18  C   UNL     1     -10.098  17.360  66.907  1.00  0.00    -0.314 C  
BRANCH  18  19
HETATM   19  N   UNL     1      -8.857  18.083  67.251  1.00  0.00    -0.244 NA 
BRANCH  19  20
HETATM   20  C   UNL     1      -8.270  17.465  68.454  1.00  0.00    -0.262 C  
HETATM   21  C   UNL     1      -8.648  16.004  68.659  1.00  0.00    -0.206 C  
ENDBRANCH  19  20
BRANCH  19  22
HETATM   22  C   UNL     1      -9.040  19.537  67.342  1.00  0.00    -0.309 C  
HETATM   23  C   UNL     1      -9.982  20.166  66.319  1.00  0.00    -0.557 C  
ENDBRANCH  19  22
ENDBRANCH  18  19
ENDBRANCH  17  18
ENDBRANCH  16  17
ENDBRANCH  14  16
ENDBRANCH  13  14
ENDBRANCH   4   5
ENDBRANCH   3   4
ENDBRANCH   2   3
TORSDOF 10
ENDMDL
MODEL      102
REMARK 921   NORMALIZED FREE ENERGY PREDICTED BY IDOCK:   -4.25 KCAL/MOL
REMARK 922        TOTAL FREE ENERGY PREDICTED BY IDOCK:   -7.78 KCAL/MOL
REMARK 923 INTER-LIGAND FREE ENERGY PREDICTED BY IDOCK:   -6.80 KCAL/MOL
REMARK 924 INTRA-LIGAND FREE ENERGY PREDICTED BY IDOCK:   -0.98 KCAL/MOL
REMARK 927      BINDING AFFINITY PREDICTED BY RF-SCORE:    0.00 PKD
ROOT
HETATM    1  C   UNL     1      -9.185  16.394  68.881  1.00  0.00    -0.259 C  
HETATM    2  C   UNL     1     -10.436  15.931  69.615  1.00  0.00    -0.295 C  
ENDROOT
BRANCH   2   3
HETATM    3  C   UNL     1     -11.029  14.698  68.944  1.00  0.00    -0.253 C  
BRANCH   3   4
HETATM    4  O   UNL     1     -10.062  14.118  68.065  1.00  0.00    -0.223 OA 
BRANCH   4   5
HETATM    5  C   UNL     1     -10.540  13.539  66.914  1.00  0.00    -0.270 A  
HETATM    6  C   UNL     1     -11.265  14.246  65.941  1.00  0.00    -0.319 A  
HETATM    7  C   UNL     1     -11.775  13.622  64.798  1.00  0.00    -0.377 A  
HETATM    8  C   UNL     1     -11.439  12.295  64.555  1.00  0.00    -0.401 A  
HETATM    9  N   UNL     1     -12.414  14.383  63.813  1.00  0.00    -1.058 NA 
HETATM   10  H1  UNL     1     -12.785  13.928  62.979  1.00  0.00     0.000 HD 
HETATM   11  C   UNL     1     -10.714  11.570  65.497  1.00  0.00    -0.328 A  
HETATM   12  H2  UNL     1     -11.783  15.128  63.520  1.00  0.00     0.000 HD 
HETATM   13  C   UNL     1     -10.280  12.175  66.688  1.00  0.00    -0.223 A  
BRANCH  13  14
HETATM   14  C   UNL     1      -9.644  11.254  67.669  1.00  0.00    -0.171 C  
HETATM   15  O   UNL     1      -8.447  11.002  67.673  1.00  0.00    -0.119 OA 
BRANCH  14  16
HETATM   16  O   UNL     1     -10.602  10.565  68.332  1.00  0.00    -0.176 OA 
BRANCH  16  17
HETATM   17  C   UNL     1     -10.873  11.023  69.666  1.00  0.00    -0.183 C  
BRANCH  17  18
HETATM   18  C   UNL     1     -11.985  10.109  70.209  1.00  0.00    -0.233 C  
BRANCH  18  19
HETATM   19  N   UNL     1     -12.980  10.708  71.123  1.00  0.00    -0.387 NA 
BRANCH  19  20
HETATM   20  C   UNL     1     -12.539  12.071  71.469  1.00  0.00    -0.174 C  
HETATM   21  C   UNL     1     -13.610  12.932  72.125  1.00  0.00    -0.589 C  
ENDBRANCH  19  20
BRANCH  19  22
HETATM   22  C   UNL     1     -13.289   9.858  72.279  1.00  0.00    -0.334 C  
HETATM   23  C   UNL     1     -12.427   8.610  72.452  1.00  0.00    -0.428 C  
ENDBRANCH  19  22
ENDBRANCH  18  19
ENDBRANCH  17  18
ENDBRANCH  16  17
ENDBRANCH  14  16
ENDBRANCH  13  14
ENDBRANCH   4   5
ENDBRANCH   3   4
ENDBRANCH   2   3
TORSDOF 10
ENDMDL
MODEL      103
REMARK 921   NORMALIZED FREE ENERGY PREDICTED BY IDOCK:   -4.23 KCAL/MOL
REMARK 922        TOTAL FREE ENERGY PREDICTED BY IDOCK:   -7.76 KCAL/MOL
REMARK 923 INTER-LIGAND FREE ENERGY PREDICTED BY IDOCK:   -7.00 KCAL/MOL
REMARK 924 INTRA-LIGAND FREE ENERGY PREDICTED BY IDOCK:   -0.77 KCAL/MOL
REMARK 927      BINDING AFFINITY PREDICTED BY RF-SCORE:    0.00 PKD
ROOT
HETATM    1  C   UNL     1      -9.921  10.327  67.545  1.00  0.00    -0.226 C  
HETATM    2  C   UNL     1     -10.303  11.693  66.992  1.00  0.00    -0.248 C  
ENDROOT
BRANCH   2   3
HETATM    3  C   UNL     1     -11.542  12.232  67.697  1.00  0.00    -0.354 C  
BRANCH   3   4
HETATM    4  O   UNL     1     -11.709  11.566  68.951  1.00  0.00    -0.285 OA 
BRANCH   4   5
HETATM    5  C   UNL     1     -12.223  12.312  69.984  1.00  0.00    -0.196 A  
HETATM    6  C   UNL     1     -12.177  13.715  70.017  1.00  0.00    -0.395 A  
HETATM    7  C   UNL     1     -12.673  14.448  71.101  1.00  0.00    -0.352 A  
HETATM    8  C   UNL     1     -13.348  13.772  72.112  1.00  0.00    -0.569 A  
HETATM    9  N   UNL     1     -12.686  15.845  71.053  1.00  0.00    -0.538 NA 
HETATM   10  H1  UNL     1     -13.048  16.379  71.843  1.00  0.00     0.000 HD 
HETATM   11  C   UNL     1     -13.417  12.381  72.102  1.00  0.00    -0.481 A  
HETATM   12  H2  UNL     1     -13.187  16.134  70.213  1.00  0.00     0.000 HD 
HETATM   13  C   UNL     1     -12.839  11.642  71.056  1.00  0.00    -0.339 A  
BRANCH  13  14
HETATM   14  C   UNL     1     -12.858  10.165  71.242  1.00  0.00    -0.410 C  
HETATM   15  O   UNL     1     -13.889   9.510  71.301  1.00  0.00    -0.294 OA 
BRANCH  14  16
HETATM   16  O   UNL     1     -11.624   9.736  71.599  1.00  0.00    -0.375 OA 
BRANCH  16  17
HETATM   17  C   UNL     1     -11.601   8.590  72.462  1.00  0.00    -0.306 C  
BRANCH  17  18
HETATM   18  C   UNL     1     -10.322   7.814  72.103  1.00  0.00    -0.224 C  
BRANCH  18  19
HETATM   19  N   UNL     1     -10.452   6.369  71.824  1.00  0.00    -0.211 NA 
BRANCH  19  20
HETATM   20  C   UNL     1     -11.309   6.194  70.637  1.00  0.00    -0.298 C  
HETATM   21  C   UNL     1     -10.561   5.793  69.373  1.00  0.00    -0.383 C  
ENDBRANCH  19  20
BRANCH  19  22
HETATM   22  C   UNL     1     -10.869   5.589  72.995  1.00  0.00    -0.274 C  
HETATM   23  C   UNL     1     -10.592   4.089  72.945  1.00  0.00    -0.237 C  
ENDBRANCH  19  22
ENDBRANCH  18  19
ENDBRANCH  17  18
ENDBRANCH  16  17
ENDBRANCH  14  16
ENDBRANCH  13  14
ENDBRANCH   4   5
ENDBRANCH   3   4
ENDBRANCH   2   3
TORSDOF 10
ENDMDL
MODEL      104
REMARK 921   NORMALIZED FREE ENERGY PREDICTED BY IDOCK:   -4.23 KCAL/MOL
REMARK 922        TOTAL FREE ENERGY PREDICTED BY IDOCK:   -7.76 KCAL/MOL
REMARK 923 INTER-LIGAND FREE ENERGY PREDICTED BY IDOCK:   -6.60 KCAL/MOL
REMARK 924 INTRA-LIGAND FREE ENERGY PREDICTED BY IDOCK:   -1.16 KCAL/MOL
REMARK 927      BINDING AFFINITY PREDICTED BY RF-SCORE:    0.00 PKD
ROOT
HETATM    1  C   UNL     1      -8.782   9.475  67.436  1.00  0.00    -0.128 C  
HETATM    2  C   UNL     1      -8.246   9.633  66.020  1.00  0.00    -0.119 C  
ENDROOT
BRANCH   2   3
HETATM    3  C   UNL     1      -9.077  10.644  65.240  1.00  0.00    -0.195 C  
BRANCH   3   4
HETATM    4  O   UNL     1      -9.250  11.829  66.020  1.00  0.00    -0.223 OA 
BRANCH   4   5
HETATM    5  C   UNL     1     -10.394  12.557  65.795  1.00  0.00    -0.265 A  
HETATM    6  C   UNL     1     -10.864  12.874  64.510  1.00  0.00    -0.385 A  
HETATM    7  C   UNL     1     -12.009  13.651  64.310  1.00  0.00    -0.445 A  
HETATM    8  C   UNL     1     -12.776  14.007  65.414  1.00  0.00    -0.499 A  
HETATM    9  N   UNL     1     -12.490  13.867  63.015  1.00  0.00    -1.009 NA 
HETATM   10  H1  UNL     1     -13.326  14.433  62.869  1.00  0.00     0.000 HD 
HETATM   11  C   UNL     1     -12.340  13.700  66.701  1.00  0.00    -0.381 A  
HETATM   12  H2  UNL     1     -12.632  12.962  62.568  1.00  0.00     0.000 HD 
HETATM   13  C   UNL     1     -11.141  12.996  66.903  1.00  0.00    -0.306 A  
BRANCH  13  14
HETATM   14  C   UNL     1     -10.720  12.861  68.324  1.00  0.00    -0.244 C  
HETATM   15  O   UNL     1     -10.917  11.852  68.988  1.00  0.00    -0.223 OA 
BRANCH  14  16
HETATM   16  O   UNL     1     -10.362  14.073  68.809  1.00  0.00    -0.240 OA 
BRANCH  16  17
HETATM   17  C   UNL     1      -8.968  14.392  68.692  1.00  0.00    -0.172 C  
BRANCH  17  18
HETATM   18  C   UNL     1      -8.903  15.887  68.332  1.00  0.00    -0.184 C  
BRANCH  18  19
HETATM   19  N   UNL     1      -9.816  16.378  67.280  1.00  0.00    -0.240 NA 
BRANCH  19  20
HETATM   20  C   UNL     1      -9.016  16.744  66.097  1.00  0.00    -0.260 C  
HETATM   21  C   UNL     1      -7.525  16.896  66.367  1.00  0.00    -0.323 C  
ENDBRANCH  19  20
BRANCH  19  22
HETATM   22  C   UNL     1     -10.725  17.431  67.748  1.00  0.00    -0.332 C  
HETATM   23  C   UNL     1     -10.080  18.756  68.145  1.00  0.00    -0.427 C  
ENDBRANCH  19  22
ENDBRANCH  18  19
ENDBRANCH  17  18
ENDBRANCH  16  17
ENDBRANCH  14  16
ENDBRANCH  13  14
ENDBRANCH   4   5
ENDBRANCH   3   4
ENDBRANCH   2   3
TORSDOF 10
ENDMDL
MODEL      105
REMARK 921   NORMALIZED FREE ENERGY PREDICTED BY IDOCK:   -4.22 KCAL/MOL
REMARK 922        TOTAL FREE ENERGY PREDICTED BY IDOCK:   -7.75 KCAL/MOL
REMARK 923 INTER-LIGAND FREE ENERGY PREDICTED BY IDOCK:   -6.55 KCAL/MOL
REMARK 924 INTRA-LIGAND FREE ENERGY PREDICTED BY IDOCK:   -1.19 KCAL/MOL
REMARK 927      BINDING AFFINITY PREDICTED BY RF-SCORE:    0.00 PKD
ROOT
HETATM    1  C   UNL     1     -12.806  15.449  72.310  1.00  0.00    -0.469 C  
HETATM    2  C   UNL     1     -12.948  14.734  70.973  1.00  0.00    -0.423 C  
ENDROOT
BRANCH   2   3
HETATM    3  C   UNL     1     -12.093  15.411  69.908  1.00  0.00    -0.355 C  
BRANCH   3   4
HETATM    4  O   UNL     1     -11.066  14.515  69.476  1.00  0.00    -0.255 OA 
BRANCH   4   5
HETATM    5  C   UNL     1     -10.976  14.283  68.124  1.00  0.00    -0.246 A  
HETATM    6  C   UNL     1     -12.094  14.237  67.275  1.00  0.00    -0.390 A  
HETATM    7  C   UNL     1     -11.977  13.959  65.909  1.00  0.00    -0.407 A  
HETATM    8  C   UNL     1     -10.705  13.856  65.355  1.00  0.00    -0.330 A  
HETATM    9  N   UNL     1     -13.106  14.011  65.086  1.00  0.00    -0.759 NA 
HETATM   10  H1  UNL     1     -13.020  13.808  64.090  1.00  0.00     0.000 HD 
HETATM   11  C   UNL     1      -9.578  13.905  66.171  1.00  0.00    -0.249 A  
HETATM   12  H2  UNL     1     -13.541  14.927  65.192  1.00  0.00     0.000 HD 
HETATM   13  C   UNL     1      -9.703  14.096  67.557  1.00  0.00    -0.234 A  
BRANCH  13  14
HETATM   14  C   UNL     1      -8.434  13.984  68.327  1.00  0.00    -0.171 C  
HETATM   15  O   UNL     1      -7.876  12.917  68.547  1.00  0.00    -0.134 OA 
BRANCH  14  16
HETATM   16  O   UNL     1      -8.174  15.158  68.947  1.00  0.00    -0.156 OA 
BRANCH  16  17
HETATM   17  C   UNL     1      -7.461  16.123  68.158  1.00  0.00    -0.132 C  
BRANCH  17  18
HETATM   18  C   UNL     1      -7.985  17.501  68.598  1.00  0.00    -0.268 C  
BRANCH  18  19
HETATM   19  N   UNL     1      -8.757  18.287  67.613  1.00  0.00    -0.254 NA 
BRANCH  19  20
HETATM   20  C   UNL     1      -8.687  19.711  67.990  1.00  0.00    -0.319 C  
HETATM   21  C   UNL     1      -7.568  20.488  67.309  1.00  0.00    -0.386 C  
ENDBRANCH  19  20
BRANCH  19  22
HETATM   22  C   UNL     1     -10.118  17.779  67.407  1.00  0.00    -0.338 C  
HETATM   23  C   UNL     1     -10.528  17.506  65.962  1.00  0.00    -0.274 C  
ENDBRANCH  19  22
ENDBRANCH  18  19
ENDBRANCH  17  18
ENDBRANCH  16  17
ENDBRANCH  14  16
ENDBRANCH  13  14
ENDBRANCH   4   5
ENDBRANCH   3   4
ENDBRANCH   2   3
TORSDOF 10
ENDMDL
MODEL      106
REMARK 921   NORMALIZED FREE ENERGY PREDICTED BY IDOCK:   -4.22 KCAL/MOL
REMARK 922        TOTAL FREE ENERGY PREDICTED BY IDOCK:   -7.74 KCAL/MOL
REMARK 923 INTER-LIGAND FREE ENERGY PREDICTED BY IDOCK:   -6.84 KCAL/MOL
REMARK 924 INTRA-LIGAND FREE ENERGY PREDICTED BY IDOCK:   -0.89 KCAL/MOL
REMARK 927      BINDING AFFINITY PREDICTED BY RF-SCORE:    0.00 PKD
ROOT
HETATM    1  C   UNL     1     -12.635  14.710  70.642  1.00  0.00    -0.419 C  
HETATM    2  C   UNL     1     -11.590  15.772  70.331  1.00  0.00    -0.376 C  
ENDROOT
BRANCH   2   3
HETATM    3  C   UNL     1     -11.309  15.830  68.834  1.00  0.00    -0.356 C  
BRANCH   3   4
HETATM    4  O   UNL     1     -10.984  14.523  68.356  1.00  0.00    -0.232 OA 
BRANCH   4   5
HETATM    5  C   UNL     1     -11.366  14.221  67.071  1.00  0.00    -0.341 A  
HETATM    6  C   UNL     1     -11.554  15.193  66.075  1.00  0.00    -0.080 A  
HETATM    7  C   UNL     1     -11.983  14.861  64.786  1.00  0.00    -0.361 A  
HETATM    8  C   UNL     1     -12.099  13.517  64.446  1.00  0.00    -0.468 A  
HETATM    9  N   UNL     1     -12.070  15.851  63.802  1.00  0.00    -1.230 NA 
HETATM   10  H1  UNL     1     -12.383  15.608  62.861  1.00  0.00     0.000 HD 
HETATM   11  C   UNL     1     -11.911  12.530  65.410  1.00  0.00    -0.492 A  
HETATM   12  H2  UNL     1     -11.166  16.316  63.731  1.00  0.00     0.000 HD 
HETATM   13  C   UNL     1     -11.568  12.872  66.728  1.00  0.00    -0.416 A  
BRANCH  13  14
HETATM   14  C   UNL     1     -11.540  11.735  67.689  1.00  0.00    -0.294 C  
HETATM   15  O   UNL     1     -12.397  11.560  68.544  1.00  0.00    -0.459 OA 
BRANCH  14  16
HETATM   16  O   UNL     1     -10.330  11.130  67.642  1.00  0.00    -0.182 OA 
BRANCH  16  17
HETATM   17  C   UNL     1     -10.364   9.694  67.637  1.00  0.00    -0.237 C  
BRANCH  17  18
HETATM   18  C   UNL     1      -9.976   9.266  66.211  1.00  0.00    -0.286 C  
BRANCH  18  19
HETATM   19  N   UNL     1      -8.795   8.393  66.054  1.00  0.00    -0.159 NA 
BRANCH  19  20
HETATM   20  C   UNL     1      -8.412   7.877  67.380  1.00  0.00    -0.122 C  
HETATM   21  C   UNL     1      -8.210   6.369  67.435  1.00  0.00    -0.116 C  
ENDBRANCH  19  20
BRANCH  19  22
HETATM   22  C   UNL     1      -7.700   9.030  65.311  1.00  0.00    -0.100 C  
HETATM   23  C   UNL     1      -7.455   8.516  63.895  1.00  0.00    -0.118 C  
ENDBRANCH  19  22
ENDBRANCH  18  19
ENDBRANCH  17  18
ENDBRANCH  16  17
ENDBRANCH  14  16
ENDBRANCH  13  14
ENDBRANCH   4   5
ENDBRANCH   3   4
ENDBRANCH   2   3
TORSDOF 10
ENDMDL
MODEL      107
REMARK 921   NORMALIZED FREE ENERGY PREDICTED BY IDOCK:   -4.21 KCAL/MOL
REMARK 922        TOTAL FREE ENERGY PREDICTED BY IDOCK:   -7.73 KCAL/MOL
REMARK 923 INTER-LIGAND FREE ENERGY PREDICTED BY IDOCK:   -6.88 KCAL/MOL
REMARK 924 INTRA-LIGAND FREE ENERGY PREDICTED BY IDOCK:   -0.85 KCAL/MOL
REMARK 927      BINDING AFFINITY PREDICTED BY RF-SCORE:    0.00 PKD
ROOT
HETATM    1  C   UNL     1     -12.985  10.715  71.729  1.00  0.00    -0.577 C  
HETATM    2  C   UNL     1     -12.187  11.626  70.807  1.00  0.00    -0.443 C  
ENDROOT
BRANCH   2   3
HETATM    3  C   UNL     1     -11.627  10.840  69.628  1.00  0.00    -0.316 C  
BRANCH   3   4
HETATM    4  O   UNL     1     -12.200  11.325  68.411  1.00  0.00    -0.604 OA 
BRANCH   4   5
HETATM    5  C   UNL     1     -11.510  11.060  67.253  1.00  0.00    -0.081 A  
HETATM    6  C   UNL     1     -10.796   9.870  67.038  1.00  0.00    -0.186 A  
HETATM    7  C   UNL     1     -10.069   9.643  65.865  1.00  0.00    -0.234 A  
HETATM    8  C   UNL     1     -10.166  10.567  64.829  1.00  0.00    -0.373 A  
HETATM    9  N   UNL     1      -9.446   8.408  65.656  1.00  0.00    -0.438 NA 
HETATM   10  H1  UNL     1      -8.916   8.243  64.800  1.00  0.00     0.000 HD 
HETATM   11  C   UNL     1     -10.874  11.752  65.010  1.00  0.00    -0.350 A  
HETATM   12  H2  UNL     1     -10.146   7.674  65.749  1.00  0.00     0.000 HD 
HETATM   13  C   UNL     1     -11.529  12.018  66.224  1.00  0.00    -0.408 A  
BRANCH  13  14
HETATM   14  C   UNL     1     -12.123  13.378  66.335  1.00  0.00    -0.409 C  
HETATM   15  O   UNL     1     -12.914  13.833  65.520  1.00  0.00    -0.651 OA 
BRANCH  14  16
HETATM   16  O   UNL     1     -11.460  14.088  67.278  1.00  0.00    -0.314 OA 
BRANCH  16  17
HETATM   17  C   UNL     1     -11.022  15.392  66.868  1.00  0.00    -0.294 C  
BRANCH  17  18
HETATM   18  C   UNL     1     -10.017  15.857  67.936  1.00  0.00    -0.221 C  
BRANCH  18  19
HETATM   19  N   UNL     1      -8.580  15.642  67.665  1.00  0.00    -0.164 NA 
BRANCH  19  20
HETATM   20  C   UNL     1      -8.064  14.652  68.628  1.00  0.00    -0.150 C  
HETATM   21  C   UNL     1      -7.942  13.238  68.074  1.00  0.00    -0.152 C  
ENDBRANCH  19  20
BRANCH  19  22
HETATM   22  C   UNL     1      -7.810  16.889  67.604  1.00  0.00    -0.173 C  
HETATM   23  C   UNL     1      -7.635  17.511  66.222  1.00  0.00    -0.343 C  
ENDBRANCH  19  22
ENDBRANCH  18  19
ENDBRANCH  17  18
ENDBRANCH  16  17
ENDBRANCH  14  16
ENDBRANCH  13  14
ENDBRANCH   4   5
ENDBRANCH   3   4
ENDBRANCH   2   3
TORSDOF 10
ENDMDL
MODEL      108
REMARK 921   NORMALIZED FREE ENERGY PREDICTED BY IDOCK:   -4.20 KCAL/MOL
REMARK 922        TOTAL FREE ENERGY PREDICTED BY IDOCK:   -7.72 KCAL/MOL
REMARK 923 INTER-LIGAND FREE ENERGY PREDICTED BY IDOCK:   -7.15 KCAL/MOL
REMARK 924 INTRA-LIGAND FREE ENERGY PREDICTED BY IDOCK:   -0.56 KCAL/MOL
REMARK 927      BINDING AFFINITY PREDICTED BY RF-SCORE:    0.00 PKD
ROOT
HETATM    1  C   UNL     1     -12.166  15.139  73.504  1.00  0.00    -0.598 C  
HETATM    2  C   UNL     1     -13.404  15.050  72.623  1.00  0.00    -0.556 C  
ENDROOT
BRANCH   2   3
HETATM    3  C   UNL     1     -13.187  14.059  71.486  1.00  0.00    -0.359 C  
BRANCH   3   4
HETATM    4  O   UNL     1     -12.158  14.540  70.619  1.00  0.00    -0.281 OA 
BRANCH   4   5
HETATM    5  C   UNL     1     -11.778  13.713  69.590  1.00  0.00    -0.320 A  
HETATM    6  C   UNL     1     -11.908  12.315  69.639  1.00  0.00    -0.393 A  
HETATM    7  C   UNL     1     -11.476  11.493  68.593  1.00  0.00    -0.293 A  
HETATM    8  C   UNL     1     -11.026  12.087  67.418  1.00  0.00    -0.311 A  
HETATM    9  N   UNL     1     -11.706  10.114  68.646  1.00  0.00    -0.607 NA 
HETATM   10  H1  UNL     1     -11.391   9.515  67.883  1.00  0.00     0.000 HD 
HETATM   11  C   UNL     1     -10.893  13.471  67.337  1.00  0.00    -0.279 A  
HETATM   12  H2  UNL     1     -12.704   9.959  68.787  1.00  0.00     0.000 HD 
HETATM   13  C   UNL     1     -11.244  14.289  68.423  1.00  0.00    -0.291 A  
BRANCH  13  14
HETATM   14  C   UNL     1     -10.918  15.732  68.258  1.00  0.00    -0.325 C  
HETATM   15  O   UNL     1     -11.768  16.612  68.227  1.00  0.00    -0.024 OA 
BRANCH  14  16
HETATM   16  O   UNL     1      -9.625  15.866  67.883  1.00  0.00    -0.213 OA 
BRANCH  16  17
HETATM   17  C   UNL     1      -9.419  16.503  66.613  1.00  0.00    -0.258 C  
BRANCH  17  18
HETATM   18  C   UNL     1      -8.141  17.346  66.764  1.00  0.00    -0.250 C  
BRANCH  18  19
HETATM   19  N   UNL     1      -8.281  18.710  67.315  1.00  0.00    -0.250 NA 
BRANCH  19  20
HETATM   20  C   UNL     1      -8.885  19.573  66.284  1.00  0.00    -0.361 C  
HETATM   21  C   UNL     1     -10.294  20.052  66.610  1.00  0.00    -0.565 C  
ENDBRANCH  19  20
BRANCH  19  22
HETATM   22  C   UNL     1      -7.036  19.232  67.891  1.00  0.00    -0.243 C  
HETATM   23  C   UNL     1      -6.736  20.706  67.634  1.00  0.00    -0.375 C  
ENDBRANCH  19  22
ENDBRANCH  18  19
ENDBRANCH  17  18
ENDBRANCH  16  17
ENDBRANCH  14  16
ENDBRANCH  13  14
ENDBRANCH   4   5
ENDBRANCH   3   4
ENDBRANCH   2   3
TORSDOF 10
ENDMDL
MODEL      109
REMARK 921   NORMALIZED FREE ENERGY PREDICTED BY IDOCK:   -4.19 KCAL/MOL
REMARK 922        TOTAL FREE ENERGY PREDICTED BY IDOCK:   -7.69 KCAL/MOL
REMARK 923 INTER-LIGAND FREE ENERGY PREDICTED BY IDOCK:   -6.87 KCAL/MOL
REMARK 924 INTRA-LIGAND FREE ENERGY PREDICTED BY IDOCK:   -0.82 KCAL/MOL
REMARK 927      BINDING AFFINITY PREDICTED BY RF-SCORE:    0.00 PKD
ROOT
HETATM    1  C   UNL     1     -12.432  12.090  63.579  1.00  0.00    -0.654 C  
HETATM    2  C   UNL     1     -11.914  13.386  64.188  1.00  0.00    -0.505 C  
ENDROOT
BRANCH   2   3
HETATM    3  C   UNL     1     -12.764  13.797  65.383  1.00  0.00    -0.472 C  
BRANCH   3   4
HETATM    4  O   UNL     1     -12.242  13.201  66.572  1.00  0.00    -0.378 OA 
BRANCH   4   5
HETATM    5  C   UNL     1     -11.862  14.056  67.578  1.00  0.00    -0.407 A  
HETATM    6  C   UNL     1     -11.467  15.385  67.350  1.00  0.00    -0.197 A  
HETATM    7  C   UNL     1     -11.046  16.222  68.388  1.00  0.00    -0.362 A  
HETATM    8  C   UNL     1     -11.148  15.766  69.698  1.00  0.00    -0.307 A  
HETATM    9  N   UNL     1     -10.746  17.563  68.127  1.00  0.00    -0.368 NA 
HETATM   10  H1  UNL     1     -10.439  18.173  68.885  1.00  0.00     0.000 HD 
HETATM   11  C   UNL     1     -11.545  14.456  69.956  1.00  0.00    -0.334 A  
HETATM   12  H2  UNL     1     -11.552  17.992  67.674  1.00  0.00     0.000 HD 
HETATM   13  C   UNL     1     -11.881  13.588  68.904  1.00  0.00    -0.384 A  
BRANCH  13  14
HETATM   14  C   UNL     1     -12.146  12.180  69.307  1.00  0.00    -0.178 C  
HETATM   15  O   UNL     1     -12.271  11.829  70.473  1.00  0.00    -0.358 OA 
BRANCH  14  16
HETATM   16  O   UNL     1     -11.951  11.360  68.249  1.00  0.00    -0.566 OA 
BRANCH  16  17
HETATM   17  C   UNL     1     -11.131  10.210  68.508  1.00  0.00    -0.214 C  
BRANCH  17  18
HETATM   18  C   UNL     1     -10.185  10.083  67.300  1.00  0.00    -0.222 C  
BRANCH  18  19
HETATM   19  N   UNL     1      -9.438  11.289  66.886  1.00  0.00    -0.175 NA 
BRANCH  19  20
HETATM   20  C   UNL     1      -8.996  11.111  65.491  1.00  0.00    -0.166 C  
HETATM   21  C   UNL     1      -9.710   9.993  64.742  1.00  0.00    -0.363 C  
ENDBRANCH  19  20
BRANCH  19  22
HETATM   22  C   UNL     1      -8.367  11.655  67.820  1.00  0.00    -0.143 C  
HETATM   23  C   UNL     1      -8.436  13.059  68.413  1.00  0.00    -0.118 C  
ENDBRANCH  19  22
ENDBRANCH  18  19
ENDBRANCH  17  18
ENDBRANCH  16  17
ENDBRANCH  14  16
ENDBRANCH  13  14
ENDBRANCH   4   5
ENDBRANCH   3   4
ENDBRANCH   2   3
TORSDOF 10
ENDMDL
MODEL      110
REMARK 921   NORMALIZED FREE ENERGY PREDICTED BY IDOCK:   -4.19 KCAL/MOL
REMARK 922        TOTAL FREE ENERGY PREDICTED BY IDOCK:   -7.69 KCAL/MOL
REMARK 923 INTER-LIGAND FREE ENERGY PREDICTED BY IDOCK:   -6.71 KCAL/MOL
REMARK 924 INTRA-LIGAND FREE ENERGY PREDICTED BY IDOCK:   -0.98 KCAL/MOL
REMARK 927      BINDING AFFINITY PREDICTED BY RF-SCORE:    0.00 PKD
ROOT
HETATM    1  C   UNL     1      -6.688  11.331  67.980  1.00  0.00    -0.062 C  
HETATM    2  C   UNL     1      -6.927  12.743  68.495  1.00  0.00    -0.095 C  
ENDROOT
BRANCH   2   3
HETATM    3  C   UNL     1      -7.816  13.523  67.535  1.00  0.00    -0.178 C  
BRANCH   3   4
HETATM    4  O   UNL     1      -9.179  13.423  67.954  1.00  0.00    -0.198 OA 
BRANCH   4   5
HETATM    5  C   UNL     1     -10.135  13.479  66.969  1.00  0.00    -0.244 A  
HETATM    6  C   UNL     1      -9.899  13.078  65.643  1.00  0.00    -0.181 A  
HETATM    7  C   UNL     1     -10.879  13.182  64.651  1.00  0.00    -0.366 A  
HETATM    8  C   UNL     1     -12.163  13.570  65.018  1.00  0.00    -0.453 A  
HETATM    9  N   UNL     1     -10.628  12.689  63.366  1.00  0.00    -0.480 NA 
HETATM   10  H1  UNL     1     -11.343  12.765  62.643  1.00  0.00     0.000 HD 
HETATM   11  C   UNL     1     -12.430  13.966  66.326  1.00  0.00    -0.454 A  
HETATM   12  H2  UNL     1     -10.352  11.711  63.444  1.00  0.00     0.000 HD 
HETATM   13  C   UNL     1     -11.420  13.945  67.302  1.00  0.00    -0.369 A  
BRANCH  13  14
HETATM   14  C   UNL     1     -11.800  14.528  68.618  1.00  0.00    -0.320 C  
HETATM   15  O   UNL     1     -12.410  13.904  69.476  1.00  0.00    -0.333 OA 
BRANCH  14  16
HETATM   16  O   UNL     1     -11.621  15.869  68.589  1.00  0.00    -0.382 OA 
BRANCH  16  17
HETATM   17  C   UNL     1     -10.548  16.360  69.407  1.00  0.00    -0.317 C  
BRANCH  17  18
HETATM   18  C   UNL     1      -9.586  17.090  68.452  1.00  0.00    -0.277 C  
BRANCH  18  19
HETATM   19  N   UNL     1      -9.548  18.565  68.513  1.00  0.00    -0.343 NA 
BRANCH  19  20
HETATM   20  C   UNL     1     -10.706  19.097  67.772  1.00  0.00    -0.367 C  
HETATM   21  C   UNL     1     -10.348  19.837  66.490  1.00  0.00    -0.621 C  
ENDBRANCH  19  20
BRANCH  19  22
HETATM   22  C   UNL     1      -8.255  19.127  68.105  1.00  0.00    -0.318 C  
HETATM   23  C   UNL     1      -7.145  19.103  69.151  1.00  0.00    -0.349 C  
ENDBRANCH  19  22
ENDBRANCH  18  19
ENDBRANCH  17  18
ENDBRANCH  16  17
ENDBRANCH  14  16
ENDBRANCH  13  14
ENDBRANCH   4   5
ENDBRANCH   3   4
ENDBRANCH   2   3
TORSDOF 10
ENDMDL
MODEL      111
REMARK 921   NORMALIZED FREE ENERGY PREDICTED BY IDOCK:   -4.15 KCAL/MOL
REMARK 922        TOTAL FREE ENERGY PREDICTED BY IDOCK:   -7.63 KCAL/MOL
REMARK 923 INTER-LIGAND FREE ENERGY PREDICTED BY IDOCK:   -6.99 KCAL/MOL
REMARK 924 INTRA-LIGAND FREE ENERGY PREDICTED BY IDOCK:   -0.64 KCAL/MOL
REMARK 927      BINDING AFFINITY PREDICTED BY RF-SCORE:    0.00 PKD
ROOT
HETATM    1  C   UNL     1      -9.065   5.280  70.973  1.00  0.00    -0.171 C  
HETATM    2  C   UNL     1     -10.162   5.139  69.927  1.00  0.00    -0.361 C  
ENDROOT
BRANCH   2   3
HETATM    3  C   UNL     1     -11.240   6.196  70.132  1.00  0.00    -0.382 C  
BRANCH   3   4
HETATM    4  O   UNL     1     -10.638   7.420  70.558  1.00  0.00    -0.216 OA 
BRANCH   4   5
HETATM    5  C   UNL     1     -11.486   8.406  71.001  1.00  0.00    -0.268 A  
HETATM    6  C   UNL     1     -12.471   8.191  71.979  1.00  0.00    -0.375 A  
HETATM    7  C   UNL     1     -13.348   9.204  72.383  1.00  0.00    -0.463 A  
HETATM    8  C   UNL     1     -13.150  10.492  71.898  1.00  0.00    -0.567 A  
HETATM    9  N   UNL     1     -14.255   8.970  73.422  1.00  0.00    -1.088 NA 
HETATM   10  H1  UNL     1     -14.893   9.708  73.717  1.00  0.00     0.000 HD 
HETATM   11  C   UNL     1     -12.176  10.738  70.934  1.00  0.00    -0.487 A  
HETATM   12  H2  UNL     1     -13.734   8.649  74.238  1.00  0.00     0.000 HD 
HETATM   13  C   UNL     1     -11.355   9.699  70.463  1.00  0.00    -0.360 A  
BRANCH  13  14
HETATM   14  C   UNL     1     -10.458  10.066  69.334  1.00  0.00    -0.232 C  
HETATM   15  O   UNL     1      -9.421  10.698  69.480  1.00  0.00    -0.146 OA 
BRANCH  14  16
HETATM   16  O   UNL     1     -11.093   9.844  68.159  1.00  0.00    -0.239 OA 
BRANCH  16  17
HETATM   17  C   UNL     1     -10.608  10.613  67.047  1.00  0.00    -0.262 C  
BRANCH  17  18
HETATM   18  C   UNL     1     -10.108   9.590  66.011  1.00  0.00    -0.249 C  
BRANCH  18  19
HETATM   19  N   UNL     1      -8.892   9.931  65.244  1.00  0.00    -0.168 NA 
BRANCH  19  20
HETATM   20  C   UNL     1      -8.011  10.748  66.097  1.00  0.00    -0.157 C  
HETATM   21  C   UNL     1      -6.541  10.354  66.044  1.00  0.00    -0.120 C  
ENDBRANCH  19  20
BRANCH  19  22
HETATM   22  C   UNL     1      -9.183  10.519  63.931  1.00  0.00    -0.256 C  
HETATM   23  C   UNL     1     -10.364  11.483  63.868  1.00  0.00    -0.422 C  
ENDBRANCH  19  22
ENDBRANCH  18  19
ENDBRANCH  17  18
ENDBRANCH  16  17
ENDBRANCH  14  16
ENDBRANCH  13  14
ENDBRANCH   4   5
ENDBRANCH   3   4
ENDBRANCH   2   3
TORSDOF 10
ENDMDL
MODEL      112
REMARK 921   NORMALIZED FREE ENERGY PREDICTED BY IDOCK:   -4.15 KCAL/MOL
REMARK 922        TOTAL FREE ENERGY PREDICTED BY IDOCK:   -7.63 KCAL/MOL
REMARK 923 INTER-LIGAND FREE ENERGY PREDICTED BY IDOCK:   -6.79 KCAL/MOL
REMARK 924 INTRA-LIGAND FREE ENERGY PREDICTED BY IDOCK:   -0.84 KCAL/MOL
REMARK 927      BINDING AFFINITY PREDICTED BY RF-SCORE:    0.00 PKD
ROOT
HETATM    1  C   UNL     1      -7.120  14.479  69.466  1.00  0.00    -0.125 C  
HETATM    2  C   UNL     1      -7.899  13.697  68.418  1.00  0.00    -0.140 C  
ENDROOT
BRANCH   2   3
HETATM    3  C   UNL     1      -8.996  14.561  67.808  1.00  0.00    -0.190 C  
BRANCH   3   4
HETATM    4  O   UNL     1     -10.237  13.852  67.834  1.00  0.00    -0.232 OA 
BRANCH   4   5
HETATM    5  C   UNL     1     -10.798  13.541  66.619  1.00  0.00    -0.283 A  
HETATM    6  C   UNL     1     -11.304  14.508  65.735  1.00  0.00    -0.336 A  
HETATM    7  C   UNL     1     -11.907  14.160  64.521  1.00  0.00    -0.436 A  
HETATM    8  C   UNL     1     -11.884  12.828  64.122  1.00  0.00    -0.482 A  
HETATM    9  N   UNL     1     -12.317  15.159  63.633  1.00  0.00    -0.920 NA 
HETATM   10  H1  UNL     1     -12.756  14.905  62.748  1.00  0.00     0.000 HD 
HETATM   11  C   UNL     1     -11.382  11.847  64.973  1.00  0.00    -0.333 A  
HETATM   12  H2  UNL     1     -11.519  15.762  63.435  1.00  0.00     0.000 HD 
HETATM   13  C   UNL     1     -10.858  12.190  66.231  1.00  0.00    -0.317 A  
BRANCH  13  14
HETATM   14  C   UNL     1     -10.490  11.037  67.097  1.00  0.00    -0.232 C  
HETATM   15  O   UNL     1      -9.472  10.377  66.937  1.00  0.00    -0.163 OA 
BRANCH  14  16
HETATM   16  O   UNL     1     -11.549  10.688  67.864  1.00  0.00    -0.491 OA 
BRANCH  16  17
HETATM   17  C   UNL     1     -11.316  10.720  69.280  1.00  0.00    -0.286 C  
BRANCH  17  18
HETATM   18  C   UNL     1     -11.136   9.254  69.713  1.00  0.00    -0.150 C  
BRANCH  18  19
HETATM   19  N   UNL     1     -11.334   8.932  71.142  1.00  0.00    -0.272 NA 
BRANCH  19  20
HETATM   20  C   UNL     1     -12.454   9.742  71.655  1.00  0.00    -0.410 C  
HETATM   21  C   UNL     1     -13.762   8.979  71.812  1.00  0.00    -0.474 C  
ENDBRANCH  19  20
BRANCH  19  22
HETATM   22  C   UNL     1     -10.101   9.029  71.932  1.00  0.00    -0.253 C  
HETATM   23  C   UNL     1      -8.805   8.663  71.214  1.00  0.00    -0.263 C  
ENDBRANCH  19  22
ENDBRANCH  18  19
ENDBRANCH  17  18
ENDBRANCH  16  17
ENDBRANCH  14  16
ENDBRANCH  13  14
ENDBRANCH   4   5
ENDBRANCH   3   4
ENDBRANCH   2   3
TORSDOF 10
ENDMDL
MODEL      113
REMARK 921   NORMALIZED FREE ENERGY PREDICTED BY IDOCK:   -4.15 KCAL/MOL
REMARK 922        TOTAL FREE ENERGY PREDICTED BY IDOCK:   -7.63 KCAL/MOL
REMARK 923 INTER-LIGAND FREE ENERGY PREDICTED BY IDOCK:   -6.58 KCAL/MOL
REMARK 924 INTRA-LIGAND FREE ENERGY PREDICTED BY IDOCK:   -1.05 KCAL/MOL
REMARK 927      BINDING AFFINITY PREDICTED BY RF-SCORE:    0.00 PKD
ROOT
HETATM    1  C   UNL     1     -12.726  11.889  63.625  1.00  0.00    -0.509 C  
HETATM    2  C   UNL     1     -11.653  12.968  63.683  1.00  0.00    -0.507 C  
ENDROOT
BRANCH   2   3
HETATM    3  C   UNL     1     -12.241  14.285  64.176  1.00  0.00    -0.378 C  
BRANCH   3   4
HETATM    4  O   UNL     1     -12.328  14.269  65.602  1.00  0.00    -0.419 OA 
BRANCH   4   5
HETATM    5  C   UNL     1     -11.282  14.833  66.293  1.00  0.00    -0.343 A  
HETATM    6  C   UNL     1     -10.321  15.662  65.691  1.00  0.00    -0.408 A  
HETATM    7  C   UNL     1      -9.244  16.192  66.410  1.00  0.00    -0.300 A  
HETATM    8  C   UNL     1      -9.199  15.998  67.786  1.00  0.00    -0.205 A  
HETATM    9  N   UNL     1      -8.362  17.083  65.791  1.00  0.00    -0.435 NA 
HETATM   10  H1  UNL     1      -7.577  17.469  66.315  1.00  0.00     0.000 HD 
HETATM   11  C   UNL     1     -10.143  15.187  68.412  1.00  0.00    -0.225 A  
HETATM   12  H2  UNL     1      -8.903  17.856  65.404  1.00  0.00     0.000 HD 
HETATM   13  C   UNL     1     -11.173  14.583  67.673  1.00  0.00    -0.335 A  
BRANCH  13  14
HETATM   14  C   UNL     1     -12.023  13.629  68.436  1.00  0.00    -0.356 C  
HETATM   15  O   UNL     1     -12.523  13.897  69.520  1.00  0.00    -0.286 OA 
BRANCH  14  16
HETATM   16  O   UNL     1     -11.918  12.393  67.895  1.00  0.00    -0.404 OA 
BRANCH  16  17
HETATM   17  C   UNL     1     -11.455  11.371  68.790  1.00  0.00    -0.290 C  
BRANCH  17  18
HETATM   18  C   UNL     1     -10.802  10.295  67.904  1.00  0.00    -0.284 C  
BRANCH  18  19
HETATM   19  N   UNL     1      -9.332  10.164  67.956  1.00  0.00    -0.141 NA 
BRANCH  19  20
HETATM   20  C   UNL     1      -8.782  11.321  68.685  1.00  0.00    -0.136 C  
HETATM   21  C   UNL     1      -7.632  12.024  67.976  1.00  0.00    -0.120 C  
ENDBRANCH  19  20
BRANCH  19  22
HETATM   22  C   UNL     1      -8.725   9.930  66.640  1.00  0.00    -0.128 C  
HETATM   23  C   UNL     1      -9.668   9.977  65.441  1.00  0.00    -0.368 C  
ENDBRANCH  19  22
ENDBRANCH  18  19
ENDBRANCH  17  18
ENDBRANCH  16  17
ENDBRANCH  14  16
ENDBRANCH  13  14
ENDBRANCH   4   5
ENDBRANCH   3   4
ENDBRANCH   2   3
TORSDOF 10
ENDMDL
MODEL      114
REMARK 921   NORMALIZED FREE ENERGY PREDICTED BY IDOCK:   -4.14 KCAL/MOL
REMARK 922        TOTAL FREE ENERGY PREDICTED BY IDOCK:   -7.62 KCAL/MOL
REMARK 923 INTER-LIGAND FREE ENERGY PREDICTED BY IDOCK:   -6.40 KCAL/MOL
REMARK 924 INTRA-LIGAND FREE ENERGY PREDICTED BY IDOCK:   -1.22 KCAL/MOL
REMARK 927      BINDING AFFINITY PREDICTED BY RF-SCORE:    0.00 PKD
ROOT
HETATM    1  C   UNL     1     -11.253  10.940  67.424  1.00  0.00    -0.345 C  
HETATM    2  C   UNL     1     -11.531  11.914  66.288  1.00  0.00    -0.367 C  
ENDROOT
BRANCH   2   3
HETATM    3  C   UNL     1     -10.288  12.735  65.967  1.00  0.00    -0.276 C  
BRANCH   3   4
HETATM    4  O   UNL     1     -10.593  14.128  66.066  1.00  0.00    -0.286 OA 
BRANCH   4   5
HETATM    5  C   UNL     1     -10.581  14.677  67.326  1.00  0.00    -0.284 A  
HETATM    6  C   UNL     1     -11.749  14.960  68.053  1.00  0.00    -0.344 A  
HETATM    7  C   UNL     1     -11.709  15.556  69.318  1.00  0.00    -0.365 A  
HETATM    8  C   UNL     1     -10.473  15.750  69.926  1.00  0.00    -0.324 A  
HETATM    9  N   UNL     1     -12.891  15.739  70.042  1.00  0.00    -0.608 NA 
HETATM   10  H1  UNL     1     -12.861  16.173  70.965  1.00  0.00     0.000 HD 
HETATM   11  C   UNL     1      -9.297  15.471  69.233  1.00  0.00    -0.266 A  
HETATM   12  H2  UNL     1     -13.361  14.838  70.125  1.00  0.00     0.000 HD 
HETATM   13  C   UNL     1      -9.340  14.956  67.927  1.00  0.00    -0.191 A  
BRANCH  13  14
HETATM   14  C   UNL     1      -8.019  14.840  67.250  1.00  0.00    -0.205 C  
HETATM   15  O   UNL     1      -7.198  13.978  67.529  1.00  0.00    -0.172 OA 
BRANCH  14  16
HETATM   16  O   UNL     1      -7.782  15.956  66.522  1.00  0.00    -0.213 OA 
BRANCH  16  17
HETATM   17  C   UNL     1      -6.597  16.682  66.882  1.00  0.00    -0.207 C  
BRANCH  17  18
HETATM   18  C   UNL     1      -7.082  18.020  67.467  1.00  0.00    -0.193 C  
BRANCH  18  19
HETATM   19  N   UNL     1      -8.349  18.576  66.949  1.00  0.00    -0.256 NA 
BRANCH  19  20
HETATM   20  C   UNL     1      -8.041  19.755  66.119  1.00  0.00    -0.342 C  
HETATM   21  C   UNL     1      -6.869  20.589  66.621  1.00  0.00    -0.316 C  
ENDBRANCH  19  20
BRANCH  19  22
HETATM   22  C   UNL     1      -9.347  18.815  67.997  1.00  0.00    -0.306 C  
HETATM   23  C   UNL     1     -10.780  19.052  67.528  1.00  0.00    -0.532 C  
ENDBRANCH  19  22
ENDBRANCH  18  19
ENDBRANCH  17  18
ENDBRANCH  16  17
ENDBRANCH  14  16
ENDBRANCH  13  14
ENDBRANCH   4   5
ENDBRANCH   3   4
ENDBRANCH   2   3
TORSDOF 10
ENDMDL
MODEL      115
REMARK 921   NORMALIZED FREE ENERGY PREDICTED BY IDOCK:   -4.14 KCAL/MOL
REMARK 922        TOTAL FREE ENERGY PREDICTED BY IDOCK:   -7.62 KCAL/MOL
REMARK 923 INTER-LIGAND FREE ENERGY PREDICTED BY IDOCK:   -7.07 KCAL/MOL
REMARK 924 INTRA-LIGAND FREE ENERGY PREDICTED BY IDOCK:   -0.55 KCAL/MOL
REMARK 927      BINDING AFFINITY PREDICTED BY RF-SCORE:    0.00 PKD
ROOT
HETATM    1  C   UNL     1      -9.881  20.181  67.421  1.00  0.00    -0.573 C  
HETATM    2  C   UNL     1     -10.828  18.990  67.436  1.00  0.00    -0.496 C  
ENDROOT
BRANCH   2   3
HETATM    3  C   UNL     1     -10.176  17.792  68.115  1.00  0.00    -0.382 C  
BRANCH   3   4
HETATM    4  O   UNL     1     -10.841  16.592  67.715  1.00  0.00    -0.341 OA 
BRANCH   4   5
HETATM    5  C   UNL     1     -11.291  15.769  68.719  1.00  0.00    -0.362 A  
HETATM    6  C   UNL     1     -11.214  16.104  70.081  1.00  0.00    -0.374 A  
HETATM    7  C   UNL     1     -11.644  15.230  71.085  1.00  0.00    -0.370 A  
HETATM    8  C   UNL     1     -12.286  14.053  70.717  1.00  0.00    -0.443 A  
HETATM    9  N   UNL     1     -11.630  15.640  72.422  1.00  0.00    -0.440 NA 
HETATM   10  H1  UNL     1     -11.944  15.003  73.154  1.00  0.00     0.000 HD 
HETATM   11  C   UNL     1     -12.385  13.697  69.374  1.00  0.00    -0.199 A  
HETATM   12  H2  UNL     1     -12.162  16.506  72.499  1.00  0.00     0.000 HD 
HETATM   13  C   UNL     1     -11.872  14.536  68.371  1.00  0.00    -0.351 A  
BRANCH  13  14
HETATM   14  C   UNL     1     -11.913  13.972  66.994  1.00  0.00    -0.438 C  
HETATM   15  O   UNL     1     -11.955  14.666  65.987  1.00  0.00    -0.337 OA 
BRANCH  14  16
HETATM   16  O   UNL     1     -12.171  12.645  67.054  1.00  0.00    -0.466 OA 
BRANCH  16  17
HETATM   17  C   UNL     1     -11.220  11.805  66.381  1.00  0.00    -0.323 C  
BRANCH  17  18
HETATM   18  C   UNL     1     -11.078  10.544  67.251  1.00  0.00    -0.213 C  
BRANCH  18  19
HETATM   19  N   UNL     1      -9.789  10.328  67.940  1.00  0.00    -0.155 NA 
BRANCH  19  20
HETATM   20  C   UNL     1      -9.950   9.224  68.903  1.00  0.00    -0.181 C  
HETATM   21  C   UNL     1      -9.323   9.481  70.266  1.00  0.00    -0.305 C  
ENDBRANCH  19  20
BRANCH  19  22
HETATM   22  C   UNL     1      -9.227  11.557  68.513  1.00  0.00    -0.167 C  
HETATM   23  C   UNL     1      -8.074  12.196  67.745  1.00  0.00    -0.152 C  
ENDBRANCH  19  22
ENDBRANCH  18  19
ENDBRANCH  17  18
ENDBRANCH  16  17
ENDBRANCH  14  16
ENDBRANCH  13  14
ENDBRANCH   4   5
ENDBRANCH   3   4
ENDBRANCH   2   3
TORSDOF 10
ENDMDL
MODEL      116
REMARK 921   NORMALIZED FREE ENERGY PREDICTED BY IDOCK:   -4.12 KCAL/MOL
REMARK 922        TOTAL FREE ENERGY PREDICTED BY IDOCK:   -7.59 KCAL/MOL
REMARK 923 INTER-LIGAND FREE ENERGY PREDICTED BY IDOCK:   -6.46 KCAL/MOL
REMARK 924 INTRA-LIGAND FREE ENERGY PREDICTED BY IDOCK:   -1.13 KCAL/MOL
REMARK 927      BINDING AFFINITY PREDICTED BY RF-SCORE:    0.00 PKD
ROOT
HETATM    1  C   UNL     1     -12.094  15.681  70.859  1.00  0.00    -0.452 C  
HETATM    2  C   UNL     1     -12.223  14.292  70.249  1.00  0.00    -0.407 C  
ENDROOT
BRANCH   2   3
HETATM    3  C   UNL     1     -11.889  14.322  68.763  1.00  0.00    -0.341 C  
BRANCH   3   4
HETATM    4  O   UNL     1     -10.677  13.601  68.528  1.00  0.00    -0.243 OA 
BRANCH   4   5
HETATM    5  C   UNL     1     -10.631  12.819  67.400  1.00  0.00    -0.229 A  
HETATM    6  C   UNL     1     -10.387  13.334  66.116  1.00  0.00    -0.290 A  
HETATM    7  C   UNL     1     -10.386  12.519  64.979  1.00  0.00    -0.299 A  
HETATM    8  C   UNL     1     -10.497  11.143  65.142  1.00  0.00    -0.341 A  
HETATM    9  N   UNL     1     -10.051  13.060  63.733  1.00  0.00    -0.744 NA 
HETATM   10  H1  UNL     1     -10.050  12.465  62.904  1.00  0.00     0.000 HD 
HETATM   11  C   UNL     1     -10.732  10.602  66.404  1.00  0.00    -0.198 A  
HETATM   12  H2  UNL     1      -9.139  13.508  63.810  1.00  0.00     0.000 HD 
HETATM   13  C   UNL     1     -10.822  11.432  67.534  1.00  0.00    -0.291 A  
BRANCH  13  14
HETATM   14  C   UNL     1     -11.218  10.743  68.793  1.00  0.00    -0.272 C  
HETATM   15  O   UNL     1     -12.367  10.725  69.214  1.00  0.00    -0.368 OA 
BRANCH  14  16
HETATM   16  O   UNL     1     -10.111  10.407  69.495  1.00  0.00    -0.229 OA 
BRANCH  16  17
HETATM   17  C   UNL     1     -10.324   9.475  70.565  1.00  0.00    -0.288 C  
BRANCH  17  18
HETATM   18  C   UNL     1      -9.720   8.141  70.092  1.00  0.00    -0.175 C  
BRANCH  18  19
HETATM   19  N   UNL     1     -10.625   6.979  69.982  1.00  0.00    -0.223 NA 
BRANCH  19  20
HETATM   20  C   UNL     1     -10.949   6.768  68.559  1.00  0.00    -0.192 C  
HETATM   21  C   UNL     1      -9.855   7.204  67.594  1.00  0.00    -0.183 C  
ENDBRANCH  19  20
BRANCH  19  22
HETATM   22  C   UNL     1     -11.795   7.072  70.864  1.00  0.00    -0.356 C  
HETATM   23  C   UNL     1     -11.799   6.154  72.083  1.00  0.00    -0.339 C  
ENDBRANCH  19  22
ENDBRANCH  18  19
ENDBRANCH  17  18
ENDBRANCH  16  17
ENDBRANCH  14  16
ENDBRANCH  13  14
ENDBRANCH   4   5
ENDBRANCH   3   4
ENDBRANCH   2   3
TORSDOF 10
ENDMDL
MODEL      117
REMARK 921   NORMALIZED FREE ENERGY PREDICTED BY IDOCK:   -4.09 KCAL/MOL
REMARK 922        TOTAL FREE ENERGY PREDICTED BY IDOCK:   -7.54 KCAL/MOL
REMARK 923 INTER-LIGAND FREE ENERGY PREDICTED BY IDOCK:   -6.90 KCAL/MOL
REMARK 924 INTRA-LIGAND FREE ENERGY PREDICTED BY IDOCK:   -0.64 KCAL/MOL
REMARK 927      BINDING AFFINITY PREDICTED BY RF-SCORE:    0.00 PKD
ROOT
HETATM    1  C   UNL     1     -12.517  11.952  63.417  1.00  0.00    -0.582 C  
HETATM    2  C   UNL     1     -11.135  11.477  63.843  1.00  0.00    -0.458 C  
ENDROOT
BRANCH   2   3
HETATM    3  C   UNL     1     -10.893  11.778  65.317  1.00  0.00    -0.290 C  
BRANCH   3   4
HETATM    4  O   UNL     1      -9.712  12.571  65.457  1.00  0.00    -0.220 OA 
BRANCH   4   5
HETATM    5  C   UNL     1      -9.890  13.924  65.618  1.00  0.00    -0.205 A  
HETATM    6  C   UNL     1     -10.671  14.705  64.750  1.00  0.00    -0.399 A  
HETATM    7  C   UNL     1     -10.803  16.088  64.913  1.00  0.00    -0.372 A  
HETATM    8  C   UNL     1     -10.252  16.683  66.044  1.00  0.00    -0.366 A  
HETATM    9  N   UNL     1     -11.660  16.812  64.079  1.00  0.00    -1.336 NA 
HETATM   10  H1  UNL     1     -11.757  17.821  64.199  1.00  0.00     0.000 HD 
HETATM   11  C   UNL     1      -9.479  15.933  66.926  1.00  0.00    -0.242 A  
HETATM   12  H2  UNL     1     -12.588  16.392  64.128  1.00  0.00     0.000 HD 
HETATM   13  C   UNL     1      -9.274  14.560  66.711  1.00  0.00    -0.286 A  
BRANCH  13  14
HETATM   14  C   UNL     1      -8.314  13.911  67.644  1.00  0.00    -0.181 C  
HETATM   15  O   UNL     1      -7.104  14.087  67.592  1.00  0.00    -0.158 OA 
BRANCH  14  16
HETATM   16  O   UNL     1      -8.943  12.930  68.333  1.00  0.00    -0.187 OA 
BRANCH  16  17
HETATM   17  C   UNL     1      -8.240  11.680  68.398  1.00  0.00    -0.155 C  
BRANCH  17  18
HETATM   18  C   UNL     1      -9.187  10.697  69.109  1.00  0.00    -0.148 C  
BRANCH  18  19
HETATM   19  N   UNL     1     -10.466  10.374  68.443  1.00  0.00    -0.178 NA 
BRANCH  19  20
HETATM   20  C   UNL     1     -11.572  10.744  69.345  1.00  0.00    -0.308 C  
HETATM   21  C   UNL     1     -11.895  12.232  69.367  1.00  0.00    -0.370 C  
ENDBRANCH  19  20
BRANCH  19  22
HETATM   22  C   UNL     1     -10.524   8.995  67.943  1.00  0.00    -0.234 C  
HETATM   23  C   UNL     1      -9.432   8.584  66.959  1.00  0.00    -0.223 C  
ENDBRANCH  19  22
ENDBRANCH  18  19
ENDBRANCH  17  18
ENDBRANCH  16  17
ENDBRANCH  14  16
ENDBRANCH  13  14
ENDBRANCH   4   5
ENDBRANCH   3   4
ENDBRANCH   2   3
TORSDOF 10
ENDMDL
MODEL      118
REMARK 921   NORMALIZED FREE ENERGY PREDICTED BY IDOCK:   -4.09 KCAL/MOL
REMARK 922        TOTAL FREE ENERGY PREDICTED BY IDOCK:   -7.54 KCAL/MOL
REMARK 923 INTER-LIGAND FREE ENERGY PREDICTED BY IDOCK:   -6.96 KCAL/MOL
REMARK 924 INTRA-LIGAND FREE ENERGY PREDICTED BY IDOCK:   -0.58 KCAL/MOL
REMARK 927      BINDING AFFINITY PREDICTED BY RF-SCORE:    0.00 PKD
ROOT
HETATM    1  C   UNL     1     -10.895  12.302  63.731  1.00  0.00    -0.495 C  
HETATM    2  C   UNL     1     -12.329  12.298  64.242  1.00  0.00    -0.519 C  
ENDROOT
BRANCH   2   3
HETATM    3  C   UNL     1     -12.475  13.225  65.442  1.00  0.00    -0.489 C  
BRANCH   3   4
HETATM    4  O   UNL     1     -11.322  13.113  66.279  1.00  0.00    -0.298 OA 
BRANCH   4   5
HETATM    5  C   UNL     1     -11.546  12.864  67.612  1.00  0.00    -0.355 A  
HETATM    6  C   UNL     1     -11.875  11.594  68.112  1.00  0.00    -0.315 A  
HETATM    7  C   UNL     1     -12.137  11.376  69.469  1.00  0.00    -0.302 A  
HETATM    8  C   UNL     1     -11.935  12.421  70.364  1.00  0.00    -0.342 A  
HETATM    9  N   UNL     1     -12.374  10.079  69.936  1.00  0.00    -0.489 NA 
HETATM   10  H1  UNL     1     -12.564   9.921  70.925  1.00  0.00     0.000 HD 
HETATM   11  C   UNL     1     -11.601  13.690  69.899  1.00  0.00    -0.281 A  
HETATM   12  H2  UNL     1     -11.590   9.489  69.660  1.00  0.00     0.000 HD 
HETATM   13  C   UNL     1     -11.426  13.927  68.525  1.00  0.00    -0.346 A  
BRANCH  13  14
HETATM   14  C   UNL     1     -11.214  15.352  68.152  1.00  0.00    -0.325 C  
HETATM   15  O   UNL     1     -12.042  16.229  68.357  1.00  0.00     0.050 OA 
BRANCH  14  16
HETATM   16  O   UNL     1     -10.137  15.454  67.339  1.00  0.00    -0.230 OA 
BRANCH  16  17
HETATM   17  C   UNL     1      -8.901  15.775  67.996  1.00  0.00    -0.176 C  
BRANCH  17  18
HETATM   18  C   UNL     1      -9.020  17.248  68.425  1.00  0.00    -0.269 C  
BRANCH  18  19
HETATM   19  N   UNL     1      -8.247  18.248  67.661  1.00  0.00    -0.247 NA 
BRANCH  19  20
HETATM   20  C   UNL     1      -7.614  19.180  68.612  1.00  0.00    -0.346 C  
HETATM   21  C   UNL     1      -6.802  20.291  67.960  1.00  0.00    -0.335 C  
ENDBRANCH  19  20
BRANCH  19  22
HETATM   22  C   UNL     1      -9.029  18.898  66.603  1.00  0.00    -0.323 C  
HETATM   23  C   UNL     1     -10.500  19.160  66.911  1.00  0.00    -0.527 C  
ENDBRANCH  19  22
ENDBRANCH  18  19
ENDBRANCH  17  18
ENDBRANCH  16  17
ENDBRANCH  14  16
ENDBRANCH  13  14
ENDBRANCH   4   5
ENDBRANCH   3   4
ENDBRANCH   2   3
TORSDOF 10
ENDMDL
MODEL      119
REMARK 921   NORMALIZED FREE ENERGY PREDICTED BY IDOCK:   -4.08 KCAL/MOL
REMARK 922        TOTAL FREE ENERGY PREDICTED BY IDOCK:   -7.52 KCAL/MOL
REMARK 923 INTER-LIGAND FREE ENERGY PREDICTED BY IDOCK:   -6.80 KCAL/MOL
REMARK 924 INTRA-LIGAND FREE ENERGY PREDICTED BY IDOCK:   -0.71 KCAL/MOL
REMARK 927      BINDING AFFINITY PREDICTED BY RF-SCORE:    0.00 PKD
ROOT
HETATM    1  C   UNL     1      -7.207   9.661  64.647  1.00  0.00    -0.123 C  
HETATM    2  C   UNL     1      -7.997  10.163  63.446  1.00  0.00    -0.160 C  
ENDROOT
BRANCH   2   3
HETATM    3  C   UNL     1      -9.491  10.151  63.742  1.00  0.00    -0.275 C  
BRANCH   3   4
HETATM    4  O   UNL     1      -9.722  10.617  65.073  1.00  0.00    -0.232 OA 
BRANCH   4   5
HETATM    5  C   UNL     1     -10.584  11.677  65.218  1.00  0.00    -0.281 A  
HETATM    6  C   UNL     1     -11.178  12.339  64.131  1.00  0.00    -0.430 A  
HETATM    7  C   UNL     1     -12.021  13.442  64.306  1.00  0.00    -0.430 A  
HETATM    8  C   UNL     1     -12.384  13.808  65.598  1.00  0.00    -0.517 A  
HETATM    9  N   UNL     1     -12.661  14.015  63.202  1.00  0.00    -0.956 NA 
HETATM   10  H1  UNL     1     -13.276  14.818  63.330  1.00  0.00     0.000 HD 
HETATM   11  C   UNL     1     -11.817  13.164  66.696  1.00  0.00    -0.449 A  
HETATM   12  H2  UNL     1     -13.181  13.285  62.716  1.00  0.00     0.000 HD 
HETATM   13  C   UNL     1     -10.901  12.115  66.517  1.00  0.00    -0.307 A  
BRANCH  13  14
HETATM   14  C   UNL     1     -10.263  11.614  67.765  1.00  0.00    -0.186 C  
HETATM   15  O   UNL     1      -9.090  11.816  68.046  1.00  0.00    -0.166 OA 
BRANCH  14  16
HETATM   16  O   UNL     1     -11.077  10.709  68.359  1.00  0.00    -0.233 OA 
BRANCH  16  17
HETATM   17  C   UNL     1     -10.419   9.544  68.879  1.00  0.00    -0.216 C  
BRANCH  17  18
HETATM   18  C   UNL     1     -10.869   9.423  70.346  1.00  0.00    -0.269 C  
BRANCH  18  19
HETATM   19  N   UNL     1     -10.507   8.189  71.074  1.00  0.00    -0.199 NA 
BRANCH  19  20
HETATM   20  C   UNL     1     -11.586   7.202  70.892  1.00  0.00    -0.311 C  
HETATM   21  C   UNL     1     -11.270   6.101  69.889  1.00  0.00    -0.484 C  
ENDBRANCH  19  20
BRANCH  19  22
HETATM   22  C   UNL     1     -10.134   8.432  72.473  1.00  0.00    -0.292 C  
HETATM   23  C   UNL     1      -8.664   8.230  72.828  1.00  0.00    -0.288 C  
ENDBRANCH  19  22
ENDBRANCH  18  19
ENDBRANCH  17  18
ENDBRANCH  16  17
ENDBRANCH  14  16
ENDBRANCH  13  14
ENDBRANCH   4   5
ENDBRANCH   3   4
ENDBRANCH   2   3
TORSDOF 10
ENDMDL
MODEL      120
REMARK 921   NORMALIZED FREE ENERGY PREDICTED BY IDOCK:   -4.07 KCAL/MOL
REMARK 922        TOTAL FREE ENERGY PREDICTED BY IDOCK:   -7.51 KCAL/MOL
REMARK 923 INTER-LIGAND FREE ENERGY PREDICTED BY IDOCK:   -6.23 KCAL/MOL
REMARK 924 INTRA-LIGAND FREE ENERGY PREDICTED BY IDOCK:   -1.27 KCAL/MOL
REMARK 927      BINDING AFFINITY PREDICTED BY RF-SCORE:    0.00 PKD
ROOT
HETATM    1  C   UNL     1     -12.736  11.942  63.556  1.00  0.00    -0.530 C  
HETATM    2  C   UNL     1     -11.787  13.131  63.491  1.00  0.00    -0.539 C  
ENDROOT
BRANCH   2   3
HETATM    3  C   UNL     1     -12.263  14.251  64.407  1.00  0.00    -0.447 C  
BRANCH   3   4
HETATM    4  O   UNL     1     -12.621  13.711  65.681  1.00  0.00    -0.479 OA 
BRANCH   4   5
HETATM    5  C   UNL     1     -11.797  14.016  66.737  1.00  0.00    -0.424 A  
HETATM    6  C   UNL     1     -11.608  15.324  67.212  1.00  0.00    -0.164 A  
HETATM    7  C   UNL     1     -10.731  15.611  68.264  1.00  0.00    -0.283 A  
HETATM    8  C   UNL     1     -10.132  14.555  68.942  1.00  0.00    -0.224 A  
HETATM    9  N   UNL     1     -10.640  16.915  68.763  1.00  0.00    -0.343 NA 
HETATM   10  H1  UNL     1     -10.001  17.124  69.530  1.00  0.00     0.000 HD 
HETATM   11  C   UNL     1     -10.307  13.246  68.498  1.00  0.00    -0.244 A  
HETATM   12  H2  UNL     1     -11.575  17.224  69.028  1.00  0.00     0.000 HD 
HETATM   13  C   UNL     1     -11.118  12.969  67.385  1.00  0.00    -0.302 A  
BRANCH  13  14
HETATM   14  C   UNL     1     -11.103  11.552  66.931  1.00  0.00    -0.307 C  
HETATM   15  O   UNL     1     -11.721  10.660  67.497  1.00  0.00    -0.445 OA 
BRANCH  14  16
HETATM   16  O   UNL     1     -10.122  11.378  66.015  1.00  0.00    -0.218 OA 
BRANCH  16  17
HETATM   17  C   UNL     1     -10.010  10.050  65.481  1.00  0.00    -0.296 C  
BRANCH  17  18
HETATM   18  C   UNL     1      -8.685   9.486  66.024  1.00  0.00    -0.147 C  
BRANCH  18  19
HETATM   19  N   UNL     1      -8.760   8.389  67.011  1.00  0.00    -0.124 NA 
BRANCH  19  20
HETATM   20  C   UNL     1      -9.771   7.417  66.558  1.00  0.00    -0.156 C  
HETATM   21  C   UNL     1     -10.786   7.022  67.623  1.00  0.00    -0.331 C  
ENDBRANCH  19  20
BRANCH  19  22
HETATM   22  C   UNL     1      -8.945   8.863  68.388  1.00  0.00    -0.134 C  
HETATM   23  C   UNL     1      -7.819   8.551  69.369  1.00  0.00    -0.098 C  
ENDBRANCH  19  22
ENDBRANCH  18  19
ENDBRANCH  17  18
ENDBRANCH  16  17
ENDBRANCH  14  16
ENDBRANCH  13  14
ENDBRANCH   4   5
ENDBRANCH   3   4
ENDBRANCH   2   3
TORSDOF 10
ENDMDL
MODEL      121
REMARK 921   NORMALIZED FREE ENERGY PREDICTED BY IDOCK:   -4.07 KCAL/MOL
REMARK 922        TOTAL FREE ENERGY PREDICTED BY IDOCK:   -7.50 KCAL/MOL
REMARK 923 INTER-LIGAND FREE ENERGY PREDICTED BY IDOCK:   -6.60 KCAL/MOL
REMARK 924 INTRA-LIGAND FREE ENERGY PREDICTED BY IDOCK:   -0.90 KCAL/MOL
REMARK 927      BINDING AFFINITY PREDICTED BY RF-SCORE:    0.00 PKD
ROOT
HETATM    1  C   UNL     1     -13.146  11.376  71.854  1.00  0.00    -0.505 C  
HETATM    2  C   UNL     1     -12.561  10.147  71.171  1.00  0.00    -0.486 C  
ENDROOT
BRANCH   2   3
HETATM    3  C   UNL     1     -13.229   8.878  71.684  1.00  0.00    -0.362 C  
BRANCH   3   4
HETATM    4  O   UNL     1     -12.466   7.738  71.283  1.00  0.00    -0.312 OA 
BRANCH   4   5
HETATM    5  C   UNL     1     -11.123   7.757  71.575  1.00  0.00    -0.236 A  
HETATM    6  C   UNL     1     -10.622   7.807  72.886  1.00  0.00    -0.428 A  
HETATM    7  C   UNL     1      -9.250   7.866  73.153  1.00  0.00    -0.267 A  
HETATM    8  C   UNL     1      -8.357   7.737  72.095  1.00  0.00    -0.148 A  
HETATM    9  N   UNL     1      -8.793   7.826  74.474  1.00  0.00    -0.435 NA 
HETATM   10  H1  UNL     1      -7.793   7.868  74.669  1.00  0.00     0.000 HD 
HETATM   11  C   UNL     1      -8.824   7.677  70.784  1.00  0.00    -0.144 A  
HETATM   12  H2  UNL     1      -9.173   6.992  74.922  1.00  0.00     0.000 HD 
HETATM   13  C   UNL     1     -10.202   7.709  70.513  1.00  0.00    -0.201 A  
BRANCH  13  14
HETATM   14  C   UNL     1     -10.560   7.784  69.070  1.00  0.00    -0.166 C  
HETATM   15  O   UNL     1     -10.831   6.801  68.395  1.00  0.00    -0.232 OA 
BRANCH  14  16
HETATM   16  O   UNL     1     -10.271   9.018  68.594  1.00  0.00    -0.194 OA 
BRANCH  16  17
HETATM   17  C   UNL     1     -10.624   9.242  67.220  1.00  0.00    -0.233 C  
BRANCH  17  18
HETATM   18  C   UNL     1     -10.453  10.752  66.980  1.00  0.00    -0.247 C  
BRANCH  18  19
HETATM   19  N   UNL     1     -11.645  11.611  67.139  1.00  0.00    -0.547 NA 
BRANCH  19  20
HETATM   20  C   UNL     1     -11.817  12.408  65.911  1.00  0.00    -0.405 C  
HETATM   21  C   UNL     1     -10.689  12.257  64.899  1.00  0.00    -0.335 C  
ENDBRANCH  19  20
BRANCH  19  22
HETATM   22  C   UNL     1     -11.630  12.398  68.377  1.00  0.00    -0.324 C  
HETATM   23  C   UNL     1     -12.026  13.867  68.252  1.00  0.00    -0.392 C  
ENDBRANCH  19  22
ENDBRANCH  18  19
ENDBRANCH  17  18
ENDBRANCH  16  17
ENDBRANCH  14  16
ENDBRANCH  13  14
ENDBRANCH   4   5
ENDBRANCH   3   4
ENDBRANCH   2   3
TORSDOF 10
ENDMDL
MODEL      122
REMARK 921   NORMALIZED FREE ENERGY PREDICTED BY IDOCK:   -4.07 KCAL/MOL
REMARK 922        TOTAL FREE ENERGY PREDICTED BY IDOCK:   -7.50 KCAL/MOL
REMARK 923 INTER-LIGAND FREE ENERGY PREDICTED BY IDOCK:   -6.43 KCAL/MOL
REMARK 924 INTRA-LIGAND FREE ENERGY PREDICTED BY IDOCK:   -1.07 KCAL/MOL
REMARK 927      BINDING AFFINITY PREDICTED BY RF-SCORE:    0.00 PKD
ROOT
HETATM    1  C   UNL     1     -12.929  14.216  71.476  1.00  0.00    -0.417 C  
HETATM    2  C   UNL     1     -12.743  15.548  70.762  1.00  0.00    -0.511 C  
ENDROOT
BRANCH   2   3
HETATM    3  C   UNL     1     -11.292  15.731  70.335  1.00  0.00    -0.374 C  
BRANCH   3   4
HETATM    4  O   UNL     1     -11.185  15.578  68.918  1.00  0.00    -0.265 OA 
BRANCH   4   5
HETATM    5  C   UNL     1     -10.422  16.505  68.250  1.00  0.00    -0.313 A  
HETATM    6  C   UNL     1     -10.904  17.770  67.874  1.00  0.00    -0.229 A  
HETATM    7  C   UNL     1     -10.117  18.680  67.159  1.00  0.00    -0.359 A  
HETATM    8  C   UNL     1      -8.780  18.373  66.933  1.00  0.00    -0.275 A  
HETATM    9  N   UNL     1     -10.607  19.960  66.883  1.00  0.00    -0.449 NA 
HETATM   10  H1  UNL     1     -10.033  20.624  66.362  1.00  0.00     0.000 HD 
HETATM   11  C   UNL     1      -8.272  17.130  67.302  1.00  0.00    -0.206 A  
HETATM   12  H2  UNL     1     -10.886  20.396  67.761  1.00  0.00     0.000 HD 
HETATM   13  C   UNL     1      -9.089  16.183  67.940  1.00  0.00    -0.192 A  
BRANCH  13  14
HETATM   14  C   UNL     1      -8.464  14.848  68.148  1.00  0.00    -0.146 C  
HETATM   15  O   UNL     1      -7.823  14.557  69.149  1.00  0.00    -0.134 OA 
BRANCH  14  16
HETATM   16  O   UNL     1      -8.481  14.152  66.987  1.00  0.00    -0.208 OA 
BRANCH  16  17
HETATM   17  C   UNL     1      -9.088  12.853  67.062  1.00  0.00    -0.228 C  
BRANCH  17  18
HETATM   18  C   UNL     1     -10.452  12.982  66.360  1.00  0.00    -0.276 C  
BRANCH  18  19
HETATM   19  N   UNL     1     -10.461  13.466  64.964  1.00  0.00    -0.346 NA 
BRANCH  19  20
HETATM   20  C   UNL     1     -11.746  14.141  64.709  1.00  0.00    -0.410 C  
HETATM   21  C   UNL     1     -12.828  13.846  65.739  1.00  0.00    -0.437 C  
ENDBRANCH  19  20
BRANCH  19  22
HETATM   22  C   UNL     1     -10.118  12.424  63.989  1.00  0.00    -0.315 C  
HETATM   23  C   UNL     1     -10.783  11.065  64.188  1.00  0.00    -0.344 C  
ENDBRANCH  19  22
ENDBRANCH  18  19
ENDBRANCH  17  18
ENDBRANCH  16  17
ENDBRANCH  14  16
ENDBRANCH  13  14
ENDBRANCH   4   5
ENDBRANCH   3   4
ENDBRANCH   2   3
TORSDOF 10
ENDMDL
MODEL      123
REMARK 921   NORMALIZED FREE ENERGY PREDICTED BY IDOCK:   -4.07 KCAL/MOL
REMARK 922        TOTAL FREE ENERGY PREDICTED BY IDOCK:   -7.50 KCAL/MOL
REMARK 923 INTER-LIGAND FREE ENERGY PREDICTED BY IDOCK:   -6.40 KCAL/MOL
REMARK 924 INTRA-LIGAND FREE ENERGY PREDICTED BY IDOCK:   -1.10 KCAL/MOL
REMARK 927      BINDING AFFINITY PREDICTED BY RF-SCORE:    0.00 PKD
ROOT
HETATM    1  C   UNL     1     -12.367  12.303  70.626  1.00  0.00    -0.375 C  
HETATM    2  C   UNL     1     -12.951  11.253  71.561  1.00  0.00    -0.520 C  
ENDROOT
BRANCH   2   3
HETATM    3  C   UNL     1     -12.081  10.002  71.574  1.00  0.00    -0.387 C  
BRANCH   3   4
HETATM    4  O   UNL     1     -11.009  10.152  70.641  1.00  0.00    -0.308 OA 
BRANCH   4   5
HETATM    5  C   UNL     1     -10.769   9.095  69.797  1.00  0.00    -0.228 A  
HETATM    6  C   UNL     1     -10.742   7.758  70.227  1.00  0.00    -0.237 A  
HETATM    7  C   UNL     1     -10.456   6.703  69.353  1.00  0.00    -0.219 A  
HETATM    8  C   UNL     1     -10.326   6.977  67.996  1.00  0.00    -0.234 A  
HETATM    9  N   UNL     1     -10.526   5.382  69.806  1.00  0.00    -0.307 NA 
HETATM   10  H1  UNL     1     -10.318   4.613  69.168  1.00  0.00     0.000 HD 
HETATM   11  C   UNL     1     -10.357   8.292  67.538  1.00  0.00    -0.333 A  
HETATM   12  H2  UNL     1     -11.450   5.227  70.207  1.00  0.00     0.000 HD 
HETATM   13  C   UNL     1     -10.555   9.357  68.432  1.00  0.00    -0.247 A  
BRANCH  13  14
HETATM   14  C   UNL     1     -10.422  10.715  67.836  1.00  0.00    -0.208 C  
HETATM   15  O   UNL     1      -9.489  11.467  68.083  1.00  0.00    -0.168 OA 
BRANCH  14  16
HETATM   16  O   UNL     1     -11.584  11.063  67.235  1.00  0.00    -0.496 OA 
BRANCH  16  17
HETATM   17  C   UNL     1     -11.448  11.643  65.928  1.00  0.00    -0.121 C  
BRANCH  17  18
HETATM   18  C   UNL     1     -12.028  13.064  66.033  1.00  0.00    -0.440 C  
BRANCH  18  19
HETATM   19  N   UNL     1     -11.198  14.097  66.688  1.00  0.00    -0.316 NA 
BRANCH  19  20
HETATM   20  C   UNL     1     -11.966  14.679  67.803  1.00  0.00    -0.268 C  
HETATM   21  C   UNL     1     -11.169  15.626  68.690  1.00  0.00    -0.338 C  
ENDBRANCH  19  20
BRANCH  19  22
HETATM   22  C   UNL     1     -10.651  15.082  65.747  1.00  0.00    -0.339 C  
HETATM   23  C   UNL     1     -11.483  15.360  64.498  1.00  0.00    -0.314 C  
ENDBRANCH  19  22
ENDBRANCH  18  19
ENDBRANCH  17  18
ENDBRANCH  16  17
ENDBRANCH  14  16
ENDBRANCH  13  14
ENDBRANCH   4   5
ENDBRANCH   3   4
ENDBRANCH   2   3
TORSDOF 10
ENDMDL
MODEL      124
REMARK 921   NORMALIZED FREE ENERGY PREDICTED BY IDOCK:   -4.06 KCAL/MOL
REMARK 922        TOTAL FREE ENERGY PREDICTED BY IDOCK:   -7.49 KCAL/MOL
REMARK 923 INTER-LIGAND FREE ENERGY PREDICTED BY IDOCK:   -6.50 KCAL/MOL
REMARK 924 INTRA-LIGAND FREE ENERGY PREDICTED BY IDOCK:   -0.99 KCAL/MOL
REMARK 927      BINDING AFFINITY PREDICTED BY RF-SCORE:    0.00 PKD
ROOT
HETATM    1  C   UNL     1     -12.682  11.397  71.288  1.00  0.00    -0.498 C  
HETATM    2  C   UNL     1     -13.041   9.969  71.674  1.00  0.00    -0.547 C  
ENDROOT
BRANCH   2   3
HETATM    3  C   UNL     1     -11.884   9.024  71.375  1.00  0.00    -0.325 C  
BRANCH   3   4
HETATM    4  O   UNL     1     -10.985   9.640  70.451  1.00  0.00    -0.253 OA 
BRANCH   4   5
HETATM    5  C   UNL     1     -10.627   8.902  69.349  1.00  0.00    -0.217 A  
HETATM    6  C   UNL     1     -10.195   7.567  69.424  1.00  0.00    -0.204 A  
HETATM    7  C   UNL     1      -9.798   6.852  68.290  1.00  0.00    -0.138 A  
HETATM    8  C   UNL     1      -9.962   7.437  67.039  1.00  0.00    -0.301 A  
HETATM    9  N   UNL     1      -9.460   5.499  68.400  1.00  0.00    -0.114 NA 
HETATM   10  H1  UNL     1      -9.171   4.977  67.573  1.00  0.00     0.000 HD 
HETATM   11  C   UNL     1     -10.396   8.756  66.932  1.00  0.00    -0.344 A  
HETATM   12  H2  UNL     1     -10.238   5.006  68.837  1.00  0.00     0.000 HD 
HETATM   13  C   UNL     1     -10.709   9.503  68.080  1.00  0.00    -0.266 A  
BRANCH  13  14
HETATM   14  C   UNL     1     -11.020  10.938  67.834  1.00  0.00    -0.271 C  
HETATM   15  O   UNL     1     -12.155  11.392  67.866  1.00  0.00    -0.646 OA 
BRANCH  14  16
HETATM   16  O   UNL     1      -9.931  11.556  67.319  1.00  0.00    -0.189 OA 
BRANCH  16  17
HETATM   17  C   UNL     1      -9.442  12.669  68.083  1.00  0.00    -0.218 C  
BRANCH  17  18
HETATM   18  C   UNL     1      -9.292  13.833  67.087  1.00  0.00    -0.240 C  
BRANCH  18  19
HETATM   19  N   UNL     1     -10.523  14.374  66.475  1.00  0.00    -0.285 NA 
BRANCH  19  20
HETATM   20  C   UNL     1     -10.159  15.518  65.620  1.00  0.00    -0.376 C  
HETATM   21  C   UNL     1     -11.220  15.902  64.596  1.00  0.00    -0.361 C  
ENDBRANCH  19  20
BRANCH  19  22
HETATM   22  C   UNL     1     -11.578  14.660  67.455  1.00  0.00    -0.389 C  
HETATM   23  C   UNL     1     -11.413  15.935  68.277  1.00  0.00    -0.320 C  
ENDBRANCH  19  22
ENDBRANCH  18  19
ENDBRANCH  17  18
ENDBRANCH  16  17
ENDBRANCH  14  16
ENDBRANCH  13  14
ENDBRANCH   4   5
ENDBRANCH   3   4
ENDBRANCH   2   3
TORSDOF 10
ENDMDL
MODEL      125
REMARK 921   NORMALIZED FREE ENERGY PREDICTED BY IDOCK:   -4.06 KCAL/MOL
REMARK 922        TOTAL FREE ENERGY PREDICTED BY IDOCK:   -7.48 KCAL/MOL
REMARK 923 INTER-LIGAND FREE ENERGY PREDICTED BY IDOCK:   -6.60 KCAL/MOL
REMARK 924 INTRA-LIGAND FREE ENERGY PREDICTED BY IDOCK:   -0.88 KCAL/MOL
REMARK 927      BINDING AFFINITY PREDICTED BY RF-SCORE:    0.00 PKD
ROOT
HETATM    1  C   UNL     1     -12.855  13.850  65.331  1.00  0.00    -0.466 C  
HETATM    2  C   UNL     1     -12.154  13.970  66.677  1.00  0.00    -0.487 C  
ENDROOT
BRANCH   2   3
HETATM    3  C   UNL     1     -11.662  12.609  67.151  1.00  0.00    -0.371 C  
BRANCH   3   4
HETATM    4  O   UNL     1     -10.259  12.492  66.905  1.00  0.00    -0.224 OA 
BRANCH   4   5
HETATM    5  C   UNL     1      -9.863  11.505  66.035  1.00  0.00    -0.225 A  
HETATM    6  C   UNL     1     -10.173  11.518  64.665  1.00  0.00    -0.334 A  
HETATM    7  C   UNL     1      -9.791  10.480  63.808  1.00  0.00    -0.300 A  
HETATM    8  C   UNL     1      -8.968   9.474  64.304  1.00  0.00    -0.248 A  
HETATM    9  N   UNL     1     -10.044  10.577  62.436  1.00  0.00    -0.746 NA 
HETATM   10  H1  UNL     1      -9.765   9.820  61.812  1.00  0.00     0.000 HD 
HETATM   11  C   UNL     1      -8.637   9.439  65.656  1.00  0.00    -0.159 A  
HETATM   12  H2  UNL     1      -9.634  11.445  62.093  1.00  0.00     0.000 HD 
HETATM   13  C   UNL     1      -9.097  10.436  66.532  1.00  0.00    -0.175 A  
BRANCH  13  14
HETATM   14  C   UNL     1      -8.793  10.201  67.971  1.00  0.00    -0.125 C  
HETATM   15  O   UNL     1      -7.686  10.384  68.460  1.00  0.00    -0.093 OA 
BRANCH  14  16
HETATM   16  O   UNL     1      -9.812   9.520  68.545  1.00  0.00    -0.152 OA 
BRANCH  16  17
HETATM   17  C   UNL     1     -10.458  10.193  69.637  1.00  0.00    -0.252 C  
BRANCH  17  18
HETATM   18  C   UNL     1     -10.266   9.287  70.866  1.00  0.00    -0.301 C  
BRANCH  18  19
HETATM   19  N   UNL     1     -11.330   9.287  71.891  1.00  0.00    -0.359 NA 
BRANCH  19  20
HETATM   20  C   UNL     1     -11.325   7.981  72.574  1.00  0.00    -0.406 C  
HETATM   21  C   UNL     1     -11.325   6.780  71.637  1.00  0.00    -0.305 C  
ENDBRANCH  19  20
BRANCH  19  22
HETATM   22  C   UNL     1     -12.639   9.693  71.365  1.00  0.00    -0.371 C  
HETATM   23  C   UNL     1     -13.165  11.048  71.828  1.00  0.00    -0.505 C  
ENDBRANCH  19  22
ENDBRANCH  18  19
ENDBRANCH  17  18
ENDBRANCH  16  17
ENDBRANCH  14  16
ENDBRANCH  13  14
ENDBRANCH   4   5
ENDBRANCH   3   4
ENDBRANCH   2   3
TORSDOF 10
ENDMDL
MODEL      126
REMARK 921   NORMALIZED FREE ENERGY PREDICTED BY IDOCK:   -4.05 KCAL/MOL
REMARK 922        TOTAL FREE ENERGY PREDICTED BY IDOCK:   -7.48 KCAL/MOL
REMARK 923 INTER-LIGAND FREE ENERGY PREDICTED BY IDOCK:   -6.83 KCAL/MOL
REMARK 924 INTRA-LIGAND FREE ENERGY PREDICTED BY IDOCK:   -0.65 KCAL/MOL
REMARK 927      BINDING AFFINITY PREDICTED BY RF-SCORE:    0.00 PKD
ROOT
HETATM    1  C   UNL     1     -12.849   9.972  71.653  1.00  0.00    -0.543 C  
HETATM    2  C   UNL     1     -13.801   8.805  71.873  1.00  0.00    -0.491 C  
ENDROOT
BRANCH   2   3
HETATM    3  C   UNL     1     -13.080   7.477  71.673  1.00  0.00    -0.358 C  
BRANCH   3   4
HETATM    4  O   UNL     1     -11.995   7.653  70.760  1.00  0.00    -0.264 OA 
BRANCH   4   5
HETATM    5  C   UNL     1     -11.169   6.572  70.564  1.00  0.00    -0.344 A  
HETATM    6  C   UNL     1     -10.792   5.696  71.595  1.00  0.00    -0.301 A  
HETATM    7  C   UNL     1      -9.917   4.626  71.376  1.00  0.00    -0.197 A  
HETATM    8  C   UNL     1      -9.517   4.347  70.074  1.00  0.00    -0.251 A  
HETATM    9  N   UNL     1      -9.639   3.728  72.411  1.00  0.00    -0.132 NA 
HETATM   10  H1  UNL     1      -9.002   2.948  72.251  1.00  0.00     0.000 HD 
HETATM   11  C   UNL     1      -9.881   5.193  69.030  1.00  0.00    -0.246 A  
HETATM   12  H2  UNL     1     -10.521   3.356  72.762  1.00  0.00     0.000 HD 
HETATM   13  C   UNL     1     -10.687   6.318  69.267  1.00  0.00    -0.367 A  
BRANCH  13  14
HETATM   14  C   UNL     1     -10.882   7.215  68.095  1.00  0.00    -0.109 C  
HETATM   15  O   UNL     1     -11.265   6.817  67.004  1.00  0.00    -0.393 OA 
BRANCH  14  16
HETATM   16  O   UNL     1     -10.322   8.421  68.347  1.00  0.00    -0.206 OA 
BRANCH  16  17
HETATM   17  C   UNL     1     -10.700   9.472  67.445  1.00  0.00    -0.227 C  
BRANCH  17  18
HETATM   18  C   UNL     1     -11.371  10.553  68.312  1.00  0.00    -0.264 C  
BRANCH  18  19
HETATM   19  N   UNL     1     -11.942  11.728  67.621  1.00  0.00    -0.606 NA 
BRANCH  19  20
HETATM   20  C   UNL     1     -11.392  11.783  66.255  1.00  0.00    -0.287 C  
HETATM   21  C   UNL     1     -12.168  12.680  65.300  1.00  0.00    -0.532 C  
ENDBRANCH  19  20
BRANCH  19  22
HETATM   22  C   UNL     1     -11.799  12.973  68.385  1.00  0.00    -0.334 C  
HETATM   23  C   UNL     1     -11.936  12.857  69.901  1.00  0.00    -0.377 C  
ENDBRANCH  19  22
ENDBRANCH  18  19
ENDBRANCH  17  18
ENDBRANCH  16  17
ENDBRANCH  14  16
ENDBRANCH  13  14
ENDBRANCH   4   5
ENDBRANCH   3   4
ENDBRANCH   2   3
TORSDOF 10
ENDMDL
MODEL      127
REMARK 921   NORMALIZED FREE ENERGY PREDICTED BY IDOCK:   -4.05 KCAL/MOL
REMARK 922        TOTAL FREE ENERGY PREDICTED BY IDOCK:   -7.48 KCAL/MOL
REMARK 923 INTER-LIGAND FREE ENERGY PREDICTED BY IDOCK:   -6.55 KCAL/MOL
REMARK 924 INTRA-LIGAND FREE ENERGY PREDICTED BY IDOCK:   -0.92 KCAL/MOL
REMARK 927      BINDING AFFINITY PREDICTED BY RF-SCORE:    0.00 PKD
ROOT
HETATM    1  C   UNL     1      -7.537  17.526  66.934  1.00  0.00    -0.245 C  
HETATM    2  C   UNL     1      -8.932  17.439  66.331  1.00  0.00    -0.274 C  
ENDROOT
BRANCH   2   3
HETATM    3  C   UNL     1      -9.385  15.988  66.228  1.00  0.00    -0.322 C  
BRANCH   3   4
HETATM    4  O   UNL     1     -10.788  15.903  66.486  1.00  0.00    -0.291 OA 
BRANCH   4   5
HETATM    5  C   UNL     1     -11.164  15.403  67.709  1.00  0.00    -0.321 A  
HETATM    6  C   UNL     1     -11.152  16.165  68.889  1.00  0.00    -0.347 A  
HETATM    7  C   UNL     1     -11.502  15.618  70.128  1.00  0.00    -0.348 A  
HETATM    8  C   UNL     1     -12.002  14.321  70.169  1.00  0.00    -0.391 A  
HETATM    9  N   UNL     1     -11.561  16.436  71.261  1.00  0.00    -0.609 NA 
HETATM   10  H1  UNL     1     -11.817  16.037  72.165  1.00  0.00     0.000 HD 
HETATM   11  C   UNL     1     -12.034  13.544  69.014  1.00  0.00    -0.376 A  
HETATM   12  H2  UNL     1     -12.188  17.216  71.064  1.00  0.00     0.000 HD 
HETATM   13  C   UNL     1     -11.597  14.067  67.786  1.00  0.00    -0.378 A  
BRANCH  13  14
HETATM   14  C   UNL     1     -11.547  13.089  66.665  1.00  0.00    -0.359 C  
HETATM   15  O   UNL     1     -12.497  12.869  65.925  1.00  0.00    -0.527 OA 
BRANCH  14  16
HETATM   16  O   UNL     1     -10.436  12.324  66.777  1.00  0.00    -0.216 OA 
BRANCH  16  17
HETATM   17  C   UNL     1     -10.588  10.959  66.361  1.00  0.00    -0.229 C  
BRANCH  17  18
HETATM   18  C   UNL     1     -11.020  10.178  67.615  1.00  0.00    -0.268 C  
BRANCH  18  19
HETATM   19  N   UNL     1     -10.225   8.991  67.991  1.00  0.00    -0.202 NA 
BRANCH  19  20
HETATM   20  C   UNL     1      -8.834   9.413  68.232  1.00  0.00    -0.128 C  
HETATM   21  C   UNL     1      -8.602  10.076  69.583  1.00  0.00    -0.198 C  
ENDBRANCH  19  20
BRANCH  19  22
HETATM   22  C   UNL     1     -10.367   7.877  67.045  1.00  0.00    -0.341 C  
HETATM   23  C   UNL     1      -9.072   7.268  66.517  1.00  0.00    -0.186 C  
ENDBRANCH  19  22
ENDBRANCH  18  19
ENDBRANCH  17  18
ENDBRANCH  16  17
ENDBRANCH  14  16
ENDBRANCH  13  14
ENDBRANCH   4   5
ENDBRANCH   3   4
ENDBRANCH   2   3
TORSDOF 10
ENDMDL
MODEL      128
REMARK 921   NORMALIZED FREE ENERGY PREDICTED BY IDOCK:   -4.05 KCAL/MOL
REMARK 922        TOTAL FREE ENERGY PREDICTED BY IDOCK:   -7.48 KCAL/MOL
REMARK 923 INTER-LIGAND FREE ENERGY PREDICTED BY IDOCK:   -6.66 KCAL/MOL
REMARK 924 INTRA-LIGAND FREE ENERGY PREDICTED BY IDOCK:   -0.82 KCAL/MOL
REMARK 927      BINDING AFFINITY PREDICTED BY RF-SCORE:    0.00 PKD
ROOT
HETATM    1  C   UNL     1      -8.154   9.021  64.011  1.00  0.00    -0.158 C  
HETATM    2  C   UNL     1      -8.394  10.223  63.109  1.00  0.00    -0.167 C  
ENDROOT
BRANCH   2   3
HETATM    3  C   UNL     1      -9.760  10.839  63.385  1.00  0.00    -0.351 C  
BRANCH   3   4
HETATM    4  O   UNL     1     -10.183  10.497  64.707  1.00  0.00    -0.341 OA 
BRANCH   4   5
HETATM    5  C   UNL     1     -10.781  11.492  65.442  1.00  0.00    -0.278 A  
HETATM    6  C   UNL     1     -11.698  12.406  64.898  1.00  0.00    -0.418 A  
HETATM    7  C   UNL     1     -12.262  13.434  65.661  1.00  0.00    -0.463 A  
HETATM    8  C   UNL     1     -12.006  13.469  67.028  1.00  0.00    -0.440 A  
HETATM    9  N   UNL     1     -13.237  14.266  65.101  1.00  0.00    -0.579 NA 
HETATM   10  H1  UNL     1     -13.648  15.015  65.658  1.00  0.00     0.000 HD 
HETATM   11  C   UNL     1     -11.107  12.571  67.598  1.00  0.00    -0.301 A  
HETATM   12  H2  UNL     1     -13.990  13.682  64.740  1.00  0.00     0.000 HD 
HETATM   13  C   UNL     1     -10.473  11.595  66.811  1.00  0.00    -0.265 A  
BRANCH  13  14
HETATM   14  C   UNL     1      -9.432  10.796  67.514  1.00  0.00    -0.154 C  
HETATM   15  O   UNL     1      -8.241  10.860  67.240  1.00  0.00    -0.119 OA 
BRANCH  14  16
HETATM   16  O   UNL     1     -10.023   9.837  68.263  1.00  0.00    -0.146 OA 
BRANCH  16  17
HETATM   17  C   UNL     1      -9.991  10.062  69.681  1.00  0.00    -0.236 C  
BRANCH  17  18
HETATM   18  C   UNL     1     -11.077   9.151  70.279  1.00  0.00    -0.239 C  
BRANCH  18  19
HETATM   19  N   UNL     1     -12.356   9.777  70.675  1.00  0.00    -0.217 NA 
BRANCH  19  20
HETATM   20  C   UNL     1     -12.174  11.240  70.701  1.00  0.00    -0.393 C  
HETATM   21  C   UNL     1     -13.031  11.962  71.732  1.00  0.00    -0.455 C  
ENDBRANCH  19  20
BRANCH  19  22
HETATM   22  C   UNL     1     -12.920   9.212  71.906  1.00  0.00    -0.404 C  
HETATM   23  C   UNL     1     -14.180   8.366  71.748  1.00  0.00    -0.536 C  
ENDBRANCH  19  22
ENDBRANCH  18  19
ENDBRANCH  17  18
ENDBRANCH  16  17
ENDBRANCH  14  16
ENDBRANCH  13  14
ENDBRANCH   4   5
ENDBRANCH   3   4
ENDBRANCH   2   3
TORSDOF 10
ENDMDL
MODEL      129
REMARK 921   NORMALIZED FREE ENERGY PREDICTED BY IDOCK:   -4.05 KCAL/MOL
REMARK 922        TOTAL FREE ENERGY PREDICTED BY IDOCK:   -7.47 KCAL/MOL
REMARK 923 INTER-LIGAND FREE ENERGY PREDICTED BY IDOCK:   -6.79 KCAL/MOL
REMARK 924 INTRA-LIGAND FREE ENERGY PREDICTED BY IDOCK:   -0.68 KCAL/MOL
REMARK 927      BINDING AFFINITY PREDICTED BY RF-SCORE:    0.00 PKD
ROOT
HETATM    1  C   UNL     1     -12.581  11.844  63.497  1.00  0.00    -0.579 C  
HETATM    2  C   UNL     1     -12.493  12.618  64.805  1.00  0.00    -0.555 C  
ENDROOT
BRANCH   2   3
HETATM    3  C   UNL     1     -11.382  12.061  65.687  1.00  0.00    -0.329 C  
BRANCH   3   4
HETATM    4  O   UNL     1     -11.885  11.826  67.003  1.00  0.00    -0.599 OA 
BRANCH   4   5
HETATM    5  C   UNL     1     -11.280  10.828  67.728  1.00  0.00    -0.316 A  
HETATM    6  C   UNL     1     -10.667   9.710  67.137  1.00  0.00    -0.258 A  
HETATM    7  C   UNL     1     -10.094   8.688  67.901  1.00  0.00    -0.203 A  
HETATM    8  C   UNL     1     -10.013   8.850  69.280  1.00  0.00    -0.192 A  
HETATM    9  N   UNL     1      -9.417   7.640  67.270  1.00  0.00    -0.142 NA 
HETATM   10  H1  UNL     1      -8.999   6.895  67.828  1.00  0.00     0.000 HD 
HETATM   11  C   UNL     1     -10.605   9.951  69.894  1.00  0.00    -0.312 A  
HETATM   12  H2  UNL     1      -8.695   8.037  66.669  1.00  0.00     0.000 HD 
HETATM   13  C   UNL     1     -11.259  10.932  69.131  1.00  0.00    -0.318 A  
BRANCH  13  14
HETATM   14  C   UNL     1     -11.970  11.975  69.919  1.00  0.00    -0.318 C  
HETATM   15  O   UNL     1     -12.498  11.754  71.000  1.00  0.00    -0.372 OA 
BRANCH  14  16
HETATM   16  O   UNL     1     -12.168  13.071  69.149  1.00  0.00    -0.225 OA 
BRANCH  16  17
HETATM   17  C   UNL     1     -11.792  14.318  69.752  1.00  0.00    -0.324 C  
BRANCH  17  18
HETATM   18  C   UNL     1     -11.629  15.317  68.592  1.00  0.00    -0.354 C  
BRANCH  18  19
HETATM   19  N   UNL     1     -10.558  15.057  67.609  1.00  0.00    -0.262 NA 
BRANCH  19  20
HETATM   20  C   UNL     1      -9.314  14.750  68.338  1.00  0.00    -0.197 C  
HETATM   21  C   UNL     1      -8.585  13.507  67.845  1.00  0.00    -0.182 C  
ENDBRANCH  19  20
BRANCH  19  22
HETATM   22  C   UNL     1     -10.426  16.118  66.603  1.00  0.00    -0.300 C  
HETATM   23  C   UNL     1     -10.713  15.721  65.158  1.00  0.00    -0.455 C  
ENDBRANCH  19  22
ENDBRANCH  18  19
ENDBRANCH  17  18
ENDBRANCH  16  17
ENDBRANCH  14  16
ENDBRANCH  13  14
ENDBRANCH   4   5
ENDBRANCH   3   4
ENDBRANCH   2   3
TORSDOF 10
ENDMDL
MODEL      130
REMARK 921   NORMALIZED FREE ENERGY PREDICTED BY IDOCK:   -4.05 KCAL/MOL
REMARK 922        TOTAL FREE ENERGY PREDICTED BY IDOCK:   -7.47 KCAL/MOL
REMARK 923 INTER-LIGAND FREE ENERGY PREDICTED BY IDOCK:   -6.82 KCAL/MOL
REMARK 924 INTRA-LIGAND FREE ENERGY PREDICTED BY IDOCK:   -0.65 KCAL/MOL
REMARK 927      BINDING AFFINITY PREDICTED BY RF-SCORE:    0.00 PKD
ROOT
HETATM    1  C   UNL     1     -12.835  15.218  73.521  1.00  0.00    -0.681 C  
HETATM    2  C   UNL     1     -12.383  16.095  72.362  1.00  0.00    -0.554 C  
ENDROOT
BRANCH   2   3
HETATM    3  C   UNL     1     -11.457  15.322  71.431  1.00  0.00    -0.389 C  
BRANCH   3   4
HETATM    4  O   UNL     1     -12.196  14.849  70.302  1.00  0.00    -0.296 OA 
BRANCH   4   5
HETATM    5  C   UNL     1     -12.213  13.490  70.099  1.00  0.00    -0.330 A  
HETATM    6  C   UNL     1     -12.556  12.566  71.099  1.00  0.00    -0.349 A  
HETATM    7  C   UNL     1     -12.527  11.185  70.876  1.00  0.00    -0.409 A  
HETATM    8  C   UNL     1     -12.277  10.722  69.588  1.00  0.00    -0.325 A  
HETATM    9  N   UNL     1     -12.961  10.306  71.873  1.00  0.00    -0.448 NA 
HETATM   10  H1  UNL     1     -12.940   9.300  71.709  1.00  0.00     0.000 HD 
HETATM   11  C   UNL     1     -11.942  11.615  68.573  1.00  0.00    -0.284 A  
HETATM   12  H2  UNL     1     -13.909  10.569  72.144  1.00  0.00     0.000 HD 
HETATM   13  C   UNL     1     -11.885  12.996  68.823  1.00  0.00    -0.355 A  
BRANCH  13  14
HETATM   14  C   UNL     1     -11.374  13.821  67.694  1.00  0.00    -0.304 C  
HETATM   15  O   UNL     1     -11.981  13.966  66.642  1.00  0.00    -0.396 OA 
BRANCH  14  16
HETATM   16  O   UNL     1     -10.074  14.130  67.909  1.00  0.00    -0.227 OA 
BRANCH  16  17
HETATM   17  C   UNL     1      -9.203  13.006  68.109  1.00  0.00    -0.212 C  
BRANCH  17  18
HETATM   18  C   UNL     1      -8.791  12.534  66.703  1.00  0.00    -0.142 C  
BRANCH  18  19
HETATM   19  N   UNL     1      -9.054  11.124  66.349  1.00  0.00    -0.181 NA 
BRANCH  19  20
HETATM   20  C   UNL     1      -7.803  10.525  65.848  1.00  0.00    -0.151 C  
HETATM   21  C   UNL     1      -6.542  11.039  66.528  1.00  0.00    -0.132 C  
ENDBRANCH  19  20
BRANCH  19  22
HETATM   22  C   UNL     1     -10.208  10.956  65.458  1.00  0.00    -0.271 C  
HETATM   23  C   UNL     1      -9.899  10.559  64.017  1.00  0.00    -0.387 C  
ENDBRANCH  19  22
ENDBRANCH  18  19
ENDBRANCH  17  18
ENDBRANCH  16  17
ENDBRANCH  14  16
ENDBRANCH  13  14
ENDBRANCH   4   5
ENDBRANCH   3   4
ENDBRANCH   2   3
TORSDOF 10
ENDMDL
MODEL      131
REMARK 921   NORMALIZED FREE ENERGY PREDICTED BY IDOCK:   -4.05 KCAL/MOL
REMARK 922        TOTAL FREE ENERGY PREDICTED BY IDOCK:   -7.47 KCAL/MOL
REMARK 923 INTER-LIGAND FREE ENERGY PREDICTED BY IDOCK:   -6.22 KCAL/MOL
REMARK 924 INTRA-LIGAND FREE ENERGY PREDICTED BY IDOCK:   -1.25 KCAL/MOL
REMARK 927      BINDING AFFINITY PREDICTED BY RF-SCORE:    0.00 PKD
ROOT
HETATM    1  C   UNL     1      -7.111  10.258  68.991  1.00  0.00    -0.072 C  
HETATM    2  C   UNL     1      -7.541   8.914  69.564  1.00  0.00    -0.080 C  
ENDROOT
BRANCH   2   3
HETATM    3  C   UNL     1      -8.438   9.110  70.780  1.00  0.00    -0.212 C  
BRANCH   3   4
HETATM    4  O   UNL     1      -9.607   9.840  70.402  1.00  0.00    -0.252 OA 
BRANCH   4   5
HETATM    5  C   UNL     1     -10.813   9.354  70.847  1.00  0.00    -0.322 A  
HETATM    6  C   UNL     1     -10.953   8.105  71.477  1.00  0.00    -0.294 A  
HETATM    7  C   UNL     1     -12.199   7.617  71.884  1.00  0.00    -0.304 A  
HETATM    8  C   UNL     1     -13.309   8.449  71.783  1.00  0.00    -0.378 A  
HETATM    9  N   UNL     1     -12.281   6.410  72.586  1.00  0.00    -0.505 NA 
HETATM   10  H1  UNL     1     -13.189   6.054  72.883  1.00  0.00     0.000 HD 
HETATM   11  C   UNL     1     -13.199   9.695  71.171  1.00  0.00    -0.373 A  
HETATM   12  H2  UNL     1     -11.674   6.470  73.403  1.00  0.00     0.000 HD 
HETATM   13  C   UNL     1     -11.962  10.147  70.681  1.00  0.00    -0.423 A  
BRANCH  13  14
HETATM   14  C   UNL     1     -12.012  11.427  69.924  1.00  0.00    -0.359 C  
HETATM   15  O   UNL     1     -12.058  12.524  70.465  1.00  0.00    -0.365 OA 
BRANCH  14  16
HETATM   16  O   UNL     1     -12.273  11.174  68.620  1.00  0.00    -0.582 OA 
BRANCH  16  17
HETATM   17  C   UNL     1     -11.451  11.885  67.682  1.00  0.00    -0.317 C  
BRANCH  17  18
HETATM   18  C   UNL     1     -10.262  10.958  67.374  1.00  0.00    -0.201 C  
BRANCH  18  19
HETATM   19  N   UNL     1     -10.505   9.806  66.480  1.00  0.00    -0.182 NA 
BRANCH  19  20
HETATM   20  C   UNL     1     -10.536   8.578  67.295  1.00  0.00    -0.296 C  
HETATM   21  C   UNL     1      -9.797   7.396  66.680  1.00  0.00    -0.263 C  
ENDBRANCH  19  20
BRANCH  19  22
HETATM   22  C   UNL     1      -9.584   9.756  65.339  1.00  0.00    -0.292 C  
HETATM   23  C   UNL     1      -8.315  10.596  65.454  1.00  0.00    -0.142 C  
ENDBRANCH  19  22
ENDBRANCH  18  19
ENDBRANCH  17  18
ENDBRANCH  16  17
ENDBRANCH  14  16
ENDBRANCH  13  14
ENDBRANCH   4   5
ENDBRANCH   3   4
ENDBRANCH   2   3
TORSDOF 10
ENDMDL
MODEL      132
REMARK 921   NORMALIZED FREE ENERGY PREDICTED BY IDOCK:   -4.02 KCAL/MOL
REMARK 922        TOTAL FREE ENERGY PREDICTED BY IDOCK:   -7.43 KCAL/MOL
REMARK 923 INTER-LIGAND FREE ENERGY PREDICTED BY IDOCK:   -6.39 KCAL/MOL
REMARK 924 INTRA-LIGAND FREE ENERGY PREDICTED BY IDOCK:   -1.04 KCAL/MOL
REMARK 927      BINDING AFFINITY PREDICTED BY RF-SCORE:    0.00 PKD
ROOT
HETATM    1  C   UNL     1      -8.788  10.396  65.742  1.00  0.00    -0.186 C  
HETATM    2  C   UNL     1      -9.688  11.279  66.596  1.00  0.00    -0.222 C  
ENDROOT
BRANCH   2   3
HETATM    3  C   UNL     1      -8.950  12.537  67.035  1.00  0.00    -0.211 C  
BRANCH   3   4
HETATM    4  O   UNL     1      -9.301  13.625  66.177  1.00  0.00    -0.195 OA 
BRANCH   4   5
HETATM    5  C   UNL     1      -9.451  14.856  66.768  1.00  0.00    -0.252 A  
HETATM    6  C   UNL     1      -8.379  15.734  67.000  1.00  0.00    -0.259 A  
HETATM    7  C   UNL     1      -8.555  16.965  67.640  1.00  0.00    -0.208 A  
HETATM    8  C   UNL     1      -9.848  17.387  67.934  1.00  0.00    -0.287 A  
HETATM    9  N   UNL     1      -7.476  17.845  67.771  1.00  0.00    -0.203 NA 
HETATM   10  H1  UNL     1      -7.604  18.743  68.237  1.00  0.00     0.000 HD 
HETATM   11  C   UNL     1     -10.931  16.542  67.707  1.00  0.00    -0.252 A  
HETATM   12  H2  UNL     1      -7.084  18.015  66.846  1.00  0.00     0.000 HD 
HETATM   13  C   UNL     1     -10.742  15.268  67.146  1.00  0.00    -0.316 A  
BRANCH  13  14
HETATM   14  C   UNL     1     -11.960  14.415  67.092  1.00  0.00    -0.389 C  
HETATM   15  O   UNL     1     -12.517  14.108  66.047  1.00  0.00    -0.467 OA 
BRANCH  14  16
HETATM   16  O   UNL     1     -12.478  14.283  68.336  1.00  0.00    -0.106 OA 
BRANCH  16  17
HETATM   17  C   UNL     1     -11.936  13.204  69.113  1.00  0.00    -0.281 C  
BRANCH  17  18
HETATM   18  C   UNL     1     -11.939  13.691  70.573  1.00  0.00    -0.280 C  
BRANCH  18  19
HETATM   19  N   UNL     1     -13.246  14.005  71.188  1.00  0.00    -0.302 NA 
BRANCH  19  20
HETATM   20  C   UNL     1     -13.216  15.399  71.667  1.00  0.00    -0.478 C  
HETATM   21  C   UNL     1     -11.891  16.115  71.442  1.00  0.00    -0.490 C  
ENDBRANCH  19  20
BRANCH  19  22
HETATM   22  C   UNL     1     -13.660  13.024  72.197  1.00  0.00    -0.526 C  
HETATM   23  C   UNL     1     -13.276  11.572  71.929  1.00  0.00    -0.479 C  
ENDBRANCH  19  22
ENDBRANCH  18  19
ENDBRANCH  17  18
ENDBRANCH  16  17
ENDBRANCH  14  16
ENDBRANCH  13  14
ENDBRANCH   4   5
ENDBRANCH   3   4
ENDBRANCH   2   3
TORSDOF 10
ENDMDL
MODEL      133
REMARK 921   NORMALIZED FREE ENERGY PREDICTED BY IDOCK:   -4.01 KCAL/MOL
REMARK 922        TOTAL FREE ENERGY PREDICTED BY IDOCK:   -7.41 KCAL/MOL
REMARK 923 INTER-LIGAND FREE ENERGY PREDICTED BY IDOCK:   -6.28 KCAL/MOL
REMARK 924 INTRA-LIGAND FREE ENERGY PREDICTED BY IDOCK:   -1.13 KCAL/MOL
REMARK 927      BINDING AFFINITY PREDICTED BY RF-SCORE:    0.00 PKD
ROOT
HETATM    1  C   UNL     1     -11.175   7.001  72.597  1.00  0.00    -0.310 C  
HETATM    2  C   UNL     1     -11.076   8.496  72.329  1.00  0.00    -0.430 C  
ENDROOT
BRANCH   2   3
HETATM    3  C   UNL     1     -12.408   9.044  71.833  1.00  0.00    -0.384 C  
BRANCH   3   4
HETATM    4  O   UNL     1     -12.207   9.772  70.620  1.00  0.00    -0.269 OA 
BRANCH   4   5
HETATM    5  C   UNL     1     -12.331  11.138  70.689  1.00  0.00    -0.388 A  
HETATM    6  C   UNL     1     -12.939  11.802  71.768  1.00  0.00    -0.466 A  
HETATM    7  C   UNL     1     -13.088  13.192  71.794  1.00  0.00    -0.383 A  
HETATM    8  C   UNL     1     -12.498  13.947  70.785  1.00  0.00    -0.445 A  
HETATM    9  N   UNL     1     -13.620  13.817  72.926  1.00  0.00    -0.632 NA 
HETATM   10  H1  UNL     1     -13.727  14.831  72.946  1.00  0.00     0.000 HD 
HETATM   11  C   UNL     1     -11.881  13.317  69.707  1.00  0.00    -0.394 A  
HETATM   12  H2  UNL     1     -13.070  13.536  73.738  1.00  0.00     0.000 HD 
HETATM   13  C   UNL     1     -11.812  11.916  69.639  1.00  0.00    -0.406 A  
BRANCH  13  14
HETATM   14  C   UNL     1     -11.257  11.372  68.369  1.00  0.00    -0.263 C  
HETATM   15  O   UNL     1     -11.878  10.614  67.637  1.00  0.00    -0.411 OA 
BRANCH  14  16
HETATM   16  O   UNL     1      -9.927  11.617  68.313  1.00  0.00    -0.188 OA 
BRANCH  16  17
HETATM   17  C   UNL     1      -9.105  10.702  69.054  1.00  0.00    -0.166 C  
BRANCH  17  18
HETATM   18  C   UNL     1      -8.444   9.785  68.009  1.00  0.00    -0.118 C  
BRANCH  18  19
HETATM   19  N   UNL     1      -8.255   8.364  68.367  1.00  0.00    -0.123 NA 
BRANCH  19  20
HETATM   20  C   UNL     1      -9.235   7.556  67.616  1.00  0.00    -0.127 C  
HETATM   21  C   UNL     1     -10.574   7.377  68.319  1.00  0.00    -0.204 C  
ENDBRANCH  19  20
BRANCH  19  22
HETATM   22  C   UNL     1      -8.255   8.127  69.815  1.00  0.00    -0.122 C  
HETATM   23  C   UNL     1      -6.959   7.585  70.413  1.00  0.00    -0.052 C  
ENDBRANCH  19  22
ENDBRANCH  18  19
ENDBRANCH  17  18
ENDBRANCH  16  17
ENDBRANCH  14  16
ENDBRANCH  13  14
ENDBRANCH   4   5
ENDBRANCH   3   4
ENDBRANCH   2   3
TORSDOF 10
ENDMDL
MODEL      134
REMARK 921   NORMALIZED FREE ENERGY PREDICTED BY IDOCK:   -4.01 KCAL/MOL
REMARK 922        TOTAL FREE ENERGY PREDICTED BY IDOCK:   -7.41 KCAL/MOL
REMARK 923 INTER-LIGAND FREE ENERGY PREDICTED BY IDOCK:   -6.21 KCAL/MOL
REMARK 924 INTRA-LIGAND FREE ENERGY PREDICTED BY IDOCK:   -1.19 KCAL/MOL
REMARK 927      BINDING AFFINITY PREDICTED BY RF-SCORE:    0.00 PKD
ROOT
HETATM    1  C   UNL     1      -9.166   5.068  70.363  1.00  0.00    -0.198 C  
HETATM    2  C   UNL     1     -10.674   5.248  70.259  1.00  0.00    -0.221 C  
ENDROOT
BRANCH   2   3
HETATM    3  C   UNL     1     -11.013   6.588  69.618  1.00  0.00    -0.336 C  
BRANCH   3   4
HETATM    4  O   UNL     1     -10.456   7.649  70.397  1.00  0.00    -0.212 OA 
BRANCH   4   5
HETATM    5  C   UNL     1     -11.322   8.626  70.823  1.00  0.00    -0.263 A  
HETATM    6  C   UNL     1     -12.302   8.409  71.806  1.00  0.00    -0.375 A  
HETATM    7  C   UNL     1     -13.198   9.412  72.193  1.00  0.00    -0.460 A  
HETATM    8  C   UNL     1     -13.026  10.695  71.685  1.00  0.00    -0.582 A  
HETATM    9  N   UNL     1     -14.099   9.179  73.238  1.00  0.00    -1.094 NA 
HETATM   10  H1  UNL     1     -14.752   9.910  73.520  1.00  0.00     0.000 HD 
HETATM   11  C   UNL     1     -12.058  10.942  70.715  1.00  0.00    -0.469 A  
HETATM   12  H2  UNL     1     -13.571   8.883  74.059  1.00  0.00     0.000 HD 
HETATM   13  C   UNL     1     -11.217   9.911  70.262  1.00  0.00    -0.364 A  
BRANCH  13  14
HETATM   14  C   UNL     1     -10.329  10.275  69.125  1.00  0.00    -0.223 C  
HETATM   15  O   UNL     1      -9.313  10.944  69.256  1.00  0.00    -0.133 OA 
BRANCH  14  16
HETATM   16  O   UNL     1     -10.952  10.000  67.955  1.00  0.00    -0.261 OA 
BRANCH  16  17
HETATM   17  C   UNL     1     -10.376  10.619  66.795  1.00  0.00    -0.245 C  
BRANCH  17  18
HETATM   18  C   UNL     1      -9.653   9.497  66.030  1.00  0.00    -0.251 C  
BRANCH  18  19
HETATM   19  N   UNL     1      -8.193   9.368  66.221  1.00  0.00    -0.110 NA 
BRANCH  19  20
HETATM   20  C   UNL     1      -7.515   9.873  65.013  1.00  0.00    -0.134 C  
HETATM   21  C   UNL     1      -6.324   9.038  64.564  1.00  0.00    -0.071 C  
ENDBRANCH  19  20
BRANCH  19  22
HETATM   22  C   UNL     1      -7.780   8.021  66.631  1.00  0.00    -0.094 C  
HETATM   23  C   UNL     1      -7.695   7.767  68.134  1.00  0.00    -0.119 C  
ENDBRANCH  19  22
ENDBRANCH  18  19
ENDBRANCH  17  18
ENDBRANCH  16  17
ENDBRANCH  14  16
ENDBRANCH  13  14
ENDBRANCH   4   5
ENDBRANCH   3   4
ENDBRANCH   2   3
TORSDOF 10
ENDMDL
MODEL      135
REMARK 921   NORMALIZED FREE ENERGY PREDICTED BY IDOCK:   -3.99 KCAL/MOL
REMARK 922        TOTAL FREE ENERGY PREDICTED BY IDOCK:   -7.38 KCAL/MOL
REMARK 923 INTER-LIGAND FREE ENERGY PREDICTED BY IDOCK:   -6.85 KCAL/MOL
REMARK 924 INTRA-LIGAND FREE ENERGY PREDICTED BY IDOCK:   -0.53 KCAL/MOL
REMARK 927      BINDING AFFINITY PREDICTED BY RF-SCORE:    0.00 PKD
ROOT
HETATM    1  C   UNL     1      -8.605   7.725  65.509  1.00  0.00    -0.126 C  
HETATM    2  C   UNL     1      -9.226   7.436  66.869  1.00  0.00    -0.183 C  
ENDROOT
BRANCH   2   3
HETATM    3  C   UNL     1     -10.431   8.336  67.113  1.00  0.00    -0.316 C  
BRANCH   3   4
HETATM    4  O   UNL     1     -10.032   9.476  67.876  1.00  0.00    -0.157 OA 
BRANCH   4   5
HETATM    5  C   UNL     1     -10.742   9.732  69.025  1.00  0.00    -0.217 A  
HETATM    6  C   UNL     1     -10.779   8.851  70.118  1.00  0.00    -0.245 A  
HETATM    7  C   UNL     1     -11.543   9.118  71.259  1.00  0.00    -0.331 A  
HETATM    8  C   UNL     1     -12.176  10.352  71.366  1.00  0.00    -0.461 A  
HETATM    9  N   UNL     1     -11.481   8.257  72.359  1.00  0.00    -0.382 NA 
HETATM   10  H1  UNL     1     -12.037   8.452  73.191  1.00  0.00     0.000 HD 
HETATM   11  C   UNL     1     -12.150  11.250  70.302  1.00  0.00    -0.459 A  
HETATM   12  H2  UNL     1     -10.505   8.160  72.639  1.00  0.00     0.000 HD 
HETATM   13  C   UNL     1     -11.456  10.940  69.120  1.00  0.00    -0.373 A  
BRANCH  13  14
HETATM   14  C   UNL     1     -11.628  11.919  68.012  1.00  0.00    -0.332 C  
HETATM   15  O   UNL     1     -11.821  11.588  66.850  1.00  0.00    -0.542 OA 
BRANCH  14  16
HETATM   16  O   UNL     1     -11.271  13.153  68.436  1.00  0.00    -0.240 OA 
BRANCH  16  17
HETATM   17  C   UNL     1     -11.546  14.220  67.516  1.00  0.00    -0.363 C  
BRANCH  17  18
HETATM   18  C   UNL     1     -10.627  15.383  67.928  1.00  0.00    -0.267 C  
BRANCH  18  19
HETATM   19  N   UNL     1     -11.165  16.379  68.877  1.00  0.00    -0.327 NA 
BRANCH  19  20
HETATM   20  C   UNL     1     -10.426  17.643  68.701  1.00  0.00    -0.317 C  
HETATM   21  C   UNL     1      -9.917  17.883  67.286  1.00  0.00    -0.325 C  
ENDBRANCH  19  20
BRANCH  19  22
HETATM   22  C   UNL     1     -11.214  15.892  70.260  1.00  0.00    -0.380 C  
HETATM   23  C   UNL     1     -12.586  15.475  70.783  1.00  0.00    -0.505 C  
ENDBRANCH  19  22
ENDBRANCH  18  19
ENDBRANCH  17  18
ENDBRANCH  16  17
ENDBRANCH  14  16
ENDBRANCH  13  14
ENDBRANCH   4   5
ENDBRANCH   3   4
ENDBRANCH   2   3
TORSDOF 10
ENDMDL
MODEL      136
REMARK 921   NORMALIZED FREE ENERGY PREDICTED BY IDOCK:   -3.99 KCAL/MOL
REMARK 922        TOTAL FREE ENERGY PREDICTED BY IDOCK:   -7.37 KCAL/MOL
REMARK 923 INTER-LIGAND FREE ENERGY PREDICTED BY IDOCK:   -6.50 KCAL/MOL
REMARK 924 INTRA-LIGAND FREE ENERGY PREDICTED BY IDOCK:   -0.87 KCAL/MOL
REMARK 927      BINDING AFFINITY PREDICTED BY RF-SCORE:    0.00 PKD
ROOT
HETATM    1  C   UNL     1      -8.212   6.724  71.121  1.00  0.00    -0.119 C  
HETATM    2  C   UNL     1      -7.984   8.115  71.696  1.00  0.00    -0.144 C  
ENDROOT
BRANCH   2   3
HETATM    3  C   UNL     1      -8.444   9.186  70.714  1.00  0.00    -0.212 C  
BRANCH   3   4
HETATM    4  O   UNL     1      -9.606   8.731  70.017  1.00  0.00    -0.162 OA 
BRANCH   4   5
HETATM    5  C   UNL     1     -10.815   9.235  70.432  1.00  0.00    -0.254 A  
HETATM    6  C   UNL     1     -11.488   8.775  71.576  1.00  0.00    -0.375 A  
HETATM    7  C   UNL     1     -12.737   9.280  71.953  1.00  0.00    -0.394 A  
HETATM    8  C   UNL     1     -13.263  10.358  71.250  1.00  0.00    -0.431 A  
HETATM    9  N   UNL     1     -13.330   8.856  73.147  1.00  0.00    -0.896 NA 
HETATM   10  H1  UNL     1     -14.241   9.224  73.422  1.00  0.00     0.000 HD 
HETATM   11  C   UNL     1     -12.614  10.841  70.116  1.00  0.00    -0.309 A  
HETATM   12  H2  UNL     1     -12.673   9.018  73.909  1.00  0.00     0.000 HD 
HETATM   13  C   UNL     1     -11.403  10.273  69.687  1.00  0.00    -0.315 A  
BRANCH  13  14
HETATM   14  C   UNL     1     -10.892  10.785  68.386  1.00  0.00    -0.232 C  
HETATM   15  O   UNL     1     -10.912  10.129  67.354  1.00  0.00    -0.292 OA 
BRANCH  14  16
HETATM   16  O   UNL     1     -10.182  11.919  68.591  1.00  0.00    -0.216 OA 
BRANCH  16  17
HETATM   17  C   UNL     1     -10.793  13.121  68.095  1.00  0.00    -0.251 C  
BRANCH  17  18
HETATM   18  C   UNL     1     -10.038  14.285  68.760  1.00  0.00    -0.217 C  
BRANCH  18  19
HETATM   19  N   UNL     1     -10.794  15.147  69.693  1.00  0.00    -0.273 NA 
BRANCH  19  20
HETATM   20  C   UNL     1     -11.822  14.329  70.361  1.00  0.00    -0.305 C  
HETATM   21  C   UNL     1     -13.037  15.112  70.840  1.00  0.00    -0.498 C  
ENDBRANCH  19  20
BRANCH  19  22
HETATM   22  C   UNL     1     -11.305  16.371  69.063  1.00  0.00    -0.253 C  
HETATM   23  C   UNL     1     -10.450  16.968  67.950  1.00  0.00    -0.354 C  
ENDBRANCH  19  22
ENDBRANCH  18  19
ENDBRANCH  17  18
ENDBRANCH  16  17
ENDBRANCH  14  16
ENDBRANCH  13  14
ENDBRANCH   4   5
ENDBRANCH   3   4
ENDBRANCH   2   3
TORSDOF 10
ENDMDL
MODEL      137
REMARK 921   NORMALIZED FREE ENERGY PREDICTED BY IDOCK:   -3.99 KCAL/MOL
REMARK 922        TOTAL FREE ENERGY PREDICTED BY IDOCK:   -7.37 KCAL/MOL
REMARK 923 INTER-LIGAND FREE ENERGY PREDICTED BY IDOCK:   -6.79 KCAL/MOL
REMARK 924 INTRA-LIGAND FREE ENERGY PREDICTED BY IDOCK:   -0.58 KCAL/MOL
REMARK 927      BINDING AFFINITY PREDICTED BY RF-SCORE:    0.00 PKD
ROOT
HETATM    1  C   UNL     1     -10.025  10.011  65.373  1.00  0.00    -0.364 C  
HETATM    2  C   UNL     1     -10.576  11.394  65.054  1.00  0.00    -0.359 C  
ENDROOT
BRANCH   2   3
HETATM    3  C   UNL     1      -9.795  12.470  65.798  1.00  0.00    -0.234 C  
BRANCH   3   4
HETATM    4  O   UNL     1     -10.491  13.715  65.713  1.00  0.00    -0.280 OA 
BRANCH   4   5
HETATM    5  C   UNL     1     -10.848  14.308  66.900  1.00  0.00    -0.298 A  
HETATM    6  C   UNL     1     -11.289  13.583  68.019  1.00  0.00    -0.318 A  
HETATM    7  C   UNL     1     -11.685  14.216  69.203  1.00  0.00    -0.327 A  
HETATM    8  C   UNL     1     -11.510  15.591  69.317  1.00  0.00    -0.349 A  
HETATM    9  N   UNL     1     -12.032  13.451  70.321  1.00  0.00    -0.456 NA 
HETATM   10  H1  UNL     1     -12.320  13.912  71.184  1.00  0.00     0.000 HD 
HETATM   11  C   UNL     1     -11.067  16.335  68.226  1.00  0.00    -0.346 A  
HETATM   12  H2  UNL     1     -11.259  12.822  70.535  1.00  0.00     0.000 HD 
HETATM   13  C   UNL     1     -10.756  15.707  67.009  1.00  0.00    -0.314 A  
BRANCH  13  14
HETATM   14  C   UNL     1     -10.435  16.630  65.886  1.00  0.00    -0.313 C  
HETATM   15  O   UNL     1     -11.006  16.594  64.805  1.00  0.00    -0.705 OA 
BRANCH  14  16
HETATM   16  O   UNL     1      -9.280  17.284  66.151  1.00  0.00    -0.413 OA 
BRANCH  16  17
HETATM   17  C   UNL     1      -9.411  18.697  66.365  1.00  0.00    -0.311 C  
BRANCH  17  18
HETATM   18  C   UNL     1      -8.293  19.083  67.349  1.00  0.00    -0.276 C  
BRANCH  18  19
HETATM   19  N   UNL     1      -6.955  19.367  66.790  1.00  0.00    -0.195 NA 
BRANCH  19  20
HETATM   20  C   UNL     1      -7.122  19.988  65.464  1.00  0.00    -0.310 C  
HETATM   21  C   UNL     1      -6.024  19.646  64.466  1.00  0.00    -0.311 C  
ENDBRANCH  19  20
BRANCH  19  22
HETATM   22  C   UNL     1      -6.062  18.202  66.808  1.00  0.00    -0.157 C  
HETATM   23  C   UNL     1      -5.650  17.685  68.183  1.00  0.00    -0.151 C  
ENDBRANCH  19  22
ENDBRANCH  18  19
ENDBRANCH  17  18
ENDBRANCH  16  17
ENDBRANCH  14  16
ENDBRANCH  13  14
ENDBRANCH   4   5
ENDBRANCH   3   4
ENDBRANCH   2   3
TORSDOF 10
ENDMDL
MODEL      138
REMARK 921   NORMALIZED FREE ENERGY PREDICTED BY IDOCK:   -3.98 KCAL/MOL
REMARK 922        TOTAL FREE ENERGY PREDICTED BY IDOCK:   -7.36 KCAL/MOL
REMARK 923 INTER-LIGAND FREE ENERGY PREDICTED BY IDOCK:   -6.88 KCAL/MOL
REMARK 924 INTRA-LIGAND FREE ENERGY PREDICTED BY IDOCK:   -0.48 KCAL/MOL
REMARK 927      BINDING AFFINITY PREDICTED BY RF-SCORE:    0.00 PKD
ROOT
HETATM    1  C   UNL     1      -6.682  12.848  67.592  1.00  0.00    -0.153 C  
HETATM    2  C   UNL     1      -7.592  11.632  67.698  1.00  0.00    -0.128 C  
ENDROOT
BRANCH   2   3
HETATM    3  C   UNL     1      -8.364  11.423  66.401  1.00  0.00    -0.140 C  
BRANCH   3   4
HETATM    4  O   UNL     1      -9.730  11.123  66.698  1.00  0.00    -0.189 OA 
BRANCH   4   5
HETATM    5  C   UNL     1     -10.672  12.014  66.244  1.00  0.00    -0.267 A  
HETATM    6  C   UNL     1     -10.977  12.184  64.883  1.00  0.00    -0.355 A  
HETATM    7  C   UNL     1     -11.913  13.127  64.446  1.00  0.00    -0.397 A  
HETATM    8  C   UNL     1     -12.656  13.821  65.395  1.00  0.00    -0.534 A  
HETATM    9  N   UNL     1     -12.250  13.201  63.091  1.00  0.00    -0.893 NA 
HETATM   10  H1  UNL     1     -12.933  13.888  62.772  1.00  0.00     0.000 HD 
HETATM   11  C   UNL     1     -12.382  13.667  66.752  1.00  0.00    -0.354 A  
HETATM   12  H2  UNL     1     -12.554  12.278  62.783  1.00  0.00     0.000 HD 
HETATM   13  C   UNL     1     -11.379  12.784  67.185  1.00  0.00    -0.365 A  
BRANCH  13  14
HETATM   14  C   UNL     1     -11.090  12.823  68.644  1.00  0.00    -0.266 C  
HETATM   15  O   UNL     1     -10.820  13.853  69.247  1.00  0.00    -0.221 OA 
BRANCH  14  16
HETATM   16  O   UNL     1     -10.907  11.564  69.105  1.00  0.00    -0.216 OA 
BRANCH  16  17
HETATM   17  C   UNL     1     -11.865  11.123  70.079  1.00  0.00    -0.361 C  
BRANCH  17  18
HETATM   18  C   UNL     1     -11.159  10.035  70.906  1.00  0.00    -0.314 C  
BRANCH  18  19
HETATM   19  N   UNL     1     -11.633   8.643  70.756  1.00  0.00    -0.270 NA 
BRANCH  19  20
HETATM   20  C   UNL     1     -11.829   8.066  72.099  1.00  0.00    -0.349 C  
HETATM   21  C   UNL     1     -10.539   7.738  72.838  1.00  0.00    -0.428 C  
ENDBRANCH  19  20
BRANCH  19  22
HETATM   22  C   UNL     1     -10.789   7.838  69.866  1.00  0.00    -0.226 C  
HETATM   23  C   UNL     1     -11.314   6.451  69.506  1.00  0.00    -0.460 C  
ENDBRANCH  19  22
ENDBRANCH  18  19
ENDBRANCH  17  18
ENDBRANCH  16  17
ENDBRANCH  14  16
ENDBRANCH  13  14
ENDBRANCH   4   5
ENDBRANCH   3   4
ENDBRANCH   2   3
TORSDOF 10
ENDMDL
MODEL      139
REMARK 921   NORMALIZED FREE ENERGY PREDICTED BY IDOCK:   -3.98 KCAL/MOL
REMARK 922        TOTAL FREE ENERGY PREDICTED BY IDOCK:   -7.36 KCAL/MOL
REMARK 923 INTER-LIGAND FREE ENERGY PREDICTED BY IDOCK:   -6.42 KCAL/MOL
REMARK 924 INTRA-LIGAND FREE ENERGY PREDICTED BY IDOCK:   -0.94 KCAL/MOL
REMARK 927      BINDING AFFINITY PREDICTED BY RF-SCORE:    0.00 PKD
ROOT
HETATM    1  C   UNL     1      -9.864  10.809  65.385  1.00  0.00    -0.317 C  
HETATM    2  C   UNL     1      -8.695  10.964  66.347  1.00  0.00    -0.174 C  
ENDROOT
BRANCH   2   3
HETATM    3  C   UNL     1      -8.529  12.421  66.762  1.00  0.00    -0.095 C  
BRANCH   3   4
HETATM    4  O   UNL     1      -8.908  12.576  68.132  1.00  0.00    -0.182 OA 
BRANCH   4   5
HETATM    5  C   UNL     1      -9.847  13.540  68.409  1.00  0.00    -0.225 A  
HETATM    6  C   UNL     1      -9.573  14.917  68.358  1.00  0.00    -0.209 A  
HETATM    7  C   UNL     1     -10.537  15.877  68.684  1.00  0.00    -0.250 A  
HETATM    8  C   UNL     1     -11.839  15.458  68.938  1.00  0.00    -0.350 A  
HETATM    9  N   UNL     1     -10.247  17.237  68.534  1.00  0.00    -0.335 NA 
HETATM   10  H1  UNL     1     -10.950  17.937  68.772  1.00  0.00     0.000 HD 
HETATM   11  C   UNL     1     -12.142  14.100  68.988  1.00  0.00    -0.348 A  
HETATM   12  H2  UNL     1      -9.944  17.398  67.574  1.00  0.00     0.000 HD 
HETATM   13  C   UNL     1     -11.150  13.134  68.747  1.00  0.00    -0.309 A  
BRANCH  13  14
HETATM   14  C   UNL     1     -11.573  11.725  68.974  1.00  0.00    -0.311 C  
HETATM   15  O   UNL     1     -12.158  11.058  68.132  1.00  0.00    -0.610 OA 
BRANCH  14  16
HETATM   16  O   UNL     1     -11.461  11.423  70.288  1.00  0.00    -0.277 OA 
BRANCH  16  17
HETATM   17  C   UNL     1     -12.360  10.409  70.762  1.00  0.00    -0.367 C  
BRANCH  17  18
HETATM   18  C   UNL     1     -11.496   9.162  71.019  1.00  0.00    -0.306 C  
BRANCH  18  19
HETATM   19  N   UNL     1     -12.079   8.080  71.838  1.00  0.00    -0.301 NA 
BRANCH  19  20
HETATM   20  C   UNL     1     -11.229   7.878  73.025  1.00  0.00    -0.283 C  
HETATM   21  C   UNL     1      -9.739   8.069  72.772  1.00  0.00    -0.348 C  
ENDBRANCH  19  20
BRANCH  19  22
HETATM   22  C   UNL     1     -12.354   6.858  71.072  1.00  0.00    -0.351 C  
HETATM   23  C   UNL     1     -11.386   6.539  69.937  1.00  0.00    -0.469 C  
ENDBRANCH  19  22
ENDBRANCH  18  19
ENDBRANCH  17  18
ENDBRANCH  16  17
ENDBRANCH  14  16
ENDBRANCH  13  14
ENDBRANCH   4   5
ENDBRANCH   3   4
ENDBRANCH   2   3
TORSDOF 10
ENDMDL
MODEL      140
REMARK 921   NORMALIZED FREE ENERGY PREDICTED BY IDOCK:   -3.95 KCAL/MOL
REMARK 922        TOTAL FREE ENERGY PREDICTED BY IDOCK:   -7.32 KCAL/MOL
REMARK 923 INTER-LIGAND FREE ENERGY PREDICTED BY IDOCK:   -6.24 KCAL/MOL
REMARK 924 INTRA-LIGAND FREE ENERGY PREDICTED BY IDOCK:   -1.08 KCAL/MOL
REMARK 927      BINDING AFFINITY PREDICTED BY RF-SCORE:    0.00 PKD
ROOT
HETATM    1  C   UNL     1      -7.907  11.957  68.436  1.00  0.00    -0.141 C  
HETATM    2  C   UNL     1      -9.325  12.292  67.994  1.00  0.00    -0.195 C  
ENDROOT
BRANCH   2   3
HETATM    3  C   UNL     1     -10.228  11.070  68.112  1.00  0.00    -0.182 C  
BRANCH   3   4
HETATM    4  O   UNL     1     -11.021  10.942  66.929  1.00  0.00    -0.271 OA 
BRANCH   4   5
HETATM    5  C   UNL     1     -10.357  10.619  65.771  1.00  0.00    -0.219 A  
HETATM    6  C   UNL     1      -9.421   9.575  65.687  1.00  0.00    -0.326 A  
HETATM    7  C   UNL     1      -8.729   9.293  64.504  1.00  0.00    -0.187 A  
HETATM    8  C   UNL     1      -9.077   9.980  63.346  1.00  0.00    -0.301 A  
HETATM    9  N   UNL     1      -7.873   8.189  64.441  1.00  0.00    -0.129 NA 
HETATM   10  H1  UNL     1      -7.369   7.983  63.579  1.00  0.00     0.000 HD 
HETATM   11  C   UNL     1     -10.008  11.015  63.397  1.00  0.00    -0.428 A  
HETATM   12  H2  UNL     1      -8.396   7.358  64.715  1.00  0.00     0.000 HD 
HETATM   13  C   UNL     1     -10.635  11.356  64.606  1.00  0.00    -0.380 A  
BRANCH  13  14
HETATM   14  C   UNL     1     -11.496  12.570  64.551  1.00  0.00    -0.337 C  
HETATM   15  O   UNL     1     -12.692  12.531  64.298  1.00  0.00    -0.658 OA 
BRANCH  14  16
HETATM   16  O   UNL     1     -10.719  13.678  64.545  1.00  0.00    -0.399 OA 
BRANCH  16  17
HETATM   17  C   UNL     1     -11.364  14.879  64.995  1.00  0.00    -0.398 C  
BRANCH  17  18
HETATM   18  C   UNL     1     -11.438  14.772  66.528  1.00  0.00    -0.327 C  
BRANCH  18  19
HETATM   19  N   UNL     1     -11.055  15.960  67.318  1.00  0.00    -0.234 NA 
BRANCH  19  20
HETATM   20  C   UNL     1     -10.135  16.784  66.512  1.00  0.00    -0.315 C  
HETATM   21  C   UNL     1      -8.668  16.647  66.897  1.00  0.00    -0.241 C  
ENDBRANCH  19  20
BRANCH  19  22
HETATM   22  C   UNL     1     -10.558  15.628  68.658  1.00  0.00    -0.243 C  
HETATM   23  C   UNL     1     -11.445  16.037  69.831  1.00  0.00    -0.327 C  
ENDBRANCH  19  22
ENDBRANCH  18  19
ENDBRANCH  17  18
ENDBRANCH  16  17
ENDBRANCH  14  16
ENDBRANCH  13  14
ENDBRANCH   4   5
ENDBRANCH   3   4
ENDBRANCH   2   3
TORSDOF 10
ENDMDL
MODEL      141
REMARK 921   NORMALIZED FREE ENERGY PREDICTED BY IDOCK:   -3.95 KCAL/MOL
REMARK 922        TOTAL FREE ENERGY PREDICTED BY IDOCK:   -7.31 KCAL/MOL
REMARK 923 INTER-LIGAND FREE ENERGY PREDICTED BY IDOCK:   -6.23 KCAL/MOL
REMARK 924 INTRA-LIGAND FREE ENERGY PREDICTED BY IDOCK:   -1.08 KCAL/MOL
REMARK 927      BINDING AFFINITY PREDICTED BY RF-SCORE:    0.00 PKD
ROOT
HETATM    1  C   UNL     1     -12.207  12.156  63.459  1.00  0.00    -0.670 C  
HETATM    2  C   UNL     1     -12.882  13.146  64.396  1.00  0.00    -0.122 C  
ENDROOT
BRANCH   2   3
HETATM    3  C   UNL     1     -12.007  13.419  65.613  1.00  0.00    -0.401 C  
BRANCH   3   4
HETATM    4  O   UNL     1     -12.095  12.321  66.524  1.00  0.00    -0.616 OA 
BRANCH   4   5
HETATM    5  C   UNL     1     -10.910  11.824  67.010  1.00  0.00    -0.263 A  
HETATM    6  C   UNL     1      -9.811  11.515  66.191  1.00  0.00    -0.250 A  
HETATM    7  C   UNL     1      -8.631  10.972  66.708  1.00  0.00    -0.152 A  
HETATM    8  C   UNL     1      -8.495  10.858  68.088  1.00  0.00    -0.131 A  
HETATM    9  N   UNL     1      -7.531  10.763  65.869  1.00  0.00    -0.259 NA 
HETATM   10  H1  UNL     1      -6.670  10.367  66.247  1.00  0.00     0.000 HD 
HETATM   11  C   UNL     1      -9.565  11.164  68.926  1.00  0.00    -0.154 A  
HETATM   12  H2  UNL     1      -7.306  11.644  65.408  1.00  0.00     0.000 HD 
HETATM   13  C   UNL     1     -10.781  11.625  68.397  1.00  0.00    -0.248 A  
BRANCH  13  14
HETATM   14  C   UNL     1     -11.884  11.775  69.386  1.00  0.00    -0.334 C  
HETATM   15  O   UNL     1     -12.168  12.841  69.916  1.00  0.00    -0.262 OA 
BRANCH  14  16
HETATM   16  O   UNL     1     -12.303  10.553  69.787  1.00  0.00    -0.250 OA 
BRANCH  16  17
HETATM   17  C   UNL     1     -12.521  10.414  71.200  1.00  0.00    -0.404 C  
BRANCH  17  18
HETATM   18  C   UNL     1     -12.330   8.920  71.513  1.00  0.00    -0.324 C  
BRANCH  18  19
HETATM   19  N   UNL     1     -11.046   8.297  71.130  1.00  0.00    -0.243 NA 
BRANCH  19  20
HETATM   20  C   UNL     1     -11.252   6.845  70.985  1.00  0.00    -0.282 C  
HETATM   21  C   UNL     1     -11.934   6.184  72.175  1.00  0.00    -0.314 C  
ENDBRANCH  19  20
BRANCH  19  22
HETATM   22  C   UNL     1      -9.937   8.668  72.017  1.00  0.00    -0.329 C  
HETATM   23  C   UNL     1      -8.530   8.476  71.458  1.00  0.00    -0.221 C  
ENDBRANCH  19  22
ENDBRANCH  18  19
ENDBRANCH  17  18
ENDBRANCH  16  17
ENDBRANCH  14  16
ENDBRANCH  13  14
ENDBRANCH   4   5
ENDBRANCH   3   4
ENDBRANCH   2   3
TORSDOF 10
ENDMDL
MODEL      142
REMARK 921   NORMALIZED FREE ENERGY PREDICTED BY IDOCK:   -3.94 KCAL/MOL
REMARK 922        TOTAL FREE ENERGY PREDICTED BY IDOCK:   -7.30 KCAL/MOL
REMARK 923 INTER-LIGAND FREE ENERGY PREDICTED BY IDOCK:   -6.26 KCAL/MOL
REMARK 924 INTRA-LIGAND FREE ENERGY PREDICTED BY IDOCK:   -1.05 KCAL/MOL
REMARK 927      BINDING AFFINITY PREDICTED BY RF-SCORE:    0.00 PKD
ROOT
HETATM    1  C   UNL     1     -12.222  13.458  64.372  1.00  0.00    -0.444 C  
HETATM    2  C   UNL     1     -11.789  12.400  63.368  1.00  0.00    -0.571 C  
ENDROOT
BRANCH   2   3
HETATM    3  C   UNL     1     -10.445  11.801  63.763  1.00  0.00    -0.416 C  
BRANCH   3   4
HETATM    4  O   UNL     1     -10.587  11.058  64.975  1.00  0.00    -0.292 OA 
BRANCH   4   5
HETATM    5  C   UNL     1      -9.508  11.046  65.825  1.00  0.00    -0.210 A  
HETATM    6  C   UNL     1      -8.237  10.583  65.448  1.00  0.00    -0.152 A  
HETATM    7  C   UNL     1      -7.165  10.546  66.347  1.00  0.00    -0.129 A  
HETATM    8  C   UNL     1      -7.331  11.106  67.609  1.00  0.00    -0.095 A  
HETATM    9  N   UNL     1      -5.895  10.160  65.904  1.00  0.00    -0.070 NA 
HETATM   10  H1  UNL     1      -5.114  10.133  66.559  1.00  0.00     0.000 HD 
HETATM   11  C   UNL     1      -8.578  11.580  68.008  1.00  0.00    -0.150 A  
HETATM   12  H2  UNL     1      -5.635  10.752  65.116  1.00  0.00     0.000 HD 
HETATM   13  C   UNL     1      -9.676  11.535  67.134  1.00  0.00    -0.199 A  
BRANCH  13  14
HETATM   14  C   UNL     1     -10.978  11.938  67.733  1.00  0.00    -0.228 C  
HETATM   15  O   UNL     1     -11.862  11.140  68.012  1.00  0.00    -0.582 OA 
BRANCH  14  16
HETATM   16  O   UNL     1     -11.118  13.282  67.653  1.00  0.00    -0.255 OA 
BRANCH  16  17
HETATM   17  C   UNL     1     -11.942  13.872  68.670  1.00  0.00    -0.366 C  
BRANCH  17  18
HETATM   18  C   UNL     1     -11.767  15.394  68.526  1.00  0.00    -0.338 C  
BRANCH  18  19
HETATM   19  N   UNL     1     -11.131  16.120  69.644  1.00  0.00    -0.328 NA 
BRANCH  19  20
HETATM   20  C   UNL     1      -9.781  16.539  69.226  1.00  0.00    -0.193 C  
HETATM   21  C   UNL     1      -8.751  15.417  69.209  1.00  0.00    -0.252 C  
ENDBRANCH  19  20
BRANCH  19  22
HETATM   22  C   UNL     1     -11.172  15.381  70.911  1.00  0.00    -0.358 C  
HETATM   23  C   UNL     1     -11.811  16.101  72.096  1.00  0.00    -0.626 C  
ENDBRANCH  19  22
ENDBRANCH  18  19
ENDBRANCH  17  18
ENDBRANCH  16  17
ENDBRANCH  14  16
ENDBRANCH  13  14
ENDBRANCH   4   5
ENDBRANCH   3   4
ENDBRANCH   2   3
TORSDOF 10
ENDMDL
MODEL      143
REMARK 921   NORMALIZED FREE ENERGY PREDICTED BY IDOCK:   -3.93 KCAL/MOL
REMARK 922        TOTAL FREE ENERGY PREDICTED BY IDOCK:   -7.29 KCAL/MOL
REMARK 923 INTER-LIGAND FREE ENERGY PREDICTED BY IDOCK:   -6.40 KCAL/MOL
REMARK 924 INTRA-LIGAND FREE ENERGY PREDICTED BY IDOCK:   -0.88 KCAL/MOL
REMARK 927      BINDING AFFINITY PREDICTED BY RF-SCORE:    0.00 PKD
ROOT
HETATM    1  C   UNL     1     -10.127   4.607  66.030  1.00  0.00    -0.287 C  
HETATM    2  C   UNL     1     -10.577   5.974  66.527  1.00  0.00    -0.238 C  
ENDROOT
BRANCH   2   3
HETATM    3  C   UNL     1     -10.687   5.985  68.046  1.00  0.00    -0.282 C  
BRANCH   3   4
HETATM    4  O   UNL     1     -10.479   7.312  68.534  1.00  0.00    -0.189 OA 
BRANCH   4   5
HETATM    5  C   UNL     1     -10.850   7.561  69.833  1.00  0.00    -0.240 A  
HETATM    6  C   UNL     1     -11.386   6.577  70.681  1.00  0.00    -0.409 A  
HETATM    7  C   UNL     1     -11.793   6.867  71.988  1.00  0.00    -0.310 A  
HETATM    8  C   UNL     1     -11.536   8.133  72.503  1.00  0.00    -0.470 A  
HETATM    9  N   UNL     1     -12.238   5.839  72.825  1.00  0.00    -0.517 NA 
HETATM   10  H1  UNL     1     -12.534   6.050  73.778  1.00  0.00     0.000 HD 
HETATM   11  C   UNL     1     -10.998   9.126  71.688  1.00  0.00    -0.445 A  
HETATM   12  H2  UNL     1     -11.517   5.119  72.864  1.00  0.00     0.000 HD 
HETATM   13  C   UNL     1     -10.673   8.857  70.349  1.00  0.00    -0.261 A  
BRANCH  13  14
HETATM   14  C   UNL     1     -10.244  10.040  69.553  1.00  0.00    -0.234 C  
HETATM   15  O   UNL     1      -9.074  10.375  69.430  1.00  0.00    -0.196 OA 
BRANCH  14  16
HETATM   16  O   UNL     1     -11.323  10.797  69.247  1.00  0.00    -0.242 OA 
BRANCH  16  17
HETATM   17  C   UNL     1     -11.533  11.024  67.845  1.00  0.00    -0.282 C  
BRANCH  17  18
HETATM   18  C   UNL     1     -11.516  12.552  67.656  1.00  0.00    -0.334 C  
BRANCH  18  19
HETATM   19  N   UNL     1     -11.011  13.375  68.773  1.00  0.00    -0.252 NA 
BRANCH  19  20
HETATM   20  C   UNL     1     -12.143  14.112  69.363  1.00  0.00    -0.328 C  
HETATM   21  C   UNL     1     -12.269  13.969  70.874  1.00  0.00    -0.436 C  
ENDBRANCH  19  20
BRANCH  19  22
HETATM   22  C   UNL     1      -9.867  14.215  68.401  1.00  0.00    -0.231 C  
HETATM   23  C   UNL     1      -8.857  13.597  67.438  1.00  0.00    -0.221 C  
ENDBRANCH  19  22
ENDBRANCH  18  19
ENDBRANCH  17  18
ENDBRANCH  16  17
ENDBRANCH  14  16
ENDBRANCH  13  14
ENDBRANCH   4   5
ENDBRANCH   3   4
ENDBRANCH   2   3
TORSDOF 10
ENDMDL
MODEL      144
REMARK 921   NORMALIZED FREE ENERGY PREDICTED BY IDOCK:   -3.93 KCAL/MOL
REMARK 922        TOTAL FREE ENERGY PREDICTED BY IDOCK:   -7.28 KCAL/MOL
REMARK 923 INTER-LIGAND FREE ENERGY PREDICTED BY IDOCK:   -6.19 KCAL/MOL
REMARK 924 INTRA-LIGAND FREE ENERGY PREDICTED BY IDOCK:   -1.08 KCAL/MOL
REMARK 927      BINDING AFFINITY PREDICTED BY RF-SCORE:    0.00 PKD
ROOT
HETATM    1  C   UNL     1     -12.420  13.384  70.696  1.00  0.00    -0.385 C  
HETATM    2  C   UNL     1     -11.539  14.619  70.818  1.00  0.00    -0.289 C  
ENDROOT
BRANCH   2   3
HETATM    3  C   UNL     1     -12.158  15.798  70.078  1.00  0.00    -0.324 C  
BRANCH   3   4
HETATM    4  O   UNL     1     -11.984  15.626  68.670  1.00  0.00    -0.336 OA 
BRANCH   4   5
HETATM    5  C   UNL     1     -10.855  16.176  68.114  1.00  0.00    -0.329 A  
HETATM    6  C   UNL     1     -10.240  17.337  68.611  1.00  0.00    -0.351 A  
HETATM    7  C   UNL     1      -9.113  17.899  68.000  1.00  0.00    -0.267 A  
HETATM    8  C   UNL     1      -8.509  17.212  66.952  1.00  0.00    -0.249 A  
HETATM    9  N   UNL     1      -8.482  19.003  68.580  1.00  0.00    -0.362 NA 
HETATM   10  H1  UNL     1      -7.660  19.412  68.135  1.00  0.00     0.000 HD 
HETATM   11  C   UNL     1      -9.092  16.054  66.443  1.00  0.00    -0.354 A  
HETATM   12  H2  UNL     1      -8.244  18.770  69.544  1.00  0.00     0.000 HD 
HETATM   13  C   UNL     1     -10.274  15.541  67.001  1.00  0.00    -0.271 A  
BRANCH  13  14
HETATM   14  C   UNL     1     -10.867  14.386  66.273  1.00  0.00    -0.313 C  
HETATM   15  O   UNL     1     -11.722  14.507  65.407  1.00  0.00    -0.350 OA 
BRANCH  14  16
HETATM   16  O   UNL     1     -10.528  13.234  66.897  1.00  0.00    -0.258 OA 
BRANCH  16  17
HETATM   17  C   UNL     1     -11.622  12.352  67.192  1.00  0.00    -0.365 C  
BRANCH  17  18
HETATM   18  C   UNL     1     -11.006  10.952  67.358  1.00  0.00    -0.293 C  
BRANCH  18  19
HETATM   19  N   UNL     1      -9.705  10.694  66.706  1.00  0.00    -0.180 NA 
BRANCH  19  20
HETATM   20  C   UNL     1      -9.943   9.931  65.468  1.00  0.00    -0.292 C  
HETATM   21  C   UNL     1      -9.662  10.705  64.187  1.00  0.00    -0.378 C  
ENDBRANCH  19  20
BRANCH  19  22
HETATM   22  C   UNL     1      -8.715  10.095  67.609  1.00  0.00    -0.121 C  
HETATM   23  C   UNL     1      -7.835  11.066  68.389  1.00  0.00    -0.127 C  
ENDBRANCH  19  22
ENDBRANCH  18  19
ENDBRANCH  17  18
ENDBRANCH  16  17
ENDBRANCH  14  16
ENDBRANCH  13  14
ENDBRANCH   4   5
ENDBRANCH   3   4
ENDBRANCH   2   3
TORSDOF 10
ENDMDL
MODEL      145
REMARK 921   NORMALIZED FREE ENERGY PREDICTED BY IDOCK:   -3.91 KCAL/MOL
REMARK 922        TOTAL FREE ENERGY PREDICTED BY IDOCK:   -7.26 KCAL/MOL
REMARK 923 INTER-LIGAND FREE ENERGY PREDICTED BY IDOCK:   -5.94 KCAL/MOL
REMARK 924 INTRA-LIGAND FREE ENERGY PREDICTED BY IDOCK:   -1.32 KCAL/MOL
REMARK 927      BINDING AFFINITY PREDICTED BY RF-SCORE:    0.00 PKD
ROOT
HETATM    1  C   UNL     1     -12.202  11.827  63.102  1.00  0.00    -0.273 C  
HETATM    2  C   UNL     1     -13.036  12.514  64.175  1.00  0.00    -0.233 C  
ENDROOT
BRANCH   2   3
HETATM    3  C   UNL     1     -12.155  12.967  65.333  1.00  0.00    -0.444 C  
BRANCH   3   4
HETATM    4  O   UNL     1     -11.883  11.858  66.192  1.00  0.00    -0.528 OA 
BRANCH   4   5
HETATM    5  C   UNL     1     -10.569  11.647  66.532  1.00  0.00    -0.253 A  
HETATM    6  C   UNL     1      -9.597  11.212  65.616  1.00  0.00    -0.259 A  
HETATM    7  C   UNL     1      -8.274  10.966  65.998  1.00  0.00    -0.155 A  
HETATM    8  C   UNL     1      -7.882  11.289  67.293  1.00  0.00    -0.141 A  
HETATM    9  N   UNL     1      -7.321  10.619  65.035  1.00  0.00    -0.350 NA 
HETATM   10  H1  UNL     1      -6.357  10.440  65.314  1.00  0.00     0.000 HD 
HETATM   11  C   UNL     1      -8.821  11.730  68.222  1.00  0.00    -0.172 A  
HETATM   12  H2  UNL     1      -7.319  11.336  64.310  1.00  0.00     0.000 HD 
HETATM   13  C   UNL     1     -10.168  11.891  67.858  1.00  0.00    -0.203 A  
BRANCH  13  14
HETATM   14  C   UNL     1     -11.089  12.227  68.979  1.00  0.00    -0.236 C  
HETATM   15  O   UNL     1     -11.940  11.456  69.401  1.00  0.00    -0.315 OA 
BRANCH  14  16
HETATM   16  O   UNL     1     -11.019  13.553  69.242  1.00  0.00    -0.216 OA 
BRANCH  16  17
HETATM   17  C   UNL     1     -12.271  14.254  69.193  1.00  0.00    -0.237 C  
BRANCH  17  18
HETATM   18  C   UNL     1     -11.931  15.702  68.800  1.00  0.00    -0.229 C  
BRANCH  18  19
HETATM   19  N   UNL     1     -10.607  15.956  68.196  1.00  0.00    -0.270 NA 
BRANCH  19  20
HETATM   20  C   UNL     1     -10.110  17.256  68.682  1.00  0.00    -0.341 C  
HETATM   21  C   UNL     1     -10.347  18.418  67.727  1.00  0.00    -0.428 C  
ENDBRANCH  19  20
BRANCH  19  22
HETATM   22  C   UNL     1     -10.602  15.811  66.735  1.00  0.00    -0.309 C  
HETATM   23  C   UNL     1      -9.351  15.189  66.121  1.00  0.00    -0.346 C  
ENDBRANCH  19  22
ENDBRANCH  18  19
ENDBRANCH  17  18
ENDBRANCH  16  17
ENDBRANCH  14  16
ENDBRANCH  13  14
ENDBRANCH   4   5
ENDBRANCH   3   4
ENDBRANCH   2   3
TORSDOF 10
ENDMDL
MODEL      146
REMARK 921   NORMALIZED FREE ENERGY PREDICTED BY IDOCK:   -3.91 KCAL/MOL
REMARK 922        TOTAL FREE ENERGY PREDICTED BY IDOCK:   -7.25 KCAL/MOL
REMARK 923 INTER-LIGAND FREE ENERGY PREDICTED BY IDOCK:   -6.80 KCAL/MOL
REMARK 924 INTRA-LIGAND FREE ENERGY PREDICTED BY IDOCK:   -0.45 KCAL/MOL
REMARK 927      BINDING AFFINITY PREDICTED BY RF-SCORE:    0.00 PKD
ROOT
HETATM    1  C   UNL     1     -11.985  12.595  63.347  1.00  0.00    -0.613 C  
HETATM    2  C   UNL     1     -12.606  12.792  64.723  1.00  0.00    -0.518 C  
ENDROOT
BRANCH   2   3
HETATM    3  C   UNL     1     -11.853  13.861  65.505  1.00  0.00    -0.362 C  
BRANCH   3   4
HETATM    4  O   UNL     1     -11.956  13.594  66.906  1.00  0.00    -0.386 OA 
BRANCH   4   5
HETATM    5  C   UNL     1     -11.126  12.624  67.414  1.00  0.00    -0.273 A  
HETATM    6  C   UNL     1     -11.454  11.258  67.422  1.00  0.00    -0.300 A  
HETATM    7  C   UNL     1     -10.607  10.296  67.983  1.00  0.00    -0.231 A  
HETATM    8  C   UNL     1      -9.348  10.690  68.424  1.00  0.00    -0.163 A  
HETATM    9  N   UNL     1     -10.932   8.939  67.890  1.00  0.00    -0.493 NA 
HETATM   10  H1  UNL     1     -10.314   8.238  68.298  1.00  0.00     0.000 HD 
HETATM   11  C   UNL     1      -8.991  12.036  68.420  1.00  0.00    -0.153 A  
HETATM   12  H2  UNL     1     -11.077   8.709  66.907  1.00  0.00     0.000 HD 
HETATM   13  C   UNL     1      -9.880  13.011  67.939  1.00  0.00    -0.224 A  
BRANCH  13  14
HETATM   14  C   UNL     1      -9.434  14.419  68.126  1.00  0.00    -0.204 C  
HETATM   15  O   UNL     1      -9.958  15.189  68.919  1.00  0.00    -0.210 OA 
BRANCH  14  16
HETATM   16  O   UNL     1      -8.590  14.765  67.126  1.00  0.00    -0.200 OA 
BRANCH  16  17
HETATM   17  C   UNL     1      -9.054  15.821  66.271  1.00  0.00    -0.338 C  
BRANCH  17  18
HETATM   18  C   UNL     1      -8.422  17.115  66.815  1.00  0.00    -0.235 C  
BRANCH  18  19
HETATM   19  N   UNL     1      -8.219  18.230  65.867  1.00  0.00    -0.508 NA 
BRANCH  19  20
HETATM   20  C   UNL     1      -6.772  18.390  65.635  1.00  0.00    -0.269 C  
HETATM   21  C   UNL     1      -5.978  18.800  66.868  1.00  0.00    -0.170 C  
ENDBRANCH  19  20
BRANCH  19  22
HETATM   22  C   UNL     1      -8.911  19.461  66.266  1.00  0.00    -0.351 C  
HETATM   23  C   UNL     1     -10.433  19.446  66.162  1.00  0.00    -0.600 C  
ENDBRANCH  19  22
ENDBRANCH  18  19
ENDBRANCH  17  18
ENDBRANCH  16  17
ENDBRANCH  14  16
ENDBRANCH  13  14
ENDBRANCH   4   5
ENDBRANCH   3   4
ENDBRANCH   2   3
TORSDOF 10
ENDMDL
MODEL      147
REMARK 921   NORMALIZED FREE ENERGY PREDICTED BY IDOCK:   -3.91 KCAL/MOL
REMARK 922        TOTAL FREE ENERGY PREDICTED BY IDOCK:   -7.25 KCAL/MOL
REMARK 923 INTER-LIGAND FREE ENERGY PREDICTED BY IDOCK:   -6.08 KCAL/MOL
REMARK 924 INTRA-LIGAND FREE ENERGY PREDICTED BY IDOCK:   -1.17 KCAL/MOL
REMARK 927      BINDING AFFINITY PREDICTED BY RF-SCORE:    0.00 PKD
ROOT
HETATM    1  C   UNL     1      -8.757   9.843  66.458  1.00  0.00    -0.139 C  
HETATM    2  C   UNL     1      -8.133  10.102  67.822  1.00  0.00    -0.109 C  
ENDROOT
BRANCH   2   3
HETATM    3  C   UNL     1      -7.975  11.597  68.066  1.00  0.00    -0.132 C  
BRANCH   3   4
HETATM    4  O   UNL     1      -8.693  12.326  67.068  1.00  0.00    -0.188 OA 
BRANCH   4   5
HETATM    5  C   UNL     1      -9.376  13.442  67.488  1.00  0.00    -0.218 A  
HETATM    6  C   UNL     1      -8.738  14.613  67.931  1.00  0.00    -0.169 A  
HETATM    7  C   UNL     1      -9.458  15.721  68.390  1.00  0.00    -0.196 A  
HETATM    8  C   UNL     1     -10.844  15.710  68.280  1.00  0.00    -0.298 A  
HETATM    9  N   UNL     1      -8.785  16.896  68.738  1.00  0.00    -0.260 NA 
HETATM   10  H1  UNL     1      -9.310  17.704  69.073  1.00  0.00     0.000 HD 
HETATM   11  C   UNL     1     -11.504  14.566  67.836  1.00  0.00    -0.348 A  
HETATM   12  H2  UNL     1      -8.214  17.188  67.945  1.00  0.00     0.000 HD 
HETATM   13  C   UNL     1     -10.782  13.422  67.460  1.00  0.00    -0.263 A  
BRANCH  13  14
HETATM   14  C   UNL     1     -11.611  12.227  67.145  1.00  0.00    -0.353 C  
HETATM   15  O   UNL     1     -11.854  11.861  66.003  1.00  0.00    -0.497 OA 
BRANCH  14  16
HETATM   16  O   UNL     1     -12.248  11.808  68.264  1.00  0.00    -0.486 OA 
BRANCH  16  17
HETATM   17  C   UNL     1     -11.556  10.806  69.024  1.00  0.00    -0.299 C  
BRANCH  17  18
HETATM   18  C   UNL     1     -11.944  11.045  70.493  1.00  0.00    -0.379 C  
BRANCH  18  19
HETATM   19  N   UNL     1     -12.004   9.870  71.387  1.00  0.00    -0.389 NA 
BRANCH  19  20
HETATM   20  C   UNL     1     -11.379   8.725  70.699  1.00  0.00    -0.254 C  
HETATM   21  C   UNL     1     -10.019   8.323  71.256  1.00  0.00    -0.243 C  
ENDBRANCH  19  20
BRANCH  19  22
HETATM   22  C   UNL     1     -13.352   9.606  71.905  1.00  0.00    -0.438 C  
HETATM   23  C   UNL     1     -13.820   8.154  71.866  1.00  0.00    -0.424 C  
ENDBRANCH  19  22
ENDBRANCH  18  19
ENDBRANCH  17  18
ENDBRANCH  16  17
ENDBRANCH  14  16
ENDBRANCH  13  14
ENDBRANCH   4   5
ENDBRANCH   3   4
ENDBRANCH   2   3
TORSDOF 10
ENDMDL
MODEL      148
REMARK 921   NORMALIZED FREE ENERGY PREDICTED BY IDOCK:   -3.91 KCAL/MOL
REMARK 922        TOTAL FREE ENERGY PREDICTED BY IDOCK:   -7.25 KCAL/MOL
REMARK 923 INTER-LIGAND FREE ENERGY PREDICTED BY IDOCK:   -6.36 KCAL/MOL
REMARK 924 INTRA-LIGAND FREE ENERGY PREDICTED BY IDOCK:   -0.89 KCAL/MOL
REMARK 927      BINDING AFFINITY PREDICTED BY RF-SCORE:    0.00 PKD
ROOT
HETATM    1  C   UNL     1     -11.090  15.431  68.477  1.00  0.00    -0.295 C  
HETATM    2  C   UNL     1     -10.803  13.943  68.331  1.00  0.00    -0.269 C  
ENDROOT
BRANCH   2   3
HETATM    3  C   UNL     1     -12.093  13.165  68.106  1.00  0.00    -0.184 C  
BRANCH   3   4
HETATM    4  O   UNL     1     -11.803  11.935  67.439  1.00  0.00    -0.571 OA 
BRANCH   4   5
HETATM    5  C   UNL     1     -11.564  12.004  66.088  1.00  0.00    -0.304 A  
HETATM    6  C   UNL     1     -12.130  12.984  65.256  1.00  0.00    -0.484 A  
HETATM    7  C   UNL     1     -11.902  13.007  63.876  1.00  0.00    -0.477 A  
HETATM    8  C   UNL     1     -10.982  12.114  63.336  1.00  0.00    -0.480 A  
HETATM    9  N   UNL     1     -12.414  14.051  63.100  1.00  0.00    -1.070 NA 
HETATM   10  H1  UNL     1     -12.246  14.068  62.094  1.00  0.00     0.000 HD 
HETATM   11  C   UNL     1     -10.399  11.136  64.138  1.00  0.00    -0.423 A  
HETATM   12  H2  UNL     1     -12.092  14.935  63.495  1.00  0.00     0.000 HD 
HETATM   13  C   UNL     1     -10.699  11.059  65.507  1.00  0.00    -0.218 A  
BRANCH  13  14
HETATM   14  C   UNL     1     -10.122   9.883  66.215  1.00  0.00    -0.241 C  
HETATM   15  O   UNL     1     -10.760   9.194  67.000  1.00  0.00    -0.234 OA 
BRANCH  14  16
HETATM   16  O   UNL     1      -8.777   9.881  66.071  1.00  0.00    -0.133 OA 
BRANCH  16  17
HETATM   17  C   UNL     1      -8.226   8.693  65.481  1.00  0.00    -0.135 C  
BRANCH  17  18
HETATM   18  C   UNL     1      -7.440   7.989  66.600  1.00  0.00    -0.089 C  
BRANCH  18  19
HETATM   19  N   UNL     1      -8.000   6.737  67.149  1.00  0.00    -0.115 NA 
BRANCH  19  20
HETATM   20  C   UNL     1      -8.933   6.167  66.161  1.00  0.00    -0.155 C  
HETATM   21  C   UNL     1     -10.074   5.359  66.764  1.00  0.00    -0.246 C  
ENDBRANCH  19  20
BRANCH  19  22
HETATM   22  C   UNL     1      -8.564   6.898  68.495  1.00  0.00    -0.123 C  
HETATM   23  C   UNL     1      -8.140   8.146  69.263  1.00  0.00    -0.117 C  
ENDBRANCH  19  22
ENDBRANCH  18  19
ENDBRANCH  17  18
ENDBRANCH  16  17
ENDBRANCH  14  16
ENDBRANCH  13  14
ENDBRANCH   4   5
ENDBRANCH   3   4
ENDBRANCH   2   3
TORSDOF 10
ENDMDL
MODEL      149
REMARK 921   NORMALIZED FREE ENERGY PREDICTED BY IDOCK:   -3.91 KCAL/MOL
REMARK 922        TOTAL FREE ENERGY PREDICTED BY IDOCK:   -7.25 KCAL/MOL
REMARK 923 INTER-LIGAND FREE ENERGY PREDICTED BY IDOCK:   -6.19 KCAL/MOL
REMARK 924 INTRA-LIGAND FREE ENERGY PREDICTED BY IDOCK:   -1.05 KCAL/MOL
REMARK 927      BINDING AFFINITY PREDICTED BY RF-SCORE:    0.00 PKD
ROOT
HETATM    1  C   UNL     1     -12.605  11.621  63.414  1.00  0.00    -0.305 C  
HETATM    2  C   UNL     1     -11.537  12.701  63.511  1.00  0.00    -0.584 C  
ENDROOT
BRANCH   2   3
HETATM    3  C   UNL     1     -12.153  14.033  63.920  1.00  0.00    -0.311 C  
BRANCH   3   4
HETATM    4  O   UNL     1     -12.314  14.072  65.339  1.00  0.00    -0.427 OA 
BRANCH   4   5
HETATM    5  C   UNL     1     -11.228  14.479  66.075  1.00  0.00    -0.337 A  
HETATM    6  C   UNL     1     -10.393  15.542  65.692  1.00  0.00    -0.407 A  
HETATM    7  C   UNL     1      -9.270  15.910  66.440  1.00  0.00    -0.309 A  
HETATM    8  C   UNL     1      -9.051  15.290  67.666  1.00  0.00    -0.184 A  
HETATM    9  N   UNL     1      -8.519  17.030  66.069  1.00  0.00    -0.517 NA 
HETATM   10  H1  UNL     1      -7.700  17.298  66.615  1.00  0.00     0.000 HD 
HETATM   11  C   UNL     1      -9.866  14.238  68.076  1.00  0.00    -0.224 A  
HETATM   12  H2  UNL     1      -9.145  17.833  66.011  1.00  0.00     0.000 HD 
HETATM   13  C   UNL     1     -10.941  13.811  67.280  1.00  0.00    -0.302 A  
BRANCH  13  14
HETATM   14  C   UNL     1     -11.640  12.589  67.764  1.00  0.00    -0.343 C  
HETATM   15  O   UNL     1     -11.973  12.425  68.929  1.00  0.00    -0.303 OA 
BRANCH  14  16
HETATM   16  O   UNL     1     -11.588  11.629  66.811  1.00  0.00    -0.503 OA 
BRANCH  16  17
HETATM   17  C   UNL     1     -10.642  10.576  67.053  1.00  0.00    -0.253 C  
BRANCH  17  18
HETATM   18  C   UNL     1     -10.348   9.946  65.681  1.00  0.00    -0.045 C  
BRANCH  18  19
HETATM   19  N   UNL     1      -9.238  10.516  64.888  1.00  0.00    -0.199 NA 
BRANCH  19  20
HETATM   20  C   UNL     1      -8.979   9.631  63.738  1.00  0.00    -0.217 C  
HETATM   21  C   UNL     1      -8.511  10.353  62.481  1.00  0.00    -0.214 C  
ENDBRANCH  19  20
BRANCH  19  22
HETATM   22  C   UNL     1      -8.053  10.828  65.695  1.00  0.00    -0.112 C  
HETATM   23  C   UNL     1      -7.202   9.640  66.136  1.00  0.00    -0.098 C  
ENDBRANCH  19  22
ENDBRANCH  18  19
ENDBRANCH  17  18
ENDBRANCH  16  17
ENDBRANCH  14  16
ENDBRANCH  13  14
ENDBRANCH   4   5
ENDBRANCH   3   4
ENDBRANCH   2   3
TORSDOF 10
ENDMDL
MODEL      150
REMARK 921   NORMALIZED FREE ENERGY PREDICTED BY IDOCK:   -3.88 KCAL/MOL
REMARK 922        TOTAL FREE ENERGY PREDICTED BY IDOCK:   -7.21 KCAL/MOL
REMARK 923 INTER-LIGAND FREE ENERGY PREDICTED BY IDOCK:   -6.40 KCAL/MOL
REMARK 924 INTRA-LIGAND FREE ENERGY PREDICTED BY IDOCK:   -0.81 KCAL/MOL
REMARK 927      BINDING AFFINITY PREDICTED BY RF-SCORE:    0.00 PKD
ROOT
HETATM    1  C   UNL     1      -9.484  17.598  66.527  1.00  0.00    -0.294 C  
HETATM    2  C   UNL     1     -10.364  17.265  67.724  1.00  0.00    -0.356 C  
ENDROOT
BRANCH   2   3
HETATM    3  C   UNL     1     -10.924  15.853  67.604  1.00  0.00    -0.298 C  
BRANCH   3   4
HETATM    4  O   UNL     1      -9.924  14.982  67.072  1.00  0.00    -0.238 OA 
BRANCH   4   5
HETATM    5  C   UNL     1     -10.318  14.124  66.074  1.00  0.00    -0.309 A  
HETATM    6  C   UNL     1     -11.204  14.492  65.048  1.00  0.00    -0.384 A  
HETATM    7  C   UNL     1     -11.620  13.586  64.067  1.00  0.00    -0.353 A  
HETATM    8  C   UNL     1     -11.036  12.324  64.032  1.00  0.00    -0.438 A  
HETATM    9  N   UNL     1     -12.432  14.019  63.014  1.00  0.00    -0.988 NA 
HETATM   10  H1  UNL     1     -12.735  13.358  62.298  1.00  0.00     0.000 HD 
HETATM   11  C   UNL     1     -10.148  11.933  65.031  1.00  0.00    -0.297 A  
HETATM   12  H2  UNL     1     -11.973  14.804  62.554  1.00  0.00     0.000 HD 
HETATM   13  C   UNL     1      -9.801  12.816  66.067  1.00  0.00    -0.258 A  
BRANCH  13  14
HETATM   14  C   UNL     1      -8.960  12.226  67.144  1.00  0.00    -0.192 C  
HETATM   15  O   UNL     1      -7.785  11.923  66.987  1.00  0.00    -0.157 OA 
BRANCH  14  16
HETATM   16  O   UNL     1      -9.747  11.841  68.176  1.00  0.00    -0.180 OA 
BRANCH  16  17
HETATM   17  C   UNL     1      -9.360  10.616  68.817  1.00  0.00    -0.180 C  
BRANCH  17  18
HETATM   18  C   UNL     1     -10.596   9.701  68.765  1.00  0.00    -0.216 C  
BRANCH  18  19
HETATM   19  N   UNL     1     -10.753   8.699  69.840  1.00  0.00    -0.229 NA 
BRANCH  19  20
HETATM   20  C   UNL     1     -11.370   9.355  71.007  1.00  0.00    -0.337 C  
HETATM   21  C   UNL     1     -11.156   8.625  72.326  1.00  0.00    -0.395 C  
ENDBRANCH  19  20
BRANCH  19  22
HETATM   22  C   UNL     1      -9.514   7.970  70.136  1.00  0.00    -0.160 C  
HETATM   23  C   UNL     1      -9.222   6.750  69.268  1.00  0.00    -0.141 C  
ENDBRANCH  19  22
ENDBRANCH  18  19
ENDBRANCH  17  18
ENDBRANCH  16  17
ENDBRANCH  14  16
ENDBRANCH  13  14
ENDBRANCH   4   5
ENDBRANCH   3   4
ENDBRANCH   2   3
TORSDOF 10
ENDMDL
MODEL      151
REMARK 921   NORMALIZED FREE ENERGY PREDICTED BY IDOCK:   -3.86 KCAL/MOL
REMARK 922        TOTAL FREE ENERGY PREDICTED BY IDOCK:   -7.17 KCAL/MOL
REMARK 923 INTER-LIGAND FREE ENERGY PREDICTED BY IDOCK:   -6.13 KCAL/MOL
REMARK 924 INTRA-LIGAND FREE ENERGY PREDICTED BY IDOCK:   -1.04 KCAL/MOL
REMARK 927      BINDING AFFINITY PREDICTED BY RF-SCORE:    0.00 PKD
ROOT
HETATM    1  C   UNL     1     -10.168  13.338  66.682  1.00  0.00    -0.265 C  
HETATM    2  C   UNL     1      -9.424  13.875  67.897  1.00  0.00    -0.212 C  
ENDROOT
BRANCH   2   3
HETATM    3  C   UNL     1     -10.374  14.626  68.821  1.00  0.00    -0.248 C  
BRANCH   3   4
HETATM    4  O   UNL     1     -11.667  14.020  68.777  1.00  0.00    -0.308 OA 
BRANCH   4   5
HETATM    5  C   UNL     1     -12.332  13.890  69.972  1.00  0.00    -0.316 A  
HETATM    6  C   UNL     1     -12.745  14.988  70.746  1.00  0.00    -0.438 A  
HETATM    7  C   UNL     1     -13.385  14.826  71.979  1.00  0.00    -0.363 A  
HETATM    8  C   UNL     1     -13.739  13.544  72.385  1.00  0.00    -0.704 A  
HETATM    9  N   UNL     1     -13.857  15.944  72.674  1.00  0.00    -0.510 NA 
HETATM   10  H1  UNL     1     -14.324  15.826  73.573  1.00  0.00     0.000 HD 
HETATM   11  C   UNL     1     -13.351  12.437  71.635  1.00  0.00    -0.271 A  
HETATM   12  H2  UNL     1     -14.474  16.471  72.056  1.00  0.00     0.000 HD 
HETATM   13  C   UNL     1     -12.629  12.598  70.440  1.00  0.00    -0.115 A  
BRANCH  13  14
HETATM   14  C   UNL     1     -12.153  11.334  69.815  1.00  0.00    -0.325 C  
HETATM   15  O   UNL     1     -12.388  11.032  68.653  1.00  0.00    -0.539 OA 
BRANCH  14  16
HETATM   16  O   UNL     1     -11.692  10.498  70.774  1.00  0.00    -0.326 OA 
BRANCH  16  17
HETATM   17  C   UNL     1     -11.141   9.261  70.295  1.00  0.00    -0.251 C  
BRANCH  17  18
HETATM   18  C   UNL     1      -9.616   9.386  70.454  1.00  0.00    -0.266 C  
BRANCH  18  19
HETATM   19  N   UNL     1      -8.777   9.095  69.273  1.00  0.00    -0.135 NA 
BRANCH  19  20
HETATM   20  C   UNL     1      -9.655   8.942  68.099  1.00  0.00    -0.145 C  
HETATM   21  C   UNL     1      -9.135   9.607  66.832  1.00  0.00    -0.160 C  
ENDBRANCH  19  20
BRANCH  19  22
HETATM   22  C   UNL     1      -7.847   7.980  69.486  1.00  0.00    -0.105 C  
HETATM   23  C   UNL     1      -8.432   6.576  69.361  1.00  0.00    -0.127 C  
ENDBRANCH  19  22
ENDBRANCH  18  19
ENDBRANCH  17  18
ENDBRANCH  16  17
ENDBRANCH  14  16
ENDBRANCH  13  14
ENDBRANCH   4   5
ENDBRANCH   3   4
ENDBRANCH   2   3
TORSDOF 10
ENDMDL
MODEL      152
REMARK 921   NORMALIZED FREE ENERGY PREDICTED BY IDOCK:   -3.86 KCAL/MOL
REMARK 922        TOTAL FREE ENERGY PREDICTED BY IDOCK:   -7.17 KCAL/MOL
REMARK 923 INTER-LIGAND FREE ENERGY PREDICTED BY IDOCK:   -6.32 KCAL/MOL
REMARK 924 INTRA-LIGAND FREE ENERGY PREDICTED BY IDOCK:   -0.85 KCAL/MOL
REMARK 927      BINDING AFFINITY PREDICTED BY RF-SCORE:    0.00 PKD
ROOT
HETATM    1  C   UNL     1      -7.101  12.035  68.654  1.00  0.00    -0.103 C  
HETATM    2  C   UNL     1      -6.945  13.027  67.510  1.00  0.00    -0.155 C  
ENDROOT
BRANCH   2   3
HETATM    3  C   UNL     1      -7.499  14.391  67.901  1.00  0.00    -0.152 C  
BRANCH   3   4
HETATM    4  O   UNL     1      -8.604  14.721  67.056  1.00  0.00    -0.215 OA 
BRANCH   4   5
HETATM    5  C   UNL     1      -8.862  16.057  66.868  1.00  0.00    -0.231 A  
HETATM    6  C   UNL     1      -7.931  16.951  66.314  1.00  0.00    -0.350 A  
HETATM    7  C   UNL     1      -8.206  18.315  66.171  1.00  0.00    -0.139 A  
HETATM    8  C   UNL     1      -9.486  18.773  66.463  1.00  0.00    -0.353 A  
HETATM    9  N   UNL     1      -7.283  19.151  65.533  1.00  0.00    -0.469 NA 
HETATM   10  H1  UNL     1      -7.485  20.145  65.429  1.00  0.00     0.000 HD 
HETATM   11  C   UNL     1     -10.434  17.909  67.007  1.00  0.00    -0.345 A  
HETATM   12  H2  UNL     1      -7.081  18.764  64.612  1.00  0.00     0.000 HD 
HETATM   13  C   UNL     1     -10.125  16.557  67.233  1.00  0.00    -0.273 A  
BRANCH  13  14
HETATM   14  C   UNL     1     -11.175  15.781  67.949  1.00  0.00    -0.313 C  
HETATM   15  O   UNL     1     -11.439  15.945  69.133  1.00  0.00    -0.338 OA 
BRANCH  14  16
HETATM   16  O   UNL     1     -11.563  14.732  67.188  1.00  0.00    -0.370 OA 
BRANCH  16  17
HETATM   17  C   UNL     1     -12.053  13.596  67.917  1.00  0.00    -0.283 C  
BRANCH  17  18
HETATM   18  C   UNL     1     -11.679  12.361  67.078  1.00  0.00    -0.353 C  
BRANCH  18  19
HETATM   19  N   UNL     1     -11.188  12.589  65.703  1.00  0.00    -0.305 NA 
BRANCH  19  20
HETATM   20  C   UNL     1     -12.264  12.241  64.757  1.00  0.00    -0.365 C  
HETATM   21  C   UNL     1     -12.163  12.936  63.406  1.00  0.00    -0.574 C  
ENDBRANCH  19  20
BRANCH  19  22
HETATM   22  C   UNL     1      -9.904  11.932  65.431  1.00  0.00    -0.233 C  
HETATM   23  C   UNL     1      -9.967  10.463  65.026  1.00  0.00    -0.399 C  
ENDBRANCH  19  22
ENDBRANCH  18  19
ENDBRANCH  17  18
ENDBRANCH  16  17
ENDBRANCH  14  16
ENDBRANCH  13  14
ENDBRANCH   4   5
ENDBRANCH   3   4
ENDBRANCH   2   3
TORSDOF 10
ENDMDL
MODEL      153
REMARK 921   NORMALIZED FREE ENERGY PREDICTED BY IDOCK:   -3.85 KCAL/MOL
REMARK 922        TOTAL FREE ENERGY PREDICTED BY IDOCK:   -7.16 KCAL/MOL
REMARK 923 INTER-LIGAND FREE ENERGY PREDICTED BY IDOCK:   -6.44 KCAL/MOL
REMARK 924 INTRA-LIGAND FREE ENERGY PREDICTED BY IDOCK:   -0.73 KCAL/MOL
REMARK 927      BINDING AFFINITY PREDICTED BY RF-SCORE:    0.00 PKD
ROOT
HETATM    1  C   UNL     1     -14.236  14.154  72.114  1.00  0.00    -0.638 C  
HETATM    2  C   UNL     1     -13.370  15.254  71.518  1.00  0.00    -0.559 C  
ENDROOT
BRANCH   2   3
HETATM    3  C   UNL     1     -12.132  14.665  70.852  1.00  0.00    -0.328 C  
BRANCH   3   4
HETATM    4  O   UNL     1     -12.392  14.443  69.465  1.00  0.00    -0.305 OA 
BRANCH   4   5
HETATM    5  C   UNL     1     -12.036  13.217  68.957  1.00  0.00    -0.198 A  
HETATM    6  C   UNL     1     -12.030  12.039  69.722  1.00  0.00    -0.370 A  
HETATM    7  C   UNL     1     -11.625  10.810  69.190  1.00  0.00    -0.305 A  
HETATM    8  C   UNL     1     -11.348  10.731  67.829  1.00  0.00    -0.354 A  
HETATM    9  N   UNL     1     -11.720   9.649  69.963  1.00  0.00    -0.443 NA 
HETATM   10  H1  UNL     1     -11.425   8.753  69.574  1.00  0.00     0.000 HD 
HETATM   11  C   UNL     1     -11.353  11.880  67.043  1.00  0.00    -0.392 A  
HETATM   12  H2  UNL     1     -12.680   9.557  70.291  1.00  0.00     0.000 HD 
HETATM   13  C   UNL     1     -11.673  13.129  67.601  1.00  0.00    -0.414 A  
BRANCH  13  14
HETATM   14  C   UNL     1     -11.501  14.291  66.687  1.00  0.00    -0.364 C  
HETATM   15  O   UNL     1     -11.980  14.336  65.562  1.00  0.00    -0.364 OA 
BRANCH  14  16
HETATM   16  O   UNL     1     -10.545  15.115  67.176  1.00  0.00    -0.282 OA 
BRANCH  16  17
HETATM   17  C   UNL     1      -9.205  14.601  67.117  1.00  0.00    -0.221 C  
BRANCH  17  18
HETATM   18  C   UNL     1      -8.565  14.929  68.477  1.00  0.00    -0.162 C  
BRANCH  18  19
HETATM   19  N   UNL     1      -7.222  15.545  68.472  1.00  0.00    -0.116 NA 
BRANCH  19  20
HETATM   20  C   UNL     1      -6.875  15.903  67.085  1.00  0.00    -0.164 C  
HETATM   21  C   UNL     1      -7.081  17.373  66.744  1.00  0.00    -0.245 C  
ENDBRANCH  19  20
BRANCH  19  22
HETATM   22  C   UNL     1      -6.212  14.733  69.161  1.00  0.00    -0.105 C  
HETATM   23  C   UNL     1      -5.412  13.767  68.293  1.00  0.00    -0.109 C  
ENDBRANCH  19  22
ENDBRANCH  18  19
ENDBRANCH  17  18
ENDBRANCH  16  17
ENDBRANCH  14  16
ENDBRANCH  13  14
ENDBRANCH   4   5
ENDBRANCH   3   4
ENDBRANCH   2   3
TORSDOF 10
ENDMDL
MODEL      154
REMARK 921   NORMALIZED FREE ENERGY PREDICTED BY IDOCK:   -3.85 KCAL/MOL
REMARK 922        TOTAL FREE ENERGY PREDICTED BY IDOCK:   -7.16 KCAL/MOL
REMARK 923 INTER-LIGAND FREE ENERGY PREDICTED BY IDOCK:   -6.37 KCAL/MOL
REMARK 924 INTRA-LIGAND FREE ENERGY PREDICTED BY IDOCK:   -0.79 KCAL/MOL
REMARK 927      BINDING AFFINITY PREDICTED BY RF-SCORE:    0.00 PKD
ROOT
HETATM    1  C   UNL     1     -11.784  15.824  71.461  1.00  0.00    -0.523 C  
HETATM    2  C   UNL     1     -12.711  15.236  70.406  1.00  0.00    -0.400 C  
ENDROOT
BRANCH   2   3
HETATM    3  C   UNL     1     -11.960  14.996  69.102  1.00  0.00    -0.275 C  
BRANCH   3   4
HETATM    4  O   UNL     1     -12.184  13.656  68.658  1.00  0.00    -0.339 OA 
BRANCH   4   5
HETATM    5  C   UNL     1     -11.962  13.400  67.327  1.00  0.00    -0.347 A  
HETATM    6  C   UNL     1     -12.346  14.277  66.299  1.00  0.00    -0.399 A  
HETATM    7  C   UNL     1     -12.143  13.972  64.949  1.00  0.00    -0.420 A  
HETATM    8  C   UNL     1     -11.421  12.829  64.624  1.00  0.00    -0.367 A  
HETATM    9  N   UNL     1     -12.461  14.913  63.965  1.00  0.00    -1.008 NA 
HETATM   10  H1  UNL     1     -12.312  14.691  62.980  1.00  0.00     0.000 HD 
HETATM   11  C   UNL     1     -11.019  11.944  65.621  1.00  0.00    -0.353 A  
HETATM   12  H2  UNL     1     -11.970  15.781  64.177  1.00  0.00     0.000 HD 
HETATM   13  C   UNL     1     -11.304  12.208  66.971  1.00  0.00    -0.398 A  
BRANCH  13  14
HETATM   14  C   UNL     1     -10.948  11.116  67.917  1.00  0.00    -0.253 C  
HETATM   15  O   UNL     1     -10.889  11.272  69.129  1.00  0.00    -0.212 OA 
BRANCH  14  16
HETATM   16  O   UNL     1     -10.452  10.062  67.228  1.00  0.00    -0.225 OA 
BRANCH  16  17
HETATM   17  C   UNL     1      -9.457   9.292  67.920  1.00  0.00    -0.137 C  
BRANCH  17  18
HETATM   18  C   UNL     1      -8.115   9.996  67.652  1.00  0.00    -0.110 C  
BRANCH  18  19
HETATM   19  N   UNL     1      -7.284  10.355  68.820  1.00  0.00    -0.080 NA 
BRANCH  19  20
HETATM   20  C   UNL     1      -7.874   9.741  70.023  1.00  0.00    -0.178 C  
HETATM   21  C   UNL     1      -6.855   9.230  71.034  1.00  0.00    -0.091 C  
ENDBRANCH  19  20
BRANCH  19  22
HETATM   22  C   UNL     1      -7.038  11.797  68.933  1.00  0.00    -0.114 C  
HETATM   23  C   UNL     1      -7.757  12.688  67.924  1.00  0.00    -0.141 C  
ENDBRANCH  19  22
ENDBRANCH  18  19
ENDBRANCH  17  18
ENDBRANCH  16  17
ENDBRANCH  14  16
ENDBRANCH  13  14
ENDBRANCH   4   5
ENDBRANCH   3   4
ENDBRANCH   2   3
TORSDOF 10
ENDMDL
MODEL      155
REMARK 921   NORMALIZED FREE ENERGY PREDICTED BY IDOCK:   -3.84 KCAL/MOL
REMARK 922        TOTAL FREE ENERGY PREDICTED BY IDOCK:   -7.14 KCAL/MOL
REMARK 923 INTER-LIGAND FREE ENERGY PREDICTED BY IDOCK:   -6.24 KCAL/MOL
REMARK 924 INTRA-LIGAND FREE ENERGY PREDICTED BY IDOCK:   -0.90 KCAL/MOL
REMARK 927      BINDING AFFINITY PREDICTED BY RF-SCORE:    0.00 PKD
ROOT
HETATM    1  C   UNL     1     -12.525  11.872  63.482  1.00  0.00    -0.609 C  
HETATM    2  C   UNL     1     -11.774  12.573  64.605  1.00  0.00    -0.416 C  
ENDROOT
BRANCH   2   3
HETATM    3  C   UNL     1     -12.512  13.832  65.042  1.00  0.00    -0.416 C  
BRANCH   3   4
HETATM    4  O   UNL     1     -12.392  13.994  66.457  1.00  0.00    -0.457 OA 
BRANCH   4   5
HETATM    5  C   UNL     1     -11.323  14.731  66.907  1.00  0.00    -0.355 A  
HETATM    6  C   UNL     1     -10.716  15.747  66.151  1.00  0.00    -0.293 A  
HETATM    7  C   UNL     1      -9.603  16.455  66.619  1.00  0.00    -0.256 A  
HETATM    8  C   UNL     1      -9.170  16.234  67.922  1.00  0.00    -0.201 A  
HETATM    9  N   UNL     1      -9.086  17.517  65.871  1.00  0.00    -0.516 NA 
HETATM   10  H1  UNL     1      -8.275  18.033  66.212  1.00  0.00     0.000 HD 
HETATM   11  C   UNL     1      -9.758  15.238  68.698  1.00  0.00    -0.212 A  
HETATM   12  H2  UNL     1      -9.839  18.181  65.691  1.00  0.00     0.000 HD 
HETATM   13  C   UNL     1     -10.818  14.467  68.193  1.00  0.00    -0.246 A  
BRANCH  13  14
HETATM   14  C   UNL     1     -11.256  13.346  69.069  1.00  0.00    -0.275 C  
HETATM   15  O   UNL     1     -11.870  13.512  70.114  1.00  0.00    -0.307 OA 
BRANCH  14  16
HETATM   16  O   UNL     1     -10.646  12.202  68.680  1.00  0.00    -0.223 OA 
BRANCH  16  17
HETATM   17  C   UNL     1     -11.529  11.121  68.345  1.00  0.00    -0.306 C  
BRANCH  17  18
HETATM   18  C   UNL     1     -11.089   9.929  69.213  1.00  0.00    -0.181 C  
BRANCH  18  19
HETATM   19  N   UNL     1      -9.971   9.098  68.721  1.00  0.00    -0.171 NA 
BRANCH  19  20
HETATM   20  C   UNL     1     -10.529   7.937  68.002  1.00  0.00    -0.185 C  
HETATM   21  C   UNL     1      -9.755   7.539  66.753  1.00  0.00    -0.283 C  
ENDBRANCH  19  20
BRANCH  19  22
HETATM   22  C   UNL     1      -9.001   8.756  69.767  1.00  0.00    -0.146 C  
HETATM   23  C   UNL     1      -7.864   9.750  69.988  1.00  0.00    -0.188 C  
ENDBRANCH  19  22
ENDBRANCH  18  19
ENDBRANCH  17  18
ENDBRANCH  16  17
ENDBRANCH  14  16
ENDBRANCH  13  14
ENDBRANCH   4   5
ENDBRANCH   3   4
ENDBRANCH   2   3
TORSDOF 10
ENDMDL
MODEL      156
REMARK 921   NORMALIZED FREE ENERGY PREDICTED BY IDOCK:   -3.84 KCAL/MOL
REMARK 922        TOTAL FREE ENERGY PREDICTED BY IDOCK:   -7.14 KCAL/MOL
REMARK 923 INTER-LIGAND FREE ENERGY PREDICTED BY IDOCK:   -6.54 KCAL/MOL
REMARK 924 INTRA-LIGAND FREE ENERGY PREDICTED BY IDOCK:   -0.60 KCAL/MOL
REMARK 927      BINDING AFFINITY PREDICTED BY RF-SCORE:    0.00 PKD
ROOT
HETATM    1  C   UNL     1     -10.184   7.810  68.849  1.00  0.00    -0.220 C  
HETATM    2  C   UNL     1     -10.304   9.323  68.956  1.00  0.00    -0.228 C  
ENDROOT
BRANCH   2   3
HETATM    3  C   UNL     1     -10.928   9.905  67.693  1.00  0.00    -0.200 C  
BRANCH   3   4
HETATM    4  O   UNL     1     -10.284  11.137  67.362  1.00  0.00    -0.181 OA 
BRANCH   4   5
HETATM    5  C   UNL     1     -10.335  11.529  66.046  1.00  0.00    -0.246 A  
HETATM    6  C   UNL     1     -10.172  10.639  64.972  1.00  0.00    -0.380 A  
HETATM    7  C   UNL     1     -10.188  11.071  63.642  1.00  0.00    -0.372 A  
HETATM    8  C   UNL     1     -10.507  12.399  63.375  1.00  0.00    -0.353 A  
HETATM    9  N   UNL     1     -10.110  10.139  62.602  1.00  0.00    -0.597 NA 
HETATM   10  H1  UNL     1     -10.123  10.455  61.633  1.00  0.00     0.000 HD 
HETATM   11  C   UNL     1     -10.683  13.303  64.419  1.00  0.00    -0.432 A  
HETATM   12  H2  UNL     1     -10.854   9.453  62.728  1.00  0.00     0.000 HD 
HETATM   13  C   UNL     1     -10.577  12.883  65.756  1.00  0.00    -0.293 A  
BRANCH  13  14
HETATM   14  C   UNL     1     -10.642  13.974  66.767  1.00  0.00    -0.277 C  
HETATM   15  O   UNL     1     -11.568  14.101  67.556  1.00  0.00    -0.326 OA 
BRANCH  14  16
HETATM   16  O   UNL     1      -9.702  14.908  66.489  1.00  0.00    -0.249 OA 
BRANCH  16  17
HETATM   17  C   UNL     1      -9.419  15.827  67.555  1.00  0.00    -0.218 C  
BRANCH  17  18
HETATM   18  C   UNL     1      -8.601  16.967  66.925  1.00  0.00    -0.225 C  
BRANCH  18  19
HETATM   19  N   UNL     1      -8.826  18.336  67.436  1.00  0.00    -0.252 NA 
BRANCH  19  20
HETATM   20  C   UNL     1      -9.827  18.275  68.516  1.00  0.00    -0.381 C  
HETATM   21  C   UNL     1      -9.941  19.550  69.341  1.00  0.00    -0.239 C  
ENDBRANCH  19  20
BRANCH  19  22
HETATM   22  C   UNL     1      -9.133  19.304  66.377  1.00  0.00    -0.352 C  
HETATM   23  C   UNL     1     -10.569  19.312  65.861  1.00  0.00    -0.521 C  
ENDBRANCH  19  22
ENDBRANCH  18  19
ENDBRANCH  17  18
ENDBRANCH  16  17
ENDBRANCH  14  16
ENDBRANCH  13  14
ENDBRANCH   4   5
ENDBRANCH   3   4
ENDBRANCH   2   3
TORSDOF 10
ENDMDL
MODEL      157
REMARK 921   NORMALIZED FREE ENERGY PREDICTED BY IDOCK:   -3.84 KCAL/MOL
REMARK 922        TOTAL FREE ENERGY PREDICTED BY IDOCK:   -7.14 KCAL/MOL
REMARK 923 INTER-LIGAND FREE ENERGY PREDICTED BY IDOCK:   -6.42 KCAL/MOL
REMARK 924 INTRA-LIGAND FREE ENERGY PREDICTED BY IDOCK:   -0.72 KCAL/MOL
REMARK 927      BINDING AFFINITY PREDICTED BY RF-SCORE:    0.00 PKD
ROOT
HETATM    1  C   UNL     1     -14.328   7.718  71.579  1.00  0.00    -0.574 C  
HETATM    2  C   UNL     1     -14.234   9.038  72.331  1.00  0.00    -0.416 C  
ENDROOT
BRANCH   2   3
HETATM    3  C   UNL     1     -12.991   9.811  71.909  1.00  0.00    -0.440 C  
BRANCH   3   4
HETATM    4  O   UNL     1     -12.404   9.190  70.764  1.00  0.00    -0.199 OA 
BRANCH   4   5
HETATM    5  C   UNL     1     -11.034   9.230  70.671  1.00  0.00    -0.276 A  
HETATM    6  C   UNL     1     -10.188   8.384  71.408  1.00  0.00    -0.284 A  
HETATM    7  C   UNL     1      -8.794   8.473  71.324  1.00  0.00    -0.190 A  
HETATM    8  C   UNL     1      -8.235   9.334  70.386  1.00  0.00    -0.199 A  
HETATM    9  N   UNL     1      -7.993   7.553  72.008  1.00  0.00    -0.092 NA 
HETATM   10  H1  UNL     1      -6.977   7.618  71.946  1.00  0.00     0.000 HD 
HETATM   11  C   UNL     1      -9.049  10.179  69.636  1.00  0.00    -0.195 A  
HETATM   12  H2  UNL     1      -8.273   6.613  71.730  1.00  0.00     0.000 HD 
HETATM   13  C   UNL     1     -10.445  10.151  69.787  1.00  0.00    -0.301 A  
BRANCH  13  14
HETATM   14  C   UNL     1     -11.183  11.202  69.034  1.00  0.00    -0.256 C  
HETATM   15  O   UNL     1     -12.128  10.958  68.296  1.00  0.00    -0.562 OA 
BRANCH  14  16
HETATM   16  O   UNL     1     -10.491  12.364  69.079  1.00  0.00    -0.135 OA 
BRANCH  16  17
HETATM   17  C   UNL     1     -10.977  13.400  68.213  1.00  0.00    -0.259 C  
BRANCH  17  18
HETATM   18  C   UNL     1     -11.652  14.437  69.129  1.00  0.00    -0.307 C  
BRANCH  18  19
HETATM   19  N   UNL     1     -10.791  15.462  69.754  1.00  0.00    -0.267 NA 
BRANCH  19  20
HETATM   20  C   UNL     1     -11.316  15.760  71.099  1.00  0.00    -0.389 C  
HETATM   21  C   UNL     1     -12.836  15.771  71.194  1.00  0.00    -0.468 C  
ENDBRANCH  19  20
BRANCH  19  22
HETATM   22  C   UNL     1     -10.589  16.642  68.906  1.00  0.00    -0.337 C  
HETATM   23  C   UNL     1      -9.144  17.086  68.695  1.00  0.00    -0.271 C  
ENDBRANCH  19  22
ENDBRANCH  18  19
ENDBRANCH  17  18
ENDBRANCH  16  17
ENDBRANCH  14  16
ENDBRANCH  13  14
ENDBRANCH   4   5
ENDBRANCH   3   4
ENDBRANCH   2   3
TORSDOF 10
ENDMDL
MODEL      158
REMARK 921   NORMALIZED FREE ENERGY PREDICTED BY IDOCK:   -3.83 KCAL/MOL
REMARK 922        TOTAL FREE ENERGY PREDICTED BY IDOCK:   -7.12 KCAL/MOL
REMARK 923 INTER-LIGAND FREE ENERGY PREDICTED BY IDOCK:   -6.27 KCAL/MOL
REMARK 924 INTRA-LIGAND FREE ENERGY PREDICTED BY IDOCK:   -0.85 KCAL/MOL
REMARK 927      BINDING AFFINITY PREDICTED BY RF-SCORE:    0.00 PKD
ROOT
HETATM    1  C   UNL     1     -10.310  14.435  68.940  1.00  0.00    -0.233 C  
HETATM    2  C   UNL     1     -11.411  13.475  68.509  1.00  0.00    -0.327 C  
ENDROOT
BRANCH   2   3
HETATM    3  C   UNL     1     -11.951  12.704  69.706  1.00  0.00    -0.295 C  
BRANCH   3   4
HETATM    4  O   UNL     1     -12.388  11.409  69.287  1.00  0.00    -0.291 OA 
BRANCH   4   5
HETATM    5  C   UNL     1     -12.280  10.392  70.204  1.00  0.00    -0.229 A  
HETATM    6  C   UNL     1     -13.191  10.206  71.257  1.00  0.00    -0.453 A  
HETATM    7  C   UNL     1     -13.035   9.185  72.201  1.00  0.00    -0.425 A  
HETATM    8  C   UNL     1     -12.024   8.249  72.012  1.00  0.00    -0.405 A  
HETATM    9  N   UNL     1     -14.013   8.983  73.180  1.00  0.00    -1.215 NA 
HETATM   10  H1  UNL     1     -13.899   8.238  73.867  1.00  0.00     0.000 HD 
HETATM   11  C   UNL     1     -11.110   8.403  70.972  1.00  0.00    -0.298 A  
HETATM   12  H2  UNL     1     -14.913   8.859  72.716  1.00  0.00     0.000 HD 
HETATM   13  C   UNL     1     -11.216   9.481  70.078  1.00  0.00    -0.243 A  
BRANCH  13  14
HETATM   14  C   UNL     1     -10.096   9.607  69.106  1.00  0.00    -0.189 C  
HETATM   15  O   UNL     1      -9.113  10.308  69.304  1.00  0.00    -0.182 OA 
BRANCH  14  16
HETATM   16  O   UNL     1     -10.463   9.074  67.917  1.00  0.00    -0.231 OA 
BRANCH  16  17
HETATM   17  C   UNL     1      -9.940   9.742  66.759  1.00  0.00    -0.218 C  
BRANCH  17  18
HETATM   18  C   UNL     1      -9.359   8.637  65.859  1.00  0.00    -0.195 C  
BRANCH  18  19
HETATM   19  N   UNL     1      -8.228   8.994  64.978  1.00  0.00    -0.143 NA 
BRANCH  19  20
HETATM   20  C   UNL     1      -6.979   8.897  65.754  1.00  0.00    -0.080 C  
HETATM   21  C   UNL     1      -6.330  10.237  66.073  1.00  0.00    -0.102 C  
ENDBRANCH  19  20
BRANCH  19  22
HETATM   22  C   UNL     1      -8.416  10.275  64.287  1.00  0.00    -0.179 C  
HETATM   23  C   UNL     1      -9.416  10.283  63.135  1.00  0.00    -0.337 C  
ENDBRANCH  19  22
ENDBRANCH  18  19
ENDBRANCH  17  18
ENDBRANCH  16  17
ENDBRANCH  14  16
ENDBRANCH  13  14
ENDBRANCH   4   5
ENDBRANCH   3   4
ENDBRANCH   2   3
TORSDOF 10
ENDMDL
MODEL      159
REMARK 921   NORMALIZED FREE ENERGY PREDICTED BY IDOCK:   -3.83 KCAL/MOL
REMARK 922        TOTAL FREE ENERGY PREDICTED BY IDOCK:   -7.12 KCAL/MOL
REMARK 923 INTER-LIGAND FREE ENERGY PREDICTED BY IDOCK:   -6.36 KCAL/MOL
REMARK 924 INTRA-LIGAND FREE ENERGY PREDICTED BY IDOCK:   -0.76 KCAL/MOL
REMARK 927      BINDING AFFINITY PREDICTED BY RF-SCORE:    0.00 PKD
ROOT
HETATM    1  C   UNL     1     -13.114  10.632  71.767  1.00  0.00    -0.571 C  
HETATM    2  C   UNL     1     -13.520   9.313  72.409  1.00  0.00    -0.526 C  
ENDROOT
BRANCH   2   3
HETATM    3  C   UNL     1     -12.779   8.149  71.763  1.00  0.00    -0.330 C  
BRANCH   3   4
HETATM    4  O   UNL     1     -11.890   8.644  70.759  1.00  0.00    -0.265 OA 
BRANCH   4   5
HETATM    5  C   UNL     1     -10.959   7.761  70.267  1.00  0.00    -0.247 A  
HETATM    6  C   UNL     1     -10.864   6.426  70.694  1.00  0.00    -0.331 A  
HETATM    7  C   UNL     1      -9.880   5.559  70.205  1.00  0.00    -0.198 A  
HETATM    8  C   UNL     1      -9.060   5.996  69.171  1.00  0.00    -0.124 A  
HETATM    9  N   UNL     1      -9.878   4.216  70.592  1.00  0.00    -0.199 NA 
HETATM   10  H1  UNL     1      -9.161   3.584  70.235  1.00  0.00     0.000 HD 
HETATM   11  C   UNL     1      -9.136   7.312  68.721  1.00  0.00    -0.127 A  
HETATM   12  H2  UNL     1     -10.793   3.817  70.381  1.00  0.00     0.000 HD 
HETATM   13  C   UNL     1     -10.065   8.206  69.277  1.00  0.00    -0.202 A  
BRANCH  13  14
HETATM   14  C   UNL     1      -9.944   9.614  68.809  1.00  0.00    -0.173 C  
HETATM   15  O   UNL     1      -9.298  10.465  69.405  1.00  0.00    -0.205 OA 
BRANCH  14  16
HETATM   16  O   UNL     1     -10.849   9.847  67.829  1.00  0.00    -0.268 OA 
BRANCH  16  17
HETATM   17  C   UNL     1     -10.579  10.992  67.006  1.00  0.00    -0.256 C  
BRANCH  17  18
HETATM   18  C   UNL     1     -11.741  11.971  67.247  1.00  0.00    -0.269 C  
BRANCH  18  19
HETATM   19  N   UNL     1     -11.624  13.328  66.674  1.00  0.00    -0.347 NA 
BRANCH  19  20
HETATM   20  C   UNL     1     -11.790  14.312  67.759  1.00  0.00    -0.379 C  
HETATM   21  C   UNL     1     -11.589  13.747  69.159  1.00  0.00    -0.363 C  
ENDBRANCH  19  20
BRANCH  19  22
HETATM   22  C   UNL     1     -12.501  13.545  65.518  1.00  0.00    -0.491 C  
HETATM   23  C   UNL     1     -12.110  14.678  64.574  1.00  0.00    -0.490 C  
ENDBRANCH  19  22
ENDBRANCH  18  19
ENDBRANCH  17  18
ENDBRANCH  16  17
ENDBRANCH  14  16
ENDBRANCH  13  14
ENDBRANCH   4   5
ENDBRANCH   3   4
ENDBRANCH   2   3
TORSDOF 10
ENDMDL
MODEL      160
REMARK 921   NORMALIZED FREE ENERGY PREDICTED BY IDOCK:   -3.82 KCAL/MOL
REMARK 922        TOTAL FREE ENERGY PREDICTED BY IDOCK:   -7.11 KCAL/MOL
REMARK 923 INTER-LIGAND FREE ENERGY PREDICTED BY IDOCK:   -6.22 KCAL/MOL
REMARK 924 INTRA-LIGAND FREE ENERGY PREDICTED BY IDOCK:   -0.88 KCAL/MOL
REMARK 927      BINDING AFFINITY PREDICTED BY RF-SCORE:    0.00 PKD
ROOT
HETATM    1  C   UNL     1     -10.655   5.333  66.413  1.00  0.00    -0.338 C  
HETATM    2  C   UNL     1     -10.884   6.598  67.228  1.00  0.00    -0.456 C  
ENDROOT
BRANCH   2   3
HETATM    3  C   UNL     1     -11.109   6.258  68.697  1.00  0.00    -0.325 C  
BRANCH   3   4
HETATM    4  O   UNL     1     -10.699   7.358  69.512  1.00  0.00    -0.235 OA 
BRANCH   4   5
HETATM    5  C   UNL     1     -10.398   7.078  70.823  1.00  0.00    -0.206 A  
HETATM    6  C   UNL     1      -9.396   6.170  71.205  1.00  0.00    -0.170 A  
HETATM    7  C   UNL     1      -9.136   5.874  72.547  1.00  0.00    -0.135 A  
HETATM    8  C   UNL     1      -9.800   6.598  73.532  1.00  0.00    -0.229 A  
HETATM    9  N   UNL     1      -8.072   5.032  72.884  1.00  0.00    -0.104 NA 
HETATM   10  H1  UNL     1      -7.882   4.816  73.863  1.00  0.00     0.000 HD 
HETATM   11  C   UNL     1     -10.792   7.511  73.184  1.00  0.00    -0.448 A  
HETATM   12  H2  UNL     1      -7.220   5.405  72.466  1.00  0.00     0.000 HD 
HETATM   13  C   UNL     1     -11.114   7.741  71.836  1.00  0.00    -0.302 A  
BRANCH  13  14
HETATM   14  C   UNL     1     -12.287   8.629  71.609  1.00  0.00    -0.333 C  
HETATM   15  O   UNL     1     -13.411   8.207  71.374  1.00  0.00    -0.292 OA 
BRANCH  14  16
HETATM   16  O   UNL     1     -11.866   9.903  71.434  1.00  0.00    -0.369 OA 
BRANCH  16  17
HETATM   17  C   UNL     1     -12.874  10.826  70.996  1.00  0.00    -0.385 C  
BRANCH  17  18
HETATM   18  C   UNL     1     -12.124  12.095  70.553  1.00  0.00    -0.293 C  
BRANCH  18  19
HETATM   19  N   UNL     1     -11.939  12.311  69.104  1.00  0.00    -0.282 NA 
BRANCH  19  20
HETATM   20  C   UNL     1     -10.728  11.591  68.671  1.00  0.00    -0.207 C  
HETATM   21  C   UNL     1     -10.993  10.406  67.752  1.00  0.00    -0.369 C  
ENDBRANCH  19  20
BRANCH  19  22
HETATM   22  C   UNL     1     -11.974  13.728  68.721  1.00  0.00    -0.365 C  
HETATM   23  C   UNL     1     -12.072  14.735  69.863  1.00  0.00    -0.381 C  
ENDBRANCH  19  22
ENDBRANCH  18  19
ENDBRANCH  17  18
ENDBRANCH  16  17
ENDBRANCH  14  16
ENDBRANCH  13  14
ENDBRANCH   4   5
ENDBRANCH   3   4
ENDBRANCH   2   3
TORSDOF 10
ENDMDL
MODEL      161
REMARK 921   NORMALIZED FREE ENERGY PREDICTED BY IDOCK:   -3.81 KCAL/MOL
REMARK 922        TOTAL FREE ENERGY PREDICTED BY IDOCK:   -7.09 KCAL/MOL
REMARK 923 INTER-LIGAND FREE ENERGY PREDICTED BY IDOCK:   -6.68 KCAL/MOL
REMARK 924 INTRA-LIGAND FREE ENERGY PREDICTED BY IDOCK:   -0.41 KCAL/MOL
REMARK 927      BINDING AFFINITY PREDICTED BY RF-SCORE:    0.00 PKD
ROOT
HETATM    1  C   UNL     1      -8.490  16.440  67.892  1.00  0.00    -0.171 C  
HETATM    2  C   UNL     1      -9.499  16.678  69.006  1.00  0.00    -0.236 C  
ENDROOT
BRANCH   2   3
HETATM    3  C   UNL     1     -10.814  15.972  68.702  1.00  0.00    -0.301 C  
BRANCH   3   4
HETATM    4  O   UNL     1     -10.550  14.670  68.174  1.00  0.00    -0.232 OA 
BRANCH   4   5
HETATM    5  C   UNL     1     -11.139  14.357  66.973  1.00  0.00    -0.313 A  
HETATM    6  C   UNL     1     -11.321  15.291  65.939  1.00  0.00    -0.172 A  
HETATM    7  C   UNL     1     -11.960  14.955  64.741  1.00  0.00    -0.361 A  
HETATM    8  C   UNL     1     -12.306  13.627  64.517  1.00  0.00    -0.402 A  
HETATM    9  N   UNL     1     -12.040  15.892  63.705  1.00  0.00    -1.230 NA 
HETATM   10  H1  UNL     1     -12.506  15.647  62.831  1.00  0.00     0.000 HD 
HETATM   11  C   UNL     1     -12.131  12.677  65.521  1.00  0.00    -0.515 A  
HETATM   12  H2  UNL     1     -11.097  16.214  63.488  1.00  0.00     0.000 HD 
HETATM   13  C   UNL     1     -11.570  13.036  66.757  1.00  0.00    -0.420 A  
BRANCH  13  14
HETATM   14  C   UNL     1     -11.574  11.962  67.788  1.00  0.00    -0.323 C  
HETATM   15  O   UNL     1     -11.779  12.173  68.975  1.00  0.00    -0.283 OA 
BRANCH  14  16
HETATM   16  O   UNL     1     -11.058  10.826  67.261  1.00  0.00    -0.306 OA 
BRANCH  16  17
HETATM   17  C   UNL     1      -9.709  10.931  66.781  1.00  0.00    -0.190 C  
BRANCH  17  18
HETATM   18  C   UNL     1      -9.523   9.775  65.782  1.00  0.00    -0.240 C  
BRANCH  18  19
HETATM   19  N   UNL     1      -8.503   9.939  64.727  1.00  0.00    -0.159 NA 
BRANCH  19  20
HETATM   20  C   UNL     1      -9.170   9.871  63.414  1.00  0.00    -0.240 C  
HETATM   21  C   UNL     1      -9.312  11.214  62.710  1.00  0.00    -0.377 C  
ENDBRANCH  19  20
BRANCH  19  22
HETATM   22  C   UNL     1      -7.364   9.026  64.877  1.00  0.00    -0.100 C  
HETATM   23  C   UNL     1      -7.590   7.582  64.438  1.00  0.00    -0.111 C  
ENDBRANCH  19  22
ENDBRANCH  18  19
ENDBRANCH  17  18
ENDBRANCH  16  17
ENDBRANCH  14  16
ENDBRANCH  13  14
ENDBRANCH   4   5
ENDBRANCH   3   4
ENDBRANCH   2   3
TORSDOF 10
ENDMDL
MODEL      162
REMARK 921   NORMALIZED FREE ENERGY PREDICTED BY IDOCK:   -3.76 KCAL/MOL
REMARK 922        TOTAL FREE ENERGY PREDICTED BY IDOCK:   -7.02 KCAL/MOL
REMARK 923 INTER-LIGAND FREE ENERGY PREDICTED BY IDOCK:   -5.75 KCAL/MOL
REMARK 924 INTRA-LIGAND FREE ENERGY PREDICTED BY IDOCK:   -1.27 KCAL/MOL
REMARK 927      BINDING AFFINITY PREDICTED BY RF-SCORE:    0.00 PKD
ROOT
HETATM    1  C   UNL     1      -6.661  10.703  66.097  1.00  0.00    -0.132 C  
HETATM    2  C   UNL     1      -6.463  11.320  67.474  1.00  0.00    -0.072 C  
ENDROOT
BRANCH   2   3
HETATM    3  C   UNL     1      -7.351  12.547  67.648  1.00  0.00    -0.134 C  
BRANCH   3   4
HETATM    4  O   UNL     1      -8.526  12.190  68.378  1.00  0.00    -0.169 OA 
BRANCH   4   5
HETATM    5  C   UNL     1      -9.694  12.816  68.015  1.00  0.00    -0.220 A  
HETATM    6  C   UNL     1      -9.960  14.168  68.290  1.00  0.00    -0.241 A  
HETATM    7  C   UNL     1     -11.175  14.769  67.945  1.00  0.00    -0.306 A  
HETATM    8  C   UNL     1     -12.090  14.043  67.190  1.00  0.00    -0.436 A  
HETATM    9  N   UNL     1     -11.362  16.139  68.158  1.00  0.00    -0.315 NA 
HETATM   10  H1  UNL     1     -12.247  16.578  67.906  1.00  0.00     0.000 HD 
HETATM   11  C   UNL     1     -11.850  12.703  66.895  1.00  0.00    -0.425 A  
HETATM   12  H2  UNL     1     -10.608  16.644  67.693  1.00  0.00     0.000 HD 
HETATM   13  C   UNL     1     -10.668  12.075  67.321  1.00  0.00    -0.269 A  
BRANCH  13  14
HETATM   14  C   UNL     1     -10.604  10.610  67.066  1.00  0.00    -0.262 C  
HETATM   15  O   UNL     1     -10.216  10.131  66.009  1.00  0.00    -0.252 OA 
BRANCH  14  16
HETATM   16  O   UNL     1     -11.276   9.950  68.037  1.00  0.00    -0.214 OA 
BRANCH  16  17
HETATM   17  C   UNL     1     -10.453   9.279  69.004  1.00  0.00    -0.216 C  
BRANCH  17  18
HETATM   18  C   UNL     1     -10.832   9.877  70.370  1.00  0.00    -0.319 C  
BRANCH  18  19
HETATM   19  N   UNL     1     -12.149   9.517  70.935  1.00  0.00    -0.292 NA 
BRANCH  19  20
HETATM   20  C   UNL     1     -12.840  10.755  71.341  1.00  0.00    -0.452 C  
HETATM   21  C   UNL     1     -12.306  12.019  70.681  1.00  0.00    -0.394 C  
ENDBRANCH  19  20
BRANCH  19  22
HETATM   22  C   UNL     1     -12.068   8.494  71.984  1.00  0.00    -0.364 C  
HETATM   23  C   UNL     1     -11.094   7.346  71.737  1.00  0.00    -0.269 C  
ENDBRANCH  19  22
ENDBRANCH  18  19
ENDBRANCH  17  18
ENDBRANCH  16  17
ENDBRANCH  14  16
ENDBRANCH  13  14
ENDBRANCH   4   5
ENDBRANCH   3   4
ENDBRANCH   2   3
TORSDOF 10
ENDMDL
MODEL      163
REMARK 921   NORMALIZED FREE ENERGY PREDICTED BY IDOCK:   -3.75 KCAL/MOL
REMARK 922        TOTAL FREE ENERGY PREDICTED BY IDOCK:   -7.00 KCAL/MOL
REMARK 923 INTER-LIGAND FREE ENERGY PREDICTED BY IDOCK:   -6.15 KCAL/MOL
REMARK 924 INTRA-LIGAND FREE ENERGY PREDICTED BY IDOCK:   -0.85 KCAL/MOL
REMARK 927      BINDING AFFINITY PREDICTED BY RF-SCORE:    0.00 PKD
ROOT
HETATM    1  C   UNL     1      -9.082  17.742  66.610  1.00  0.00    -0.280 C  
HETATM    2  C   UNL     1     -10.422  17.351  66.003  1.00  0.00    -0.278 C  
ENDROOT
BRANCH   2   3
HETATM    3  C   UNL     1     -10.405  15.895  65.553  1.00  0.00    -0.400 C  
BRANCH   3   4
HETATM    4  O   UNL     1     -11.659  15.283  65.860  1.00  0.00    -0.177 OA 
BRANCH   4   5
HETATM    5  C   UNL     1     -11.652  14.304  66.824  1.00  0.00    -0.391 A  
HETATM    6  C   UNL     1     -11.668  14.582  68.201  1.00  0.00    -0.369 A  
HETATM    7  C   UNL     1     -11.619  13.567  69.163  1.00  0.00    -0.310 A  
HETATM    8  C   UNL     1     -11.691  12.243  68.741  1.00  0.00    -0.390 A  
HETATM    9  N   UNL     1     -11.726  13.884  70.520  1.00  0.00    -0.504 NA 
HETATM   10  H1  UNL     1     -11.692  13.144  71.221  1.00  0.00     0.000 HD 
HETATM   11  C   UNL     1     -11.685  11.937  67.382  1.00  0.00    -0.326 A  
HETATM   12  H2  UNL     1     -12.582  14.420  70.660  1.00  0.00     0.000 HD 
HETATM   13  C   UNL     1     -11.643  12.958  66.418  1.00  0.00    -0.425 A  
BRANCH  13  14
HETATM   14  C   UNL     1     -11.495  12.492  65.012  1.00  0.00    -0.326 C  
HETATM   15  O   UNL     1     -12.446  12.236  64.287  1.00  0.00    -0.446 OA 
BRANCH  14  16
HETATM   16  O   UNL     1     -10.206  12.148  64.781  1.00  0.00    -0.272 OA 
BRANCH  16  17
HETATM   17  C   UNL     1     -10.021  10.916  64.067  1.00  0.00    -0.344 C  
BRANCH  17  18
HETATM   18  C   UNL     1      -9.681   9.857  65.131  1.00  0.00    -0.306 C  
BRANCH  18  19
HETATM   19  N   UNL     1      -8.317   9.289  65.122  1.00  0.00    -0.140 NA 
BRANCH  19  20
HETATM   20  C   UNL     1      -7.355  10.372  65.395  1.00  0.00    -0.124 C  
HETATM   21  C   UNL     1      -6.374  10.073  66.521  1.00  0.00    -0.072 C  
ENDBRANCH  19  20
BRANCH  19  22
HETATM   22  C   UNL     1      -8.025   8.506  63.915  1.00  0.00    -0.160 C  
HETATM   23  C   UNL     1      -7.789   7.012  64.117  1.00  0.00    -0.106 C  
ENDBRANCH  19  22
ENDBRANCH  18  19
ENDBRANCH  17  18
ENDBRANCH  16  17
ENDBRANCH  14  16
ENDBRANCH  13  14
ENDBRANCH   4   5
ENDBRANCH   3   4
ENDBRANCH   2   3
TORSDOF 10
ENDMDL
MODEL      164
REMARK 921   NORMALIZED FREE ENERGY PREDICTED BY IDOCK:   -3.74 KCAL/MOL
REMARK 922        TOTAL FREE ENERGY PREDICTED BY IDOCK:   -6.99 KCAL/MOL
REMARK 923 INTER-LIGAND FREE ENERGY PREDICTED BY IDOCK:   -5.97 KCAL/MOL
REMARK 924 INTRA-LIGAND FREE ENERGY PREDICTED BY IDOCK:   -1.02 KCAL/MOL
REMARK 927      BINDING AFFINITY PREDICTED BY RF-SCORE:    0.00 PKD
ROOT
HETATM    1  C   UNL     1     -11.828  15.609  68.758  1.00  0.00    -0.336 C  
HETATM    2  C   UNL     1     -12.075  14.144  68.427  1.00  0.00    -0.308 C  
ENDROOT
BRANCH   2   3
HETATM    3  C   UNL     1     -12.308  13.961  66.932  1.00  0.00    -0.292 C  
BRANCH   3   4
HETATM    4  O   UNL     1     -11.077  14.145  66.228  1.00  0.00    -0.310 OA 
BRANCH   4   5
HETATM    5  C   UNL     1     -10.188  13.098  66.251  1.00  0.00    -0.293 A  
HETATM    6  C   UNL     1     -10.497  11.816  65.767  1.00  0.00    -0.302 A  
HETATM    7  C   UNL     1      -9.586  10.757  65.839  1.00  0.00    -0.208 A  
HETATM    8  C   UNL     1      -8.293  11.016  66.281  1.00  0.00    -0.166 A  
HETATM    9  N   UNL     1      -9.903   9.522  65.264  1.00  0.00    -0.441 NA 
HETATM   10  H1  UNL     1      -9.238   8.750  65.316  1.00  0.00     0.000 HD 
HETATM   11  C   UNL     1      -7.955  12.280  66.760  1.00  0.00     0.010 A  
HETATM   12  H2  UNL     1     -10.145   9.674  64.285  1.00  0.00     0.000 HD 
HETATM   13  C   UNL     1      -8.900  13.319  66.770  1.00  0.00    -0.140 A  
BRANCH  13  14
HETATM   14  C   UNL     1      -8.454  14.572  67.440  1.00  0.00    -0.205 C  
HETATM   15  O   UNL     1      -8.412  14.703  68.655  1.00  0.00    -0.155 OA 
BRANCH  14  16
HETATM   16  O   UNL     1      -8.382  15.572  66.531  1.00  0.00    -0.269 OA 
BRANCH  16  17
HETATM   17  C   UNL     1      -7.395  16.578  66.804  1.00  0.00    -0.239 C  
BRANCH  17  18
HETATM   18  C   UNL     1      -8.177  17.854  67.159  1.00  0.00    -0.216 C  
BRANCH  18  19
HETATM   19  N   UNL     1      -8.654  18.699  66.045  1.00  0.00    -0.490 NA 
BRANCH  19  20
HETATM   20  C   UNL     1      -7.822  19.914  65.987  1.00  0.00    -0.323 C  
HETATM   21  C   UNL     1      -7.287  20.376  67.336  1.00  0.00    -0.359 C  
ENDBRANCH  19  20
BRANCH  19  22
HETATM   22  C   UNL     1     -10.099  18.953  66.089  1.00  0.00    -0.393 C  
HETATM   23  C   UNL     1     -10.723  19.073  67.476  1.00  0.00    -0.532 C  
ENDBRANCH  19  22
ENDBRANCH  18  19
ENDBRANCH  17  18
ENDBRANCH  16  17
ENDBRANCH  14  16
ENDBRANCH  13  14
ENDBRANCH   4   5
ENDBRANCH   3   4
ENDBRANCH   2   3
TORSDOF 10
ENDMDL
MODEL      165
REMARK 921   NORMALIZED FREE ENERGY PREDICTED BY IDOCK:   -3.73 KCAL/MOL
REMARK 922        TOTAL FREE ENERGY PREDICTED BY IDOCK:   -6.97 KCAL/MOL
REMARK 923 INTER-LIGAND FREE ENERGY PREDICTED BY IDOCK:   -6.51 KCAL/MOL
REMARK 924 INTRA-LIGAND FREE ENERGY PREDICTED BY IDOCK:   -0.46 KCAL/MOL
REMARK 927      BINDING AFFINITY PREDICTED BY RF-SCORE:    0.00 PKD
ROOT
HETATM    1  C   UNL     1      -8.052   8.315  72.492  1.00  0.00    -0.209 C  
HETATM    2  C   UNL     1      -8.259   7.342  71.340  1.00  0.00    -0.106 C  
ENDROOT
BRANCH   2   3
HETATM    3  C   UNL     1      -9.691   6.822  71.324  1.00  0.00    -0.172 C  
BRANCH   3   4
HETATM    4  O   UNL     1     -10.457   7.552  70.364  1.00  0.00    -0.215 OA 
BRANCH   4   5
HETATM    5  C   UNL     1     -11.350   8.474  70.855  1.00  0.00    -0.268 A  
HETATM    6  C   UNL     1     -12.356   8.153  71.782  1.00  0.00    -0.357 A  
HETATM    7  C   UNL     1     -13.277   9.103  72.235  1.00  0.00    -0.461 A  
HETATM    8  C   UNL     1     -13.109  10.431  71.857  1.00  0.00    -0.563 A  
HETATM    9  N   UNL     1     -14.205   8.760  73.223  1.00  0.00    -1.147 NA 
HETATM   10  H1  UNL     1     -14.876   9.453  73.554  1.00  0.00     0.000 HD 
HETATM   11  C   UNL     1     -12.115  10.781  70.945  1.00  0.00    -0.475 A  
HETATM   12  H2  UNL     1     -13.698   8.393  74.028  1.00  0.00     0.000 HD 
HETATM   13  C   UNL     1     -11.247   9.808  70.422  1.00  0.00    -0.362 A  
BRANCH  13  14
HETATM   14  C   UNL     1     -10.330  10.290  69.353  1.00  0.00    -0.235 C  
HETATM   15  O   UNL     1      -9.143  10.518  69.541  1.00  0.00    -0.152 OA 
BRANCH  14  16
HETATM   16  O   UNL     1     -11.052  10.681  68.277  1.00  0.00    -0.238 OA 
BRANCH  16  17
HETATM   17  C   UNL     1     -10.437  10.434  67.004  1.00  0.00    -0.251 C  
BRANCH  17  18
HETATM   18  C   UNL     1      -9.376   9.346  67.250  1.00  0.00    -0.131 C  
BRANCH  18  19
HETATM   19  N   UNL     1      -9.555   8.048  66.567  1.00  0.00    -0.222 NA 
BRANCH  19  20
HETATM   20  C   UNL     1     -10.776   7.407  67.088  1.00  0.00    -0.330 C  
HETATM   21  C   UNL     1     -10.751   5.885  67.057  1.00  0.00    -0.396 C  
ENDBRANCH  19  20
BRANCH  19  22
HETATM   22  C   UNL     1      -8.357   7.201  66.614  1.00  0.00    -0.114 C  
HETATM   23  C   UNL     1      -7.341   7.524  67.706  1.00  0.00    -0.103 C  
ENDBRANCH  19  22
ENDBRANCH  18  19
ENDBRANCH  17  18
ENDBRANCH  16  17
ENDBRANCH  14  16
ENDBRANCH  13  14
ENDBRANCH   4   5
ENDBRANCH   3   4
ENDBRANCH   2   3
TORSDOF 10
ENDMDL
MODEL      166
REMARK 921   NORMALIZED FREE ENERGY PREDICTED BY IDOCK:   -3.73 KCAL/MOL
REMARK 922        TOTAL FREE ENERGY PREDICTED BY IDOCK:   -6.96 KCAL/MOL
REMARK 923 INTER-LIGAND FREE ENERGY PREDICTED BY IDOCK:   -6.18 KCAL/MOL
REMARK 924 INTRA-LIGAND FREE ENERGY PREDICTED BY IDOCK:   -0.78 KCAL/MOL
REMARK 927      BINDING AFFINITY PREDICTED BY RF-SCORE:    0.00 PKD
ROOT
HETATM    1  C   UNL     1     -10.473  11.856  66.835  1.00  0.00    -0.253 C  
HETATM    2  C   UNL     1     -11.573  12.293  67.792  1.00  0.00    -0.416 C  
ENDROOT
BRANCH   2   3
HETATM    3  C   UNL     1     -12.032  11.125  68.655  1.00  0.00    -0.219 C  
BRANCH   3   4
HETATM    4  O   UNL     1     -11.299  11.116  69.881  1.00  0.00    -0.273 OA 
BRANCH   4   5
HETATM    5  C   UNL     1     -11.568  10.092  70.757  1.00  0.00    -0.360 A  
HETATM    6  C   UNL     1     -12.740  10.029  71.530  1.00  0.00    -0.532 A  
HETATM    7  C   UNL     1     -12.970   8.995  72.444  1.00  0.00    -0.405 A  
HETATM    8  C   UNL     1     -12.075   7.932  72.489  1.00  0.00    -0.298 A  
HETATM    9  N   UNL     1     -14.189   8.925  73.127  1.00  0.00    -1.200 NA 
HETATM   10  H1  UNL     1     -14.357   8.171  73.793  1.00  0.00     0.000 HD 
HETATM   11  C   UNL     1     -10.909   7.962  71.729  1.00  0.00    -0.286 A  
HETATM   12  H2  UNL     1     -14.943   8.924  72.441  1.00  0.00     0.000 HD 
HETATM   13  C   UNL     1     -10.636   9.046  70.878  1.00  0.00    -0.316 A  
BRANCH  13  14
HETATM   14  C   UNL     1      -9.294   9.021  70.235  1.00  0.00    -0.198 C  
HETATM   15  O   UNL     1      -8.506   9.956  70.293  1.00  0.00    -0.178 OA 
BRANCH  14  16
HETATM   16  O   UNL     1      -9.214   7.968  69.388  1.00  0.00    -0.151 OA 
BRANCH  16  17
HETATM   17  C   UNL     1      -9.939   8.117  68.158  1.00  0.00    -0.186 C  
BRANCH  17  18
HETATM   18  C   UNL     1      -9.195   7.256  67.122  1.00  0.00    -0.135 C  
BRANCH  18  19
HETATM   19  N   UNL     1      -9.343   5.789  67.216  1.00  0.00    -0.112 NA 
BRANCH  19  20
HETATM   20  C   UNL     1      -8.021   5.169  67.015  1.00  0.00    -0.100 C  
HETATM   21  C   UNL     1      -6.970   5.583  68.037  1.00  0.00    -0.065 C  
ENDBRANCH  19  20
BRANCH  19  22
HETATM   22  C   UNL     1     -10.401   5.258  66.348  1.00  0.00    -0.268 C  
HETATM   23  C   UNL     1      -9.960   4.280  65.263  1.00  0.00    -0.229 C  
ENDBRANCH  19  22
ENDBRANCH  18  19
ENDBRANCH  17  18
ENDBRANCH  16  17
ENDBRANCH  14  16
ENDBRANCH  13  14
ENDBRANCH   4   5
ENDBRANCH   3   4
ENDBRANCH   2   3
TORSDOF 10
ENDMDL
MODEL      167
REMARK 921   NORMALIZED FREE ENERGY PREDICTED BY IDOCK:   -3.71 KCAL/MOL
REMARK 922        TOTAL FREE ENERGY PREDICTED BY IDOCK:   -6.94 KCAL/MOL
REMARK 923 INTER-LIGAND FREE ENERGY PREDICTED BY IDOCK:   -6.85 KCAL/MOL
REMARK 924 INTRA-LIGAND FREE ENERGY PREDICTED BY IDOCK:   -0.10 KCAL/MOL
REMARK 927      BINDING AFFINITY PREDICTED BY RF-SCORE:    0.00 PKD
ROOT
HETATM    1  C   UNL     1      -5.437  17.280  66.290  1.00  0.00    -0.161 C  
HETATM    2  C   UNL     1      -6.450  16.960  67.380  1.00  0.00    -0.182 C  
ENDROOT
BRANCH   2   3
HETATM    3  C   UNL     1      -7.160  15.644  67.087  1.00  0.00    -0.168 C  
BRANCH   3   4
HETATM    4  O   UNL     1      -8.422  15.905  66.469  1.00  0.00    -0.266 OA 
BRANCH   4   5
HETATM    5  C   UNL     1      -9.074  17.052  66.853  1.00  0.00    -0.236 A  
HETATM    6  C   UNL     1      -9.003  18.255  66.131  1.00  0.00    -0.115 A  
HETATM    7  C   UNL     1      -9.645  19.419  66.566  1.00  0.00    -0.370 A  
HETATM    8  C   UNL     1     -10.484  19.346  67.673  1.00  0.00    -0.573 A  
HETATM    9  N   UNL     1      -9.621  20.570  65.771  1.00  0.00    -0.567 NA 
HETATM   10  H1  UNL     1     -10.090  21.418  66.088  1.00  0.00     0.000 HD 
HETATM   11  C   UNL     1     -10.580  18.165  68.405  1.00  0.00    -0.215 A  
HETATM   12  H2  UNL     1      -9.979  20.330  64.847  1.00  0.00     0.000 HD 
HETATM   13  C   UNL     1      -9.863  17.021  68.016  1.00  0.00    -0.275 A  
BRANCH  13  14
HETATM   14  C   UNL     1      -9.942  15.875  68.963  1.00  0.00    -0.233 C  
HETATM   15  O   UNL     1      -9.046  15.590  69.746  1.00  0.00    -0.251 OA 
BRANCH  14  16
HETATM   16  O   UNL     1     -10.986  15.081  68.629  1.00  0.00    -0.239 OA 
BRANCH  16  17
HETATM   17  C   UNL     1     -12.183  15.290  69.395  1.00  0.00    -0.213 C  
BRANCH  17  18
HETATM   18  C   UNL     1     -12.351  14.034  70.269  1.00  0.00    -0.358 C  
BRANCH  18  19
HETATM   19  N   UNL     1     -13.523  13.977  71.167  1.00  0.00    -0.243 NA 
BRANCH  19  20
HETATM   20  C   UNL     1     -13.802  15.337  71.663  1.00  0.00    -0.519 C  
HETATM   21  C   UNL     1     -13.301  15.608  73.075  1.00  0.00    -0.668 C  
ENDBRANCH  19  20
BRANCH  19  22
HETATM   22  C   UNL     1     -13.395  12.961  72.219  1.00  0.00    -0.494 C  
HETATM   23  C   UNL     1     -13.035  11.551  71.759  1.00  0.00    -0.500 C  
ENDBRANCH  19  22
ENDBRANCH  18  19
ENDBRANCH  17  18
ENDBRANCH  16  17
ENDBRANCH  14  16
ENDBRANCH  13  14
ENDBRANCH   4   5
ENDBRANCH   3   4
ENDBRANCH   2   3
TORSDOF 10
ENDMDL
MODEL      168
REMARK 921   NORMALIZED FREE ENERGY PREDICTED BY IDOCK:   -3.71 KCAL/MOL
REMARK 922        TOTAL FREE ENERGY PREDICTED BY IDOCK:   -6.94 KCAL/MOL
REMARK 923 INTER-LIGAND FREE ENERGY PREDICTED BY IDOCK:   -5.94 KCAL/MOL
REMARK 924 INTRA-LIGAND FREE ENERGY PREDICTED BY IDOCK:   -1.00 KCAL/MOL
REMARK 927      BINDING AFFINITY PREDICTED BY RF-SCORE:    0.00 PKD
ROOT
HETATM    1  C   UNL     1     -11.751  15.151  69.637  1.00  0.00    -0.353 C  
HETATM    2  C   UNL     1     -12.104  13.947  68.774  1.00  0.00    -0.344 C  
ENDROOT
BRANCH   2   3
HETATM    3  C   UNL     1     -12.476  14.387  67.363  1.00  0.00     0.183 C  
BRANCH   3   4
HETATM    4  O   UNL     1     -11.299  14.460  66.556  1.00  0.00    -0.331 OA 
BRANCH   4   5
HETATM    5  C   UNL     1     -11.012  13.363  65.780  1.00  0.00    -0.277 A  
HETATM    6  C   UNL     1     -11.814  12.951  64.702  1.00  0.00    -0.422 A  
HETATM    7  C   UNL     1     -11.519  11.807  63.953  1.00  0.00    -0.393 A  
HETATM    8  C   UNL     1     -10.327  11.135  64.200  1.00  0.00    -0.423 A  
HETATM    9  N   UNL     1     -12.295  11.485  62.835  1.00  0.00    -0.871 NA 
HETATM   10  H1  UNL     1     -12.080  10.651  62.289  1.00  0.00     0.000 HD 
HETATM   11  C   UNL     1      -9.507  11.525  65.257  1.00  0.00    -0.206 A  
HETATM   12  H2  UNL     1     -12.305  12.288  62.207  1.00  0.00     0.000 HD 
HETATM   13  C   UNL     1      -9.851  12.621  66.064  1.00  0.00    -0.260 A  
BRANCH  13  14
HETATM   14  C   UNL     1      -8.967  12.840  67.242  1.00  0.00    -0.199 C  
HETATM   15  O   UNL     1      -9.229  12.425  68.362  1.00  0.00    -0.197 OA 
BRANCH  14  16
HETATM   16  O   UNL     1      -8.026  13.765  66.938  1.00  0.00    -0.013 OA 
BRANCH  16  17
HETATM   17  C   UNL     1      -8.197  15.043  67.570  1.00  0.00    -0.182 C  
BRANCH  17  18
HETATM   18  C   UNL     1      -7.940  16.094  66.477  1.00  0.00    -0.259 C  
BRANCH  18  19
HETATM   19  N   UNL     1      -8.369  17.482  66.746  1.00  0.00    -0.238 NA 
BRANCH  19  20
HETATM   20  C   UNL     1      -7.408  18.403  66.112  1.00  0.00    -0.255 C  
HETATM   21  C   UNL     1      -6.039  17.794  65.839  1.00  0.00    -0.228 C  
ENDBRANCH  19  20
BRANCH  19  22
HETATM   22  C   UNL     1      -8.615  17.746  68.169  1.00  0.00    -0.262 C  
HETATM   23  C   UNL     1     -10.004  18.260  68.533  1.00  0.00    -0.413 C  
ENDBRANCH  19  22
ENDBRANCH  18  19
ENDBRANCH  17  18
ENDBRANCH  16  17
ENDBRANCH  14  16
ENDBRANCH  13  14
ENDBRANCH   4   5
ENDBRANCH   3   4
ENDBRANCH   2   3
TORSDOF 10
ENDMDL
MODEL      169
REMARK 921   NORMALIZED FREE ENERGY PREDICTED BY IDOCK:   -3.70 KCAL/MOL
REMARK 922        TOTAL FREE ENERGY PREDICTED BY IDOCK:   -6.92 KCAL/MOL
REMARK 923 INTER-LIGAND FREE ENERGY PREDICTED BY IDOCK:   -5.45 KCAL/MOL
REMARK 924 INTRA-LIGAND FREE ENERGY PREDICTED BY IDOCK:   -1.47 KCAL/MOL
REMARK 927      BINDING AFFINITY PREDICTED BY RF-SCORE:    0.00 PKD
ROOT
HETATM    1  C   UNL     1      -9.265   7.449  66.196  1.00  0.00    -0.148 C  
HETATM    2  C   UNL     1     -10.592   7.580  66.930  1.00  0.00    -0.367 C  
ENDROOT
BRANCH   2   3
HETATM    3  C   UNL     1     -10.868   6.338  67.769  1.00  0.00    -0.338 C  
BRANCH   3   4
HETATM    4  O   UNL     1     -10.069   6.371  68.953  1.00  0.00    -0.148 OA 
BRANCH   4   5
HETATM    5  C   UNL     1     -10.584   7.054  70.029  1.00  0.00    -0.230 A  
HETATM    6  C   UNL     1     -11.884   6.850  70.519  1.00  0.00    -0.385 A  
HETATM    7  C   UNL     1     -12.397   7.588  71.591  1.00  0.00    -0.333 A  
HETATM    8  C   UNL     1     -11.548   8.453  72.273  1.00  0.00    -0.453 A  
HETATM    9  N   UNL     1     -13.664   7.290  72.102  1.00  0.00    -0.539 NA 
HETATM   10  H1  UNL     1     -14.037   7.828  72.885  1.00  0.00     0.000 HD 
HETATM   11  C   UNL     1     -10.250   8.670  71.816  1.00  0.00    -0.378 A  
HETATM   12  H2  UNL     1     -13.688   6.301  72.351  1.00  0.00     0.000 HD 
HETATM   13  C   UNL     1      -9.767   7.993  70.684  1.00  0.00    -0.180 A  
BRANCH  13  14
HETATM   14  C   UNL     1      -8.420   8.423  70.218  1.00  0.00    -0.126 C  
HETATM   15  O   UNL     1      -7.427   7.714  70.296  1.00  0.00    -0.080 OA 
BRANCH  14  16
HETATM   16  O   UNL     1      -8.427   9.754  69.975  1.00  0.00    -0.190 OA 
BRANCH  16  17
HETATM   17  C   UNL     1      -8.307  10.125  68.593  1.00  0.00    -0.116 C  
BRANCH  17  18
HETATM   18  C   UNL     1      -8.616  11.631  68.529  1.00  0.00    -0.134 C  
BRANCH  18  19
HETATM   19  N   UNL     1      -9.895  12.043  67.916  1.00  0.00    -0.190 NA 
BRANCH  19  20
HETATM   20  C   UNL     1     -10.902  12.192  68.982  1.00  0.00    -0.162 C  
HETATM   21  C   UNL     1     -11.716  10.935  69.260  1.00  0.00    -0.395 C  
ENDBRANCH  19  20
BRANCH  19  22
HETATM   22  C   UNL     1     -10.310  11.177  66.806  1.00  0.00    -0.241 C  
HETATM   23  C   UNL     1     -10.464  11.848  65.444  1.00  0.00    -0.312 C  
ENDBRANCH  19  22
ENDBRANCH  18  19
ENDBRANCH  17  18
ENDBRANCH  16  17
ENDBRANCH  14  16
ENDBRANCH  13  14
ENDBRANCH   4   5
ENDBRANCH   3   4
ENDBRANCH   2   3
TORSDOF 10
ENDMDL
MODEL      170
REMARK 921   NORMALIZED FREE ENERGY PREDICTED BY IDOCK:   -3.69 KCAL/MOL
REMARK 922        TOTAL FREE ENERGY PREDICTED BY IDOCK:   -6.91 KCAL/MOL
REMARK 923 INTER-LIGAND FREE ENERGY PREDICTED BY IDOCK:   -6.47 KCAL/MOL
REMARK 924 INTRA-LIGAND FREE ENERGY PREDICTED BY IDOCK:   -0.44 KCAL/MOL
REMARK 927      BINDING AFFINITY PREDICTED BY RF-SCORE:    0.00 PKD
ROOT
HETATM    1  C   UNL     1      -8.113  17.785  67.349  1.00  0.00    -0.217 C  
HETATM    2  C   UNL     1      -9.357  18.250  68.092  1.00  0.00    -0.307 C  
ENDROOT
BRANCH   2   3
HETATM    3  C   UNL     1     -10.607  17.609  67.503  1.00  0.00    -0.343 C  
BRANCH   3   4
HETATM    4  O   UNL     1     -10.407  16.200  67.367  1.00  0.00    -0.281 OA 
BRANCH   4   5
HETATM    5  C   UNL     1     -10.997  15.397  68.313  1.00  0.00    -0.288 A  
HETATM    6  C   UNL     1     -12.067  15.817  69.120  1.00  0.00    -0.217 A  
HETATM    7  C   UNL     1     -12.623  14.991  70.103  1.00  0.00    -0.269 A  
HETATM    8  C   UNL     1     -12.190  13.672  70.191  1.00  0.00    -0.413 A  
HETATM    9  N   UNL     1     -13.744  15.418  70.822  1.00  0.00    -0.845 NA 
HETATM   10  H1  UNL     1     -14.150  14.816  71.538  1.00  0.00     0.000 HD 
HETATM   11  C   UNL     1     -11.136  13.225  69.398  1.00  0.00    -0.148 A  
HETATM   12  H2  UNL     1     -14.477  15.669  70.159  1.00  0.00     0.000 HD 
HETATM   13  C   UNL     1     -10.520  14.084  68.474  1.00  0.00    -0.251 A  
BRANCH  13  14
HETATM   14  C   UNL     1      -9.317  13.525  67.797  1.00  0.00    -0.213 C  
HETATM   15  O   UNL     1      -8.342  14.200  67.497  1.00  0.00    -0.160 OA 
BRANCH  14  16
HETATM   16  O   UNL     1      -9.590  12.280  67.341  1.00  0.00    -0.175 OA 
BRANCH  16  17
HETATM   17  C   UNL     1     -10.491  12.220  66.225  1.00  0.00    -0.238 C  
BRANCH  17  18
HETATM   18  C   UNL     1      -9.937  11.130  65.291  1.00  0.00    -0.260 C  
BRANCH  18  19
HETATM   19  N   UNL     1     -10.407  11.124  63.890  1.00  0.00    -0.352 NA 
BRANCH  19  20
HETATM   20  C   UNL     1      -9.313  10.641  63.029  1.00  0.00    -0.325 C  
HETATM   21  C   UNL     1      -8.132  10.046  63.785  1.00  0.00    -0.158 C  
ENDBRANCH  19  20
BRANCH  19  22
HETATM   22  C   UNL     1     -10.991  12.404  63.471  1.00  0.00    -0.450 C  
HETATM   23  C   UNL     1     -12.510  12.444  63.335  1.00  0.00    -0.554 C  
ENDBRANCH  19  22
ENDBRANCH  18  19
ENDBRANCH  17  18
ENDBRANCH  16  17
ENDBRANCH  14  16
ENDBRANCH  13  14
ENDBRANCH   4   5
ENDBRANCH   3   4
ENDBRANCH   2   3
TORSDOF 10
ENDMDL
MODEL      171
REMARK 921   NORMALIZED FREE ENERGY PREDICTED BY IDOCK:   -3.67 KCAL/MOL
REMARK 922        TOTAL FREE ENERGY PREDICTED BY IDOCK:   -6.88 KCAL/MOL
REMARK 923 INTER-LIGAND FREE ENERGY PREDICTED BY IDOCK:   -6.25 KCAL/MOL
REMARK 924 INTRA-LIGAND FREE ENERGY PREDICTED BY IDOCK:   -0.63 KCAL/MOL
REMARK 927      BINDING AFFINITY PREDICTED BY RF-SCORE:    0.00 PKD
ROOT
HETATM    1  C   UNL     1     -13.311  14.762  72.831  1.00  0.00    -0.582 C  
HETATM    2  C   UNL     1     -13.157  15.578  71.555  1.00  0.00    -0.573 C  
ENDROOT
BRANCH   2   3
HETATM    3  C   UNL     1     -11.685  15.826  71.249  1.00  0.00    -0.440 C  
BRANCH   3   4
HETATM    4  O   UNL     1     -11.543  16.280  69.902  1.00  0.00    -0.277 OA 
BRANCH   4   5
HETATM    5  C   UNL     1     -11.210  15.335  68.962  1.00  0.00    -0.280 A  
HETATM    6  C   UNL     1     -11.469  13.964  69.124  1.00  0.00    -0.345 A  
HETATM    7  C   UNL     1     -11.083  13.018  68.169  1.00  0.00    -0.256 A  
HETATM    8  C   UNL     1     -10.548  13.464  66.965  1.00  0.00    -0.264 A  
HETATM    9  N   UNL     1     -11.440  11.675  68.331  1.00  0.00    -0.270 NA 
HETATM   10  H1  UNL     1     -11.159  10.986  67.633  1.00  0.00     0.000 HD 
HETATM   11  C   UNL     1     -10.288  14.819  66.771  1.00  0.00    -0.268 A  
HETATM   12  H2  UNL     1     -12.451  11.622  68.448  1.00  0.00     0.000 HD 
HETATM   13  C   UNL     1     -10.594  15.757  67.770  1.00  0.00    -0.292 A  
BRANCH  13  14
HETATM   14  C   UNL     1     -10.133  17.146  67.494  1.00  0.00    -0.301 C  
HETATM   15  O   UNL     1     -10.868  18.020  67.055  1.00  0.00    -0.281 OA 
BRANCH  14  16
HETATM   16  O   UNL     1      -8.782  17.193  67.539  1.00  0.00    -0.205 OA 
BRANCH  16  17
HETATM   17  C   UNL     1      -8.233  18.104  68.503  1.00  0.00    -0.307 C  
BRANCH  17  18
HETATM   18  C   UNL     1      -6.881  18.565  67.930  1.00  0.00    -0.219 C  
BRANCH  18  19
HETATM   19  N   UNL     1      -5.855  19.033  68.885  1.00  0.00    -0.208 NA 
BRANCH  19  20
HETATM   20  C   UNL     1      -6.323  18.750  70.254  1.00  0.00     0.117 C  
HETATM   21  C   UNL     1      -5.265  18.938  71.333  1.00  0.00    -0.311 C  
ENDBRANCH  19  20
BRANCH  19  22
HETATM   22  C   UNL     1      -5.445  20.423  68.657  1.00  0.00    -0.264 C  
HETATM   23  C   UNL     1      -6.217  21.191  67.588  1.00  0.00    -0.426 C  
ENDBRANCH  19  22
ENDBRANCH  18  19
ENDBRANCH  17  18
ENDBRANCH  16  17
ENDBRANCH  14  16
ENDBRANCH  13  14
ENDBRANCH   4   5
ENDBRANCH   3   4
ENDBRANCH   2   3
TORSDOF 10
ENDMDL
MODEL      172
REMARK 921   NORMALIZED FREE ENERGY PREDICTED BY IDOCK:   -3.66 KCAL/MOL
REMARK 922        TOTAL FREE ENERGY PREDICTED BY IDOCK:   -6.86 KCAL/MOL
REMARK 923 INTER-LIGAND FREE ENERGY PREDICTED BY IDOCK:   -6.05 KCAL/MOL
REMARK 924 INTRA-LIGAND FREE ENERGY PREDICTED BY IDOCK:   -0.82 KCAL/MOL
REMARK 927      BINDING AFFINITY PREDICTED BY RF-SCORE:    0.00 PKD
ROOT
HETATM    1  C   UNL     1      -8.897  20.545  67.286  1.00  0.00    -0.404 C  
HETATM    2  C   UNL     1     -10.360  20.157  67.449  1.00  0.00    -0.488 C  
ENDROOT
BRANCH   2   3
HETATM    3  C   UNL     1     -10.649  18.839  66.742  1.00  0.00    -0.395 C  
BRANCH   3   4
HETATM    4  O   UNL     1     -10.666  17.776  67.697  1.00  0.00    -0.386 OA 
BRANCH   4   5
HETATM    5  C   UNL     1      -9.571  16.947  67.720  1.00  0.00    -0.249 A  
HETATM    6  C   UNL     1      -8.398  17.241  68.435  1.00  0.00    -0.261 A  
HETATM    7  C   UNL     1      -7.282  16.398  68.409  1.00  0.00    -0.158 A  
HETATM    8  C   UNL     1      -7.387  15.170  67.764  1.00  0.00    -0.182 A  
HETATM    9  N   UNL     1      -6.169  16.686  69.206  1.00  0.00    -0.181 NA 
HETATM   10  H1  UNL     1      -5.356  16.071  69.187  1.00  0.00     0.000 HD 
HETATM   11  C   UNL     1      -8.540  14.847  67.053  1.00  0.00    -0.265 A  
HETATM   12  H2  UNL     1      -6.480  16.780  70.172  1.00  0.00     0.000 HD 
HETATM   13  C   UNL     1      -9.627  15.736  67.007  1.00  0.00    -0.236 A  
BRANCH  13  14
HETATM   14  C   UNL     1     -10.734  15.332  66.098  1.00  0.00    -0.320 C  
HETATM   15  O   UNL     1     -11.022  15.946  65.079  1.00  0.00    -0.425 OA 
BRANCH  14  16
HETATM   16  O   UNL     1     -11.502  14.397  66.704  1.00  0.00    -0.339 OA 
BRANCH  16  17
HETATM   17  C   UNL     1     -11.712  13.194  65.948  1.00  0.00    -0.384 C  
BRANCH  17  18
HETATM   18  C   UNL     1     -11.462  12.032  66.925  1.00  0.00    -0.337 C  
BRANCH  18  19
HETATM   19  N   UNL     1     -11.332  12.357  68.360  1.00  0.00    -0.261 NA 
BRANCH  19  20
HETATM   20  C   UNL     1      -9.914  12.237  68.743  1.00  0.00    -0.034 C  
HETATM   21  C   UNL     1      -9.116  11.248  67.902  1.00  0.00    -0.150 C  
ENDBRANCH  19  20
BRANCH  19  22
HETATM   22  C   UNL     1     -12.258  11.600  69.210  1.00  0.00    -0.164 C  
HETATM   23  C   UNL     1     -11.625  10.721  70.285  1.00  0.00    -0.427 C  
ENDBRANCH  19  22
ENDBRANCH  18  19
ENDBRANCH  17  18
ENDBRANCH  16  17
ENDBRANCH  14  16
ENDBRANCH  13  14
ENDBRANCH   4   5
ENDBRANCH   3   4
ENDBRANCH   2   3
TORSDOF 10
ENDMDL
MODEL      173
REMARK 921   NORMALIZED FREE ENERGY PREDICTED BY IDOCK:   -3.64 KCAL/MOL
REMARK 922        TOTAL FREE ENERGY PREDICTED BY IDOCK:   -6.82 KCAL/MOL
REMARK 923 INTER-LIGAND FREE ENERGY PREDICTED BY IDOCK:   -5.88 KCAL/MOL
REMARK 924 INTRA-LIGAND FREE ENERGY PREDICTED BY IDOCK:   -0.94 KCAL/MOL
REMARK 927      BINDING AFFINITY PREDICTED BY RF-SCORE:    0.00 PKD
ROOT
HETATM    1  C   UNL     1     -10.503  19.539  65.876  1.00  0.00    -0.585 C  
HETATM    2  C   UNL     1     -10.769  19.793  67.353  1.00  0.00    -0.515 C  
ENDROOT
BRANCH   2   3
HETATM    3  C   UNL     1     -10.002  18.800  68.218  1.00  0.00    -0.385 C  
BRANCH   3   4
HETATM    4  O   UNL     1      -9.933  17.537  67.552  1.00  0.00    -0.294 OA 
BRANCH   4   5
HETATM    5  C   UNL     1      -8.816  16.773  67.790  1.00  0.00    -0.208 A  
HETATM    6  C   UNL     1      -7.583  16.994  67.154  1.00  0.00    -0.205 A  
HETATM    7  C   UNL     1      -6.472  16.175  67.385  1.00  0.00    -0.182 A  
HETATM    8  C   UNL     1      -6.556  15.197  68.370  1.00  0.00    -0.101 A  
HETATM    9  N   UNL     1      -5.241  16.486  66.798  1.00  0.00    -0.352 NA 
HETATM   10  H1  UNL     1      -4.431  15.889  66.967  1.00  0.00     0.000 HD 
HETATM   11  C   UNL     1      -7.763  14.959  69.022  1.00  0.00    -0.153 A  
HETATM   12  H2  UNL     1      -4.995  17.442  67.052  1.00  0.00     0.000 HD 
HETATM   13  C   UNL     1      -8.903  15.725  68.724  1.00  0.00    -0.207 A  
BRANCH  13  14
HETATM   14  C   UNL     1     -10.158  15.274  69.385  1.00  0.00    -0.264 C  
HETATM   15  O   UNL     1     -10.645  15.840  70.354  1.00  0.00    -0.313 OA 
BRANCH  14  16
HETATM   16  O   UNL     1     -10.489  14.040  68.937  1.00  0.00    -0.236 OA 
BRANCH  16  17
HETATM   17  C   UNL     1     -11.871  13.684  69.091  1.00  0.00    -0.348 C  
BRANCH  17  18
HETATM   18  C   UNL     1     -11.888  12.181  69.421  1.00  0.00    -0.309 C  
BRANCH  18  19
HETATM   19  N   UNL     1     -10.813  11.343  68.851  1.00  0.00    -0.205 NA 
BRANCH  19  20
HETATM   20  C   UNL     1     -11.278  10.792  67.565  1.00  0.00    -0.274 C  
HETATM   21  C   UNL     1     -10.789  11.553  66.341  1.00  0.00    -0.334 C  
ENDBRANCH  19  20
BRANCH  19  22
HETATM   22  C   UNL     1     -10.302  10.340  69.793  1.00  0.00    -0.246 C  
HETATM   23  C   UNL     1      -9.570   9.148  69.182  1.00  0.00    -0.161 C  
ENDBRANCH  19  22
ENDBRANCH  18  19
ENDBRANCH  17  18
ENDBRANCH  16  17
ENDBRANCH  14  16
ENDBRANCH  13  14
ENDBRANCH   4   5
ENDBRANCH   3   4
ENDBRANCH   2   3
TORSDOF 10
ENDMDL
MODEL      174
REMARK 921   NORMALIZED FREE ENERGY PREDICTED BY IDOCK:   -3.63 KCAL/MOL
REMARK 922        TOTAL FREE ENERGY PREDICTED BY IDOCK:   -6.80 KCAL/MOL
REMARK 923 INTER-LIGAND FREE ENERGY PREDICTED BY IDOCK:   -6.15 KCAL/MOL
REMARK 924 INTRA-LIGAND FREE ENERGY PREDICTED BY IDOCK:   -0.66 KCAL/MOL
REMARK 927      BINDING AFFINITY PREDICTED BY RF-SCORE:    0.00 PKD
ROOT
HETATM    1  C   UNL     1     -13.158  13.748  71.541  1.00  0.00    -0.435 C  
HETATM    2  C   UNL     1     -11.993  14.612  71.079  1.00  0.00    -0.399 C  
ENDROOT
BRANCH   2   3
HETATM    3  C   UNL     1     -12.447  15.603  70.015  1.00  0.00    -0.217 C  
BRANCH   3   4
HETATM    4  O   UNL     1     -11.900  15.232  68.748  1.00  0.00    -0.338 OA 
BRANCH   4   5
HETATM    5  C   UNL     1     -11.078  16.146  68.135  1.00  0.00    -0.332 A  
HETATM    6  C   UNL     1     -10.448  17.196  68.824  1.00  0.00    -0.351 A  
HETATM    7  C   UNL     1      -9.648  18.138  68.168  1.00  0.00    -0.307 A  
HETATM    8  C   UNL     1      -9.362  17.949  66.820  1.00  0.00    -0.279 A  
HETATM    9  N   UNL     1      -8.969  19.113  68.905  1.00  0.00    -0.328 NA 
HETATM   10  H1  UNL     1      -8.385  19.799  68.427  1.00  0.00     0.000 HD 
HETATM   11  C   UNL     1      -9.966  16.912  66.112  1.00  0.00    -0.332 A  
HETATM   12  H2  UNL     1      -8.404  18.647  69.614  1.00  0.00     0.000 HD 
HETATM   13  C   UNL     1     -10.841  16.021  66.754  1.00  0.00    -0.195 A  
BRANCH  13  14
HETATM   14  C   UNL     1     -11.527  15.052  65.856  1.00  0.00    -0.224 C  
HETATM   15  O   UNL     1     -11.742  15.273  64.672  1.00  0.00    -0.392 OA 
BRANCH  14  16
HETATM   16  O   UNL     1     -12.090  14.068  66.595  1.00  0.00    -0.428 OA 
BRANCH  16  17
HETATM   17  C   UNL     1     -12.179  12.790  65.947  1.00  0.00    -0.359 C  
BRANCH  17  18
HETATM   18  C   UNL     1     -11.529  11.781  66.910  1.00  0.00    -0.293 C  
BRANCH  18  19
HETATM   19  N   UNL     1     -10.714  12.318  68.019  1.00  0.00    -0.211 NA 
BRANCH  19  20
HETATM   20  C   UNL     1      -9.296  12.289  67.616  1.00  0.00    -0.186 C  
HETATM   21  C   UNL     1      -8.486  13.493  68.078  1.00  0.00    -0.176 C  
ENDBRANCH  19  20
BRANCH  19  22
HETATM   22  C   UNL     1     -10.994  11.673  69.307  1.00  0.00    -0.192 C  
HETATM   23  C   UNL     1     -12.174  10.706  69.338  1.00  0.00    -0.173 C  
ENDBRANCH  19  22
ENDBRANCH  18  19
ENDBRANCH  17  18
ENDBRANCH  16  17
ENDBRANCH  14  16
ENDBRANCH  13  14
ENDBRANCH   4   5
ENDBRANCH   3   4
ENDBRANCH   2   3
TORSDOF 10
ENDMDL
MODEL      175
REMARK 921   NORMALIZED FREE ENERGY PREDICTED BY IDOCK:   -3.61 KCAL/MOL
REMARK 922        TOTAL FREE ENERGY PREDICTED BY IDOCK:   -6.78 KCAL/MOL
REMARK 923 INTER-LIGAND FREE ENERGY PREDICTED BY IDOCK:   -5.77 KCAL/MOL
REMARK 924 INTRA-LIGAND FREE ENERGY PREDICTED BY IDOCK:   -1.01 KCAL/MOL
REMARK 927      BINDING AFFINITY PREDICTED BY RF-SCORE:    0.00 PKD
ROOT
HETATM    1  C   UNL     1      -5.494  17.734  70.563  1.00  0.00    -0.245 C  
HETATM    2  C   UNL     1      -5.720  16.382  69.902  1.00  0.00    -0.193 C  
ENDROOT
BRANCH   2   3
HETATM    3  C   UNL     1      -6.693  16.509  68.736  1.00  0.00    -0.170 C  
BRANCH   3   4
HETATM    4  O   UNL     1      -8.002  16.796  69.232  1.00  0.00    -0.181 OA 
BRANCH   4   5
HETATM    5  C   UNL     1      -8.821  17.544  68.421  1.00  0.00    -0.276 A  
HETATM    6  C   UNL     1      -8.576  18.892  68.113  1.00  0.00    -0.349 A  
HETATM    7  C   UNL     1      -9.448  19.641  67.316  1.00  0.00    -0.341 A  
HETATM    8  C   UNL     1     -10.517  18.995  66.705  1.00  0.00    -0.510 A  
HETATM    9  N   UNL     1      -9.119  20.954  66.963  1.00  0.00    -0.627 NA 
HETATM   10  H1  UNL     1      -9.755  21.500  66.382  1.00  0.00     0.000 HD 
HETATM   11  C   UNL     1     -10.781  17.656  66.985  1.00  0.00    -0.176 A  
HETATM   12  H2  UNL     1      -8.201  20.948  66.519  1.00  0.00     0.000 HD 
HETATM   13  C   UNL     1      -9.954  16.929  67.857  1.00  0.00    -0.274 A  
BRANCH  13  14
HETATM   14  C   UNL     1     -10.430  15.557  68.182  1.00  0.00    -0.259 C  
HETATM   15  O   UNL     1     -10.669  15.183  69.322  1.00  0.00    -0.230 OA 
BRANCH  14  16
HETATM   16  O   UNL     1     -10.286  14.758  67.098  1.00  0.00    -0.252 OA 
BRANCH  16  17
HETATM   17  C   UNL     1      -8.960  14.253  66.882  1.00  0.00    -0.236 C  
BRANCH  17  18
HETATM   18  C   UNL     1      -8.941  12.838  67.486  1.00  0.00    -0.192 C  
BRANCH  18  19
HETATM   19  N   UNL     1     -10.179  12.037  67.393  1.00  0.00    -0.199 NA 
BRANCH  19  20
HETATM   20  C   UNL     1     -10.400  11.362  68.685  1.00  0.00    -0.203 C  
HETATM   21  C   UNL     1     -11.670  11.787  69.410  1.00  0.00    -0.405 C  
ENDBRANCH  19  20
BRANCH  19  22
HETATM   22  C   UNL     1     -10.204  11.144  66.229  1.00  0.00    -0.239 C  
HETATM   23  C   UNL     1     -10.472   9.669  66.512  1.00  0.00    -0.213 C  
ENDBRANCH  19  22
ENDBRANCH  18  19
ENDBRANCH  17  18
ENDBRANCH  16  17
ENDBRANCH  14  16
ENDBRANCH  13  14
ENDBRANCH   4   5
ENDBRANCH   3   4
ENDBRANCH   2   3
TORSDOF 10
ENDMDL
MODEL      176
REMARK 921   NORMALIZED FREE ENERGY PREDICTED BY IDOCK:   -3.59 KCAL/MOL
REMARK 922        TOTAL FREE ENERGY PREDICTED BY IDOCK:   -6.75 KCAL/MOL
REMARK 923 INTER-LIGAND FREE ENERGY PREDICTED BY IDOCK:   -6.16 KCAL/MOL
REMARK 924 INTRA-LIGAND FREE ENERGY PREDICTED BY IDOCK:   -0.59 KCAL/MOL
REMARK 927      BINDING AFFINITY PREDICTED BY RF-SCORE:    0.00 PKD
ROOT
HETATM    1  C   UNL     1     -12.322  11.924  70.776  1.00  0.00    -0.416 C  
HETATM    2  C   UNL     1     -13.241  11.309  71.822  1.00  0.00    -0.480 C  
ENDROOT
BRANCH   2   3
HETATM    3  C   UNL     1     -12.918   9.833  72.021  1.00  0.00    -0.423 C  
BRANCH   3   4
HETATM    4  O   UNL     1     -11.903   9.435  71.098  1.00  0.00    -0.294 OA 
BRANCH   4   5
HETATM    5  C   UNL     1     -11.441   8.145  71.204  1.00  0.00    -0.276 A  
HETATM    6  C   UNL     1     -11.918   7.234  72.161  1.00  0.00    -0.307 A  
HETATM    7  C   UNL     1     -11.401   5.938  72.273  1.00  0.00    -0.298 A  
HETATM    8  C   UNL     1     -10.483   5.501  71.324  1.00  0.00    -0.306 A  
HETATM    9  N   UNL     1     -11.966   5.037  73.181  1.00  0.00    -0.431 NA 
HETATM   10  H1  UNL     1     -11.589   4.092  73.262  1.00  0.00     0.000 HD 
HETATM   11  C   UNL     1      -9.998   6.379  70.358  1.00  0.00    -0.213 A  
HETATM   12  H2  UNL     1     -12.965   4.970  72.990  1.00  0.00     0.000 HD 
HETATM   13  C   UNL     1     -10.453   7.707  70.304  1.00  0.00    -0.224 A  
BRANCH  13  14
HETATM   14  C   UNL     1      -9.750   8.575  69.320  1.00  0.00    -0.173 C  
HETATM   15  O   UNL     1      -8.666   9.098  69.543  1.00  0.00    -0.129 OA 
BRANCH  14  16
HETATM   16  O   UNL     1     -10.596   8.900  68.315  1.00  0.00    -0.212 OA 
BRANCH  16  17
HETATM   17  C   UNL     1     -10.045   8.791  66.993  1.00  0.00    -0.265 C  
BRANCH  17  18
HETATM   18  C   UNL     1      -9.734  10.230  66.544  1.00  0.00    -0.193 C  
BRANCH  18  19
HETATM   19  N   UNL     1     -10.233  10.658  65.221  1.00  0.00    -0.290 NA 
BRANCH  19  20
HETATM   20  C   UNL     1      -9.155  10.481  64.232  1.00  0.00    -0.228 C  
HETATM   21  C   UNL     1      -9.604  10.605  62.782  1.00  0.00    -0.333 C  
ENDBRANCH  19  20
BRANCH  19  22
HETATM   22  C   UNL     1     -10.832  11.998  65.235  1.00  0.00    -0.294 C  
HETATM   23  C   UNL     1     -12.252  12.112  64.688  1.00  0.00    -0.379 C  
ENDBRANCH  19  22
ENDBRANCH  18  19
ENDBRANCH  17  18
ENDBRANCH  16  17
ENDBRANCH  14  16
ENDBRANCH  13  14
ENDBRANCH   4   5
ENDBRANCH   3   4
ENDBRANCH   2   3
TORSDOF 10
ENDMDL
MODEL      177
REMARK 921   NORMALIZED FREE ENERGY PREDICTED BY IDOCK:   -3.59 KCAL/MOL
REMARK 922        TOTAL FREE ENERGY PREDICTED BY IDOCK:   -6.75 KCAL/MOL
REMARK 923 INTER-LIGAND FREE ENERGY PREDICTED BY IDOCK:   -5.97 KCAL/MOL
REMARK 924 INTRA-LIGAND FREE ENERGY PREDICTED BY IDOCK:   -0.78 KCAL/MOL
REMARK 927      BINDING AFFINITY PREDICTED BY RF-SCORE:    0.00 PKD
ROOT
HETATM    1  C   UNL     1     -10.791  16.230  69.127  1.00  0.00    -0.314 C  
HETATM    2  C   UNL     1     -10.650  14.740  68.848  1.00  0.00    -0.250 C  
ENDROOT
BRANCH   2   3
HETATM    3  C   UNL     1     -11.975  14.153  68.377  1.00  0.00    -0.331 C  
BRANCH   3   4
HETATM    4  O   UNL     1     -11.787  12.789  67.994  1.00  0.00    -0.345 OA 
BRANCH   4   5
HETATM    5  C   UNL     1     -11.568  12.545  66.660  1.00  0.00    -0.380 A  
HETATM    6  C   UNL     1     -12.067  13.367  65.635  1.00  0.00    -0.476 A  
HETATM    7  C   UNL     1     -11.863  13.073  64.283  1.00  0.00    -0.396 A  
HETATM    8  C   UNL     1     -11.032  12.009  63.948  1.00  0.00    -0.465 A  
HETATM    9  N   UNL     1     -12.301  13.966  63.300  1.00  0.00    -1.148 NA 
HETATM   10  H1  UNL     1     -12.152  13.751  62.314  1.00  0.00     0.000 HD 
HETATM   11  C   UNL     1     -10.516  11.181  64.942  1.00  0.00    -0.372 A  
HETATM   12  H2  UNL     1     -11.900  14.882  63.495  1.00  0.00     0.000 HD 
HETATM   13  C   UNL     1     -10.796  11.426  66.297  1.00  0.00    -0.318 A  
BRANCH  13  14
HETATM   14  C   UNL     1     -10.306  10.386  67.242  1.00  0.00    -0.228 C  
HETATM   15  O   UNL     1     -10.884   9.324  67.427  1.00  0.00    -0.255 OA 
BRANCH  14  16
HETATM   16  O   UNL     1      -9.331  10.906  68.023  1.00  0.00    -0.152 OA 
BRANCH  16  17
HETATM   17  C   UNL     1      -8.461   9.943  68.638  1.00  0.00    -0.114 C  
BRANCH  17  18
HETATM   18  C   UNL     1      -7.181  10.708  69.016  1.00  0.00    -0.095 C  
BRANCH  18  19
HETATM   19  N   UNL     1      -5.958  10.428  68.236  1.00  0.00    -0.040 NA 
BRANCH  19  20
HETATM   20  C   UNL     1      -5.352  11.710  67.835  1.00  0.00    -0.048 C  
HETATM   21  C   UNL     1      -5.199  12.716  68.968  1.00  0.00    -0.067 C  
ENDBRANCH  19  20
BRANCH  19  22
HETATM   22  C   UNL     1      -6.181   9.489  67.130  1.00  0.00    -0.064 C  
HETATM   23  C   UNL     1      -6.661  10.094  65.814  1.00  0.00    -0.110 C  
ENDBRANCH  19  22
ENDBRANCH  18  19
ENDBRANCH  17  18
ENDBRANCH  16  17
ENDBRANCH  14  16
ENDBRANCH  13  14
ENDBRANCH   4   5
ENDBRANCH   3   4
ENDBRANCH   2   3
TORSDOF 10
ENDMDL
MODEL      178
REMARK 921   NORMALIZED FREE ENERGY PREDICTED BY IDOCK:   -3.58 KCAL/MOL
REMARK 922        TOTAL FREE ENERGY PREDICTED BY IDOCK:   -6.73 KCAL/MOL
REMARK 923 INTER-LIGAND FREE ENERGY PREDICTED BY IDOCK:   -6.01 KCAL/MOL
REMARK 924 INTRA-LIGAND FREE ENERGY PREDICTED BY IDOCK:   -0.72 KCAL/MOL
REMARK 927      BINDING AFFINITY PREDICTED BY RF-SCORE:    0.00 PKD
ROOT
HETATM    1  C   UNL     1     -10.789  16.289  69.207  1.00  0.00    -0.318 C  
HETATM    2  C   UNL     1     -10.658  14.794  68.946  1.00  0.00    -0.250 C  
ENDROOT
BRANCH   2   3
HETATM    3  C   UNL     1     -11.997  14.203  68.522  1.00  0.00    -0.332 C  
BRANCH   3   4
HETATM    4  O   UNL     1     -11.804  12.869  68.047  1.00  0.00    -0.346 OA 
BRANCH   4   5
HETATM    5  C   UNL     1     -11.608  12.715  66.696  1.00  0.00    -0.381 A  
HETATM    6  C   UNL     1     -12.122  13.605  65.738  1.00  0.00    -0.463 A  
HETATM    7  C   UNL     1     -11.941  13.403  64.365  1.00  0.00    -0.411 A  
HETATM    8  C   UNL     1     -11.118  12.363  63.946  1.00  0.00    -0.475 A  
HETATM    9  N   UNL     1     -12.394  14.360  63.452  1.00  0.00    -1.088 NA 
HETATM   10  H1  UNL     1     -12.262  14.213  62.452  1.00  0.00     0.000 HD 
HETATM   11  C   UNL     1     -10.587  11.470  64.873  1.00  0.00    -0.360 A  
HETATM   12  H2  UNL     1     -11.988  15.261  63.702  1.00  0.00     0.000 HD 
HETATM   13  C   UNL     1     -10.844  11.623  66.245  1.00  0.00    -0.333 A  
BRANCH  13  14
HETATM   14  C   UNL     1     -10.340  10.521  67.109  1.00  0.00    -0.235 C  
HETATM   15  O   UNL     1     -11.024   9.973  67.963  1.00  0.00    -0.261 OA 
BRANCH  14  16
HETATM   16  O   UNL     1      -8.995  10.431  66.992  1.00  0.00    -0.139 OA 
BRANCH  16  17
HETATM   17  C   UNL     1      -8.447   9.124  67.219  1.00  0.00    -0.121 C  
BRANCH  17  18
HETATM   18  C   UNL     1      -7.025   9.152  66.631  1.00  0.00    -0.081 C  
BRANCH  18  19
HETATM   19  N   UNL     1      -6.857   8.737  65.223  1.00  0.00    -0.071 NA 
BRANCH  19  20
HETATM   20  C   UNL     1      -5.901   7.615  65.175  1.00  0.00    -0.038 C  
HETATM   21  C   UNL     1      -6.181   6.506  66.181  1.00  0.00    -0.038 C  
ENDBRANCH  19  20
BRANCH  19  22
HETATM   22  C   UNL     1      -6.531   9.852  64.326  1.00  0.00    -0.126 C  
HETATM   23  C   UNL     1      -7.515  10.117  63.190  1.00  0.00    -0.141 C  
ENDBRANCH  19  22
ENDBRANCH  18  19
ENDBRANCH  17  18
ENDBRANCH  16  17
ENDBRANCH  14  16
ENDBRANCH  13  14
ENDBRANCH   4   5
ENDBRANCH   3   4
ENDBRANCH   2   3
TORSDOF 10
ENDMDL
MODEL      179
REMARK 921   NORMALIZED FREE ENERGY PREDICTED BY IDOCK:   -3.58 KCAL/MOL
REMARK 922        TOTAL FREE ENERGY PREDICTED BY IDOCK:   -6.72 KCAL/MOL
REMARK 923 INTER-LIGAND FREE ENERGY PREDICTED BY IDOCK:   -5.79 KCAL/MOL
REMARK 924 INTRA-LIGAND FREE ENERGY PREDICTED BY IDOCK:   -0.94 KCAL/MOL
REMARK 927      BINDING AFFINITY PREDICTED BY RF-SCORE:    0.00 PKD
ROOT
HETATM    1  C   UNL     1     -13.138  11.206  71.828  1.00  0.00    -0.536 C  
HETATM    2  C   UNL     1     -13.079   9.852  71.136  1.00  0.00    -0.453 C  
ENDROOT
BRANCH   2   3
HETATM    3  C   UNL     1     -13.272   8.724  72.142  1.00  0.00    -0.414 C  
BRANCH   3   4
HETATM    4  O   UNL     1     -12.593   7.552  71.687  1.00  0.00    -0.322 OA 
BRANCH   4   5
HETATM    5  C   UNL     1     -11.233   7.511  71.877  1.00  0.00    -0.248 A  
HETATM    6  C   UNL     1     -10.625   7.702  73.128  1.00  0.00    -0.438 A  
HETATM    7  C   UNL     1      -9.235   7.695  73.286  1.00  0.00    -0.229 A  
HETATM    8  C   UNL     1      -8.440   7.357  72.196  1.00  0.00    -0.124 A  
HETATM    9  N   UNL     1      -8.676   7.801  74.564  1.00  0.00    -0.445 NA 
HETATM   10  H1  UNL     1      -7.663   7.795  74.679  1.00  0.00     0.000 HD 
HETATM   11  C   UNL     1      -9.016   7.154  70.944  1.00  0.00    -0.151 A  
HETATM   12  H2  UNL     1      -9.072   7.067  75.151  1.00  0.00     0.000 HD 
HETATM   13  C   UNL     1     -10.406   7.250  70.769  1.00  0.00    -0.212 A  
BRANCH  13  14
HETATM   14  C   UNL     1     -10.873   7.154  69.359  1.00  0.00    -0.206 C  
HETATM   15  O   UNL     1     -11.202   6.100  68.833  1.00  0.00    -0.372 OA 
BRANCH  14  16
HETATM   16  O   UNL     1     -10.615   8.316  68.715  1.00  0.00    -0.202 OA 
BRANCH  16  17
HETATM   17  C   UNL     1     -10.514   8.214  67.286  1.00  0.00    -0.309 C  
BRANCH  17  18
HETATM   18  C   UNL     1     -10.628   9.652  66.750  1.00  0.00    -0.139 C  
BRANCH  18  19
HETATM   19  N   UNL     1      -9.374  10.400  66.522  1.00  0.00    -0.160 NA 
BRANCH  19  20
HETATM   20  C   UNL     1      -9.177  11.338  67.642  1.00  0.00    -0.156 C  
HETATM   21  C   UNL     1      -7.875  12.127  67.581  1.00  0.00    -0.153 C  
ENDBRANCH  19  20
BRANCH  19  22
HETATM   22  C   UNL     1      -9.302  11.017  65.193  1.00  0.00    -0.220 C  
HETATM   23  C   UNL     1      -9.529  10.089  64.002  1.00  0.00    -0.299 C  
ENDBRANCH  19  22
ENDBRANCH  18  19
ENDBRANCH  17  18
ENDBRANCH  16  17
ENDBRANCH  14  16
ENDBRANCH  13  14
ENDBRANCH   4   5
ENDBRANCH   3   4
ENDBRANCH   2   3
TORSDOF 10
ENDMDL
MODEL      180
REMARK 921   NORMALIZED FREE ENERGY PREDICTED BY IDOCK:   -3.57 KCAL/MOL
REMARK 922        TOTAL FREE ENERGY PREDICTED BY IDOCK:   -6.72 KCAL/MOL
REMARK 923 INTER-LIGAND FREE ENERGY PREDICTED BY IDOCK:   -5.96 KCAL/MOL
REMARK 924 INTRA-LIGAND FREE ENERGY PREDICTED BY IDOCK:   -0.76 KCAL/MOL
REMARK 927      BINDING AFFINITY PREDICTED BY RF-SCORE:    0.00 PKD
ROOT
HETATM    1  C   UNL     1      -9.106   6.043  70.479  1.00  0.00    -0.157 C  
HETATM    2  C   UNL     1     -10.339   5.447  69.815  1.00  0.00    -0.375 C  
ENDROOT
BRANCH   2   3
HETATM    3  C   UNL     1     -11.388   6.523  69.563  1.00  0.00    -0.357 C  
BRANCH   3   4
HETATM    4  O   UNL     1     -10.853   7.804  69.900  1.00  0.00    -0.247 OA 
BRANCH   4   5
HETATM    5  C   UNL     1     -11.687   8.667  70.569  1.00  0.00    -0.081 A  
HETATM    6  C   UNL     1     -12.492   8.275  71.652  1.00  0.00    -0.351 A  
HETATM    7  C   UNL     1     -13.362   9.166  72.289  1.00  0.00    -0.477 A  
HETATM    8  C   UNL     1     -13.330  10.508  71.926  1.00  0.00    -0.461 A  
HETATM    9  N   UNL     1     -14.079   8.755  73.418  1.00  0.00    -1.065 NA 
HETATM   10  H1  UNL     1     -14.713   9.405  73.883  1.00  0.00     0.000 HD 
HETATM   11  C   UNL     1     -12.535  10.928  70.862  1.00  0.00    -0.507 A  
HETATM   12  H2  UNL     1     -13.418   8.400  74.108  1.00  0.00     0.000 HD 
HETATM   13  C   UNL     1     -11.729  10.014  70.164  1.00  0.00    -0.285 A  
BRANCH  13  14
HETATM   14  C   UNL     1     -11.044  10.564  68.963  1.00  0.00    -0.249 C  
HETATM   15  O   UNL     1     -11.618  10.776  67.903  1.00  0.00    -0.504 OA 
BRANCH  14  16
HETATM   16  O   UNL     1      -9.704  10.522  69.144  1.00  0.00    -0.203 OA 
BRANCH  16  17
HETATM   17  C   UNL     1      -8.955  11.496  68.401  1.00  0.00    -0.173 C  
BRANCH  17  18
HETATM   18  C   UNL     1      -7.813  10.721  67.718  1.00  0.00    -0.109 C  
BRANCH  18  19
HETATM   19  N   UNL     1      -6.453  10.872  68.275  1.00  0.00    -0.057 NA 
BRANCH  19  20
HETATM   20  C   UNL     1      -6.282   9.896  69.367  1.00  0.00    -0.044 C  
HETATM   21  C   UNL     1      -5.129   8.922  69.165  1.00  0.00    -0.036 C  
ENDBRANCH  19  20
BRANCH  19  22
HETATM   22  C   UNL     1      -6.128  12.256  68.640  1.00  0.00    -0.057 C  
HETATM   23  C   UNL     1      -5.802  12.510  70.109  1.00  0.00    -0.160 C  
ENDBRANCH  19  22
ENDBRANCH  18  19
ENDBRANCH  17  18
ENDBRANCH  16  17
ENDBRANCH  14  16
ENDBRANCH  13  14
ENDBRANCH   4   5
ENDBRANCH   3   4
ENDBRANCH   2   3
TORSDOF 10
ENDMDL
MODEL      181
REMARK 921   NORMALIZED FREE ENERGY PREDICTED BY IDOCK:   -3.57 KCAL/MOL
REMARK 922        TOTAL FREE ENERGY PREDICTED BY IDOCK:   -6.71 KCAL/MOL
REMARK 923 INTER-LIGAND FREE ENERGY PREDICTED BY IDOCK:   -6.19 KCAL/MOL
REMARK 924 INTRA-LIGAND FREE ENERGY PREDICTED BY IDOCK:   -0.52 KCAL/MOL
REMARK 927      BINDING AFFINITY PREDICTED BY RF-SCORE:    0.00 PKD
ROOT
HETATM    1  C   UNL     1      -8.847   9.435  65.200  1.00  0.00    -0.233 C  
HETATM    2  C   UNL     1     -10.108  10.172  65.630  1.00  0.00    -0.324 C  
ENDROOT
BRANCH   2   3
HETATM    3  C   UNL     1      -9.814  11.103  66.800  1.00  0.00    -0.200 C  
BRANCH   3   4
HETATM    4  O   UNL     1     -10.798  12.139  66.849  1.00  0.00    -0.232 OA 
BRANCH   4   5
HETATM    5  C   UNL     1     -11.341  12.419  68.079  1.00  0.00    -0.287 A  
HETATM    6  C   UNL     1     -11.661  11.429  69.022  1.00  0.00    -0.409 A  
HETATM    7  C   UNL     1     -12.251  11.740  70.252  1.00  0.00    -0.299 A  
HETATM    8  C   UNL     1     -12.402  13.077  70.602  1.00  0.00    -0.391 A  
HETATM    9  N   UNL     1     -12.471  10.732  71.196  1.00  0.00    -0.389 NA 
HETATM   10  H1  UNL     1     -12.900  10.959  72.093  1.00  0.00     0.000 HD 
HETATM   11  C   UNL     1     -12.087  14.082  69.690  1.00  0.00    -0.408 A  
HETATM   12  H2  UNL     1     -11.586  10.257  71.374  1.00  0.00     0.000 HD 
HETATM   13  C   UNL     1     -11.578  13.763  68.420  1.00  0.00    -0.369 A  
BRANCH  13  14
HETATM   14  C   UNL     1     -11.420  14.919  67.495  1.00  0.00    -0.348 C  
HETATM   15  O   UNL     1     -11.925  14.958  66.381  1.00  0.00    -0.228 OA 
BRANCH  14  16
HETATM   16  O   UNL     1     -10.448  15.740  67.956  1.00  0.00    -0.256 OA 
BRANCH  16  17
HETATM   17  C   UNL     1     -10.846  17.104  68.160  1.00  0.00    -0.316 C  
BRANCH  17  18
HETATM   18  C   UNL     1      -9.630  17.811  68.786  1.00  0.00    -0.290 C  
BRANCH  18  19
HETATM   19  N   UNL     1      -8.315  17.609  68.146  1.00  0.00    -0.251 NA 
BRANCH  19  20
HETATM   20  C   UNL     1      -7.455  16.846  69.068  1.00  0.00    -0.220 C  
HETATM   21  C   UNL     1      -6.011  17.327  69.127  1.00  0.00    -0.205 C  
ENDBRANCH  19  20
BRANCH  19  22
HETATM   22  C   UNL     1      -7.717  18.853  67.647  1.00  0.00    -0.238 C  
HETATM   23  C   UNL     1      -7.347  18.882  66.167  1.00  0.00    -0.292 C  
ENDBRANCH  19  22
ENDBRANCH  18  19
ENDBRANCH  17  18
ENDBRANCH  16  17
ENDBRANCH  14  16
ENDBRANCH  13  14
ENDBRANCH   4   5
ENDBRANCH   3   4
ENDBRANCH   2   3
TORSDOF 10
ENDMDL
MODEL      182
REMARK 921   NORMALIZED FREE ENERGY PREDICTED BY IDOCK:   -3.57 KCAL/MOL
REMARK 922        TOTAL FREE ENERGY PREDICTED BY IDOCK:   -6.71 KCAL/MOL
REMARK 923 INTER-LIGAND FREE ENERGY PREDICTED BY IDOCK:   -5.75 KCAL/MOL
REMARK 924 INTRA-LIGAND FREE ENERGY PREDICTED BY IDOCK:   -0.96 KCAL/MOL
REMARK 927      BINDING AFFINITY PREDICTED BY RF-SCORE:    0.00 PKD
ROOT
HETATM    1  C   UNL     1     -10.118   6.357  68.085  1.00  0.00    -0.167 C  
HETATM    2  C   UNL     1      -9.128   6.474  66.935  1.00  0.00    -0.144 C  
ENDROOT
BRANCH   2   3
HETATM    3  C   UNL     1      -8.548   7.881  66.866  1.00  0.00    -0.129 C  
BRANCH   3   4
HETATM    4  O   UNL     1      -9.491   8.816  67.394  1.00  0.00    -0.140 OA 
BRANCH   4   5
HETATM    5  C   UNL     1      -9.920   9.809  66.546  1.00  0.00    -0.239 A  
HETATM    6  C   UNL     1      -9.793   9.735  65.149  1.00  0.00    -0.294 A  
HETATM    7  C   UNL     1     -10.203  10.778  64.311  1.00  0.00    -0.354 A  
HETATM    8  C   UNL     1     -10.876  11.860  64.871  1.00  0.00    -0.356 A  
HETATM    9  N   UNL     1     -10.139  10.626  62.923  1.00  0.00    -0.709 NA 
HETATM   10  H1  UNL     1     -10.438  11.386  62.312  1.00  0.00     0.000 HD 
HETATM   11  C   UNL     1     -11.024  11.956  66.252  1.00  0.00    -0.345 A  
HETATM   12  H2  UNL     1     -10.654   9.784  62.666  1.00  0.00     0.000 HD 
HETATM   13  C   UNL     1     -10.531  10.949  67.098  1.00  0.00    -0.281 A  
BRANCH  13  14
HETATM   14  C   UNL     1     -10.627  11.244  68.554  1.00  0.00    -0.199 C  
HETATM   15  O   UNL     1      -9.722  11.764  69.193  1.00  0.00     0.051 OA 
BRANCH  14  16
HETATM   16  O   UNL     1     -11.708  10.618  69.075  1.00  0.00    -0.277 OA 
BRANCH  16  17
HETATM   17  C   UNL     1     -11.644  10.358  70.486  1.00  0.00    -0.344 C  
BRANCH  17  18
HETATM   18  C   UNL     1     -11.280   8.870  70.627  1.00  0.00    -0.266 C  
BRANCH  18  19
HETATM   19  N   UNL     1     -12.318   7.958  71.151  1.00  0.00    -0.272 NA 
BRANCH  19  20
HETATM   20  C   UNL     1     -12.797   8.483  72.443  1.00  0.00    -0.321 C  
HETATM   21  C   UNL     1     -14.307   8.657  72.531  1.00  0.00    -0.347 C  
ENDBRANCH  19  20
BRANCH  19  22
HETATM   22  C   UNL     1     -11.890   6.554  71.186  1.00  0.00    -0.325 C  
HETATM   23  C   UNL     1     -11.661   5.950  72.569  1.00  0.00    -0.288 C  
ENDBRANCH  19  22
ENDBRANCH  18  19
ENDBRANCH  17  18
ENDBRANCH  16  17
ENDBRANCH  14  16
ENDBRANCH  13  14
ENDBRANCH   4   5
ENDBRANCH   3   4
ENDBRANCH   2   3
TORSDOF 10
ENDMDL
MODEL      183
REMARK 921   NORMALIZED FREE ENERGY PREDICTED BY IDOCK:   -3.56 KCAL/MOL
REMARK 922        TOTAL FREE ENERGY PREDICTED BY IDOCK:   -6.69 KCAL/MOL
REMARK 923 INTER-LIGAND FREE ENERGY PREDICTED BY IDOCK:   -5.91 KCAL/MOL
REMARK 924 INTRA-LIGAND FREE ENERGY PREDICTED BY IDOCK:   -0.78 KCAL/MOL
REMARK 927      BINDING AFFINITY PREDICTED BY RF-SCORE:    0.00 PKD
ROOT
HETATM    1  C   UNL     1     -10.420  11.854  63.531  1.00  0.00    -0.505 C  
HETATM    2  C   UNL     1     -11.417  12.967  63.826  1.00  0.00    -0.519 C  
ENDROOT
BRANCH   2   3
HETATM    3  C   UNL     1     -10.765  14.067  64.654  1.00  0.00    -0.399 C  
BRANCH   3   4
HETATM    4  O   UNL     1     -10.020  13.486  65.726  1.00  0.00    -0.284 OA 
BRANCH   4   5
HETATM    5  C   UNL     1     -10.655  13.391  66.941  1.00  0.00    -0.273 A  
HETATM    6  C   UNL     1     -11.311  14.472  67.552  1.00  0.00    -0.355 A  
HETATM    7  C   UNL     1     -11.915  14.358  68.809  1.00  0.00    -0.295 A  
HETATM    8  C   UNL     1     -11.981  13.105  69.408  1.00  0.00    -0.347 A  
HETATM    9  N   UNL     1     -12.632  15.435  69.340  1.00  0.00    -0.596 NA 
HETATM   10  H1  UNL     1     -13.073  15.352  70.256  1.00  0.00     0.000 HD 
HETATM   11  C   UNL     1     -11.347  12.012  68.821  1.00  0.00    -0.331 A  
HETATM   12  H2  UNL     1     -13.343  15.714  68.664  1.00  0.00     0.000 HD 
HETATM   13  C   UNL     1     -10.664  12.149  67.602  1.00  0.00    -0.252 A  
BRANCH  13  14
HETATM   14  C   UNL     1      -9.911  10.943  67.160  1.00  0.00    -0.184 C  
HETATM   15  O   UNL     1      -8.726  10.968  66.855  1.00  0.00    -0.141 OA 
BRANCH  14  16
HETATM   16  O   UNL     1     -10.778   9.939  66.895  1.00  0.00    -0.203 OA 
BRANCH  16  17
HETATM   17  C   UNL     1     -10.567   8.734  67.648  1.00  0.00    -0.213 C  
BRANCH  17  18
HETATM   18  C   UNL     1     -10.106   7.675  66.632  1.00  0.00    -0.208 C  
BRANCH  18  19
HETATM   19  N   UNL     1      -9.515   6.428  67.162  1.00  0.00    -0.126 NA 
BRANCH  19  20
HETATM   20  C   UNL     1      -8.065   6.444  66.895  1.00  0.00    -0.109 C  
HETATM   21  C   UNL     1      -7.206   6.781  68.106  1.00  0.00    -0.091 C  
ENDBRANCH  19  20
BRANCH  19  22
HETATM   22  C   UNL     1     -10.205   5.219  66.698  1.00  0.00    -0.253 C  
HETATM   23  C   UNL     1      -9.542   3.887  67.039  1.00  0.00    -0.227 C  
ENDBRANCH  19  22
ENDBRANCH  18  19
ENDBRANCH  17  18
ENDBRANCH  16  17
ENDBRANCH  14  16
ENDBRANCH  13  14
ENDBRANCH   4   5
ENDBRANCH   3   4
ENDBRANCH   2   3
TORSDOF 10
ENDMDL
MODEL      184
REMARK 921   NORMALIZED FREE ENERGY PREDICTED BY IDOCK:   -3.55 KCAL/MOL
REMARK 922        TOTAL FREE ENERGY PREDICTED BY IDOCK:   -6.68 KCAL/MOL
REMARK 923 INTER-LIGAND FREE ENERGY PREDICTED BY IDOCK:   -6.18 KCAL/MOL
REMARK 924 INTRA-LIGAND FREE ENERGY PREDICTED BY IDOCK:   -0.50 KCAL/MOL
REMARK 927      BINDING AFFINITY PREDICTED BY RF-SCORE:    0.00 PKD
ROOT
HETATM    1  C   UNL     1      -9.849  10.554  64.061  1.00  0.00    -0.387 C  
HETATM    2  C   UNL     1     -10.544  11.595  63.194  1.00  0.00    -0.341 C  
ENDROOT
BRANCH   2   3
HETATM    3  C   UNL     1     -11.486  12.451  64.031  1.00  0.00    -0.408 C  
BRANCH   3   4
HETATM    4  O   UNL     1     -11.009  12.514  65.377  1.00  0.00    -0.280 OA 
BRANCH   4   5
HETATM    5  C   UNL     1     -10.559  13.735  65.818  1.00  0.00    -0.293 A  
HETATM    6  C   UNL     1     -10.929  14.953  65.222  1.00  0.00    -0.389 A  
HETATM    7  C   UNL     1     -10.424  16.179  65.666  1.00  0.00    -0.383 A  
HETATM    8  C   UNL     1      -9.637  16.202  66.813  1.00  0.00    -0.256 A  
HETATM    9  N   UNL     1     -10.888  17.372  65.102  1.00  0.00    -0.609 NA 
HETATM   10  H1  UNL     1     -10.520  18.266  65.426  1.00  0.00     0.000 HD 
HETATM   11  C   UNL     1      -9.260  15.012  67.430  1.00  0.00    -0.200 A  
HETATM   12  H2  UNL     1     -11.904  17.393  65.183  1.00  0.00     0.000 HD 
HETATM   13  C   UNL     1      -9.697  13.775  66.928  1.00  0.00    -0.265 A  
BRANCH  13  14
HETATM   14  C   UNL     1      -9.105  12.580  67.591  1.00  0.00    -0.187 C  
HETATM   15  O   UNL     1      -7.999  12.139  67.314  1.00  0.00    -0.160 OA 
BRANCH  14  16
HETATM   16  O   UNL     1     -10.060  11.937  68.304  1.00  0.00    -0.192 OA 
BRANCH  16  17
HETATM   17  C   UNL     1     -10.828  12.769  69.187  1.00  0.00    -0.075 C  
BRANCH  17  18
HETATM   18  C   UNL     1     -12.201  12.087  69.322  1.00  0.00    -0.077 C  
BRANCH  18  19
HETATM   19  N   UNL     1     -12.858  12.125  70.646  1.00  0.00    -0.037 NA 
BRANCH  19  20
HETATM   20  C   UNL     1     -12.620  13.448  71.251  1.00  0.00    -0.322 C  
HETATM   21  C   UNL     1     -13.799  13.999  72.041  1.00  0.00    -0.582 C  
ENDBRANCH  19  20
BRANCH  19  22
HETATM   22  C   UNL     1     -12.496  10.990  71.503  1.00  0.00    -0.284 C  
HETATM   23  C   UNL     1     -11.681   9.878  70.848  1.00  0.00    -0.449 C  
ENDBRANCH  19  22
ENDBRANCH  18  19
ENDBRANCH  17  18
ENDBRANCH  16  17
ENDBRANCH  14  16
ENDBRANCH  13  14
ENDBRANCH   4   5
ENDBRANCH   3   4
ENDBRANCH   2   3
TORSDOF 10
ENDMDL
MODEL      185
REMARK 921   NORMALIZED FREE ENERGY PREDICTED BY IDOCK:   -3.55 KCAL/MOL
REMARK 922        TOTAL FREE ENERGY PREDICTED BY IDOCK:   -6.68 KCAL/MOL
REMARK 923 INTER-LIGAND FREE ENERGY PREDICTED BY IDOCK:   -5.77 KCAL/MOL
REMARK 924 INTRA-LIGAND FREE ENERGY PREDICTED BY IDOCK:   -0.90 KCAL/MOL
REMARK 927      BINDING AFFINITY PREDICTED BY RF-SCORE:    0.00 PKD
ROOT
HETATM    1  C   UNL     1      -6.297  13.797  67.981  1.00  0.00    -0.141 C  
HETATM    2  C   UNL     1      -5.823  15.242  68.043  1.00  0.00    -0.152 C  
ENDROOT
BRANCH   2   3
HETATM    3  C   UNL     1      -6.419  15.953  69.252  1.00  0.00    -0.159 C  
BRANCH   3   4
HETATM    4  O   UNL     1      -7.836  16.051  69.101  1.00  0.00    -0.213 OA 
BRANCH   4   5
HETATM    5  C   UNL     1      -8.335  17.271  68.713  1.00  0.00    -0.228 A  
HETATM    6  C   UNL     1      -7.519  18.358  68.358  1.00  0.00    -0.300 A  
HETATM    7  C   UNL     1      -8.053  19.602  68.007  1.00  0.00    -0.308 A  
HETATM    8  C   UNL     1      -9.432  19.725  67.877  1.00  0.00    -0.458 A  
HETATM    9  N   UNL     1      -7.207  20.629  67.575  1.00  0.00    -0.333 NA 
HETATM   10  H1  UNL     1      -7.597  21.536  67.318  1.00  0.00     0.000 HD 
HETATM   11  C   UNL     1     -10.267  18.662  68.214  1.00  0.00    -0.423 A  
HETATM   12  H2  UNL     1      -6.653  20.283  66.793  1.00  0.00     0.000 HD 
HETATM   13  C   UNL     1      -9.730  17.441  68.654  1.00  0.00    -0.308 A  
BRANCH  13  14
HETATM   14  C   UNL     1     -10.731  16.442  69.118  1.00  0.00    -0.317 C  
HETATM   15  O   UNL     1     -11.005  16.266  70.298  1.00  0.00    -0.347 OA 
BRANCH  14  16
HETATM   16  O   UNL     1     -11.054  15.614  68.097  1.00  0.00    -0.303 OA 
BRANCH  16  17
HETATM   17  C   UNL     1     -10.673  14.242  68.277  1.00  0.00    -0.247 C  
BRANCH  17  18
HETATM   18  C   UNL     1     -11.986  13.453  68.428  1.00  0.00    -0.324 C  
BRANCH  18  19
HETATM   19  N   UNL     1     -12.037  12.399  69.462  1.00  0.00    -0.236 NA 
BRANCH  19  20
HETATM   20  C   UNL     1     -11.953  13.037  70.788  1.00  0.00    -0.039 C  
HETATM   21  C   UNL     1     -13.245  13.694  71.254  1.00  0.00    -0.308 C  
ENDBRANCH  19  20
BRANCH  19  22
HETATM   22  C   UNL     1     -11.062  11.325  69.241  1.00  0.00    -0.255 C  
HETATM   23  C   UNL     1     -10.987  10.245  70.317  1.00  0.00    -0.375 C  
ENDBRANCH  19  22
ENDBRANCH  18  19
ENDBRANCH  17  18
ENDBRANCH  16  17
ENDBRANCH  14  16
ENDBRANCH  13  14
ENDBRANCH   4   5
ENDBRANCH   3   4
ENDBRANCH   2   3
TORSDOF 10
ENDMDL
MODEL      186
REMARK 921   NORMALIZED FREE ENERGY PREDICTED BY IDOCK:   -3.54 KCAL/MOL
REMARK 922        TOTAL FREE ENERGY PREDICTED BY IDOCK:   -6.66 KCAL/MOL
REMARK 923 INTER-LIGAND FREE ENERGY PREDICTED BY IDOCK:   -5.63 KCAL/MOL
REMARK 924 INTRA-LIGAND FREE ENERGY PREDICTED BY IDOCK:   -1.04 KCAL/MOL
REMARK 927      BINDING AFFINITY PREDICTED BY RF-SCORE:    0.00 PKD
ROOT
HETATM    1  C   UNL     1      -9.054   9.679  64.027  1.00  0.00    -0.246 C  
HETATM    2  C   UNL     1      -9.651  10.965  63.473  1.00  0.00    -0.354 C  
ENDROOT
BRANCH   2   3
HETATM    3  C   UNL     1     -10.704  11.523  64.423  1.00  0.00    -0.344 C  
BRANCH   3   4
HETATM    4  O   UNL     1     -10.795  10.692  65.582  1.00  0.00    -0.095 OA 
BRANCH   4   5
HETATM    5  C   UNL     1     -10.997  11.325  66.784  1.00  0.00    -0.281 A  
HETATM    6  C   UNL     1     -11.644  12.567  66.900  1.00  0.00    -0.436 A  
HETATM    7  C   UNL     1     -11.801  13.208  68.133  1.00  0.00    -0.348 A  
HETATM    8  C   UNL     1     -11.423  12.535  69.290  1.00  0.00    -0.353 A  
HETATM    9  N   UNL     1     -12.529  14.400  68.213  1.00  0.00    -0.537 NA 
HETATM   10  H1  UNL     1     -12.644  14.867  69.113  1.00  0.00     0.000 HD 
HETATM   11  C   UNL     1     -10.786  11.299  69.207  1.00  0.00    -0.259 A  
HETATM   12  H2  UNL     1     -13.453  14.241  67.812  1.00  0.00     0.000 HD 
HETATM   13  C   UNL     1     -10.549  10.697  67.960  1.00  0.00    -0.248 A  
BRANCH  13  14
HETATM   14  C   UNL     1      -9.734   9.452  68.005  1.00  0.00    -0.145 C  
HETATM   15  O   UNL     1      -8.522   9.439  67.845  1.00  0.00    -0.116 OA 
BRANCH  14  16
HETATM   16  O   UNL     1     -10.551   8.374  67.969  1.00  0.00    -0.204 OA 
BRANCH  16  17
HETATM   17  C   UNL     1     -10.086   7.229  68.701  1.00  0.00    -0.176 C  
BRANCH  17  18
HETATM   18  C   UNL     1     -10.206   7.601  70.190  1.00  0.00    -0.204 C  
BRANCH  18  19
HETATM   19  N   UNL     1     -10.681   6.557  71.121  1.00  0.00    -0.233 NA 
BRANCH  19  20
HETATM   20  C   UNL     1     -12.070   6.868  71.505  1.00  0.00    -0.358 C  
HETATM   21  C   UNL     1     -12.462   8.329  71.325  1.00  0.00    -0.264 C  
ENDBRANCH  19  20
BRANCH  19  22
HETATM   22  C   UNL     1      -9.773   6.334  72.252  1.00  0.00    -0.155 C  
HETATM   23  C   UNL     1     -10.413   5.844  73.548  1.00  0.00    -0.274 C  
ENDBRANCH  19  22
ENDBRANCH  18  19
ENDBRANCH  17  18
ENDBRANCH  16  17
ENDBRANCH  14  16
ENDBRANCH  13  14
ENDBRANCH   4   5
ENDBRANCH   3   4
ENDBRANCH   2   3
TORSDOF 10
ENDMDL
MODEL      187
REMARK 921   NORMALIZED FREE ENERGY PREDICTED BY IDOCK:   -3.54 KCAL/MOL
REMARK 922        TOTAL FREE ENERGY PREDICTED BY IDOCK:   -6.66 KCAL/MOL
REMARK 923 INTER-LIGAND FREE ENERGY PREDICTED BY IDOCK:   -6.06 KCAL/MOL
REMARK 924 INTRA-LIGAND FREE ENERGY PREDICTED BY IDOCK:   -0.60 KCAL/MOL
REMARK 927      BINDING AFFINITY PREDICTED BY RF-SCORE:    0.00 PKD
ROOT
HETATM    1  C   UNL     1     -11.425  12.330  63.389  1.00  0.00    -0.512 C  
HETATM    2  C   UNL     1     -12.628  12.581  64.286  1.00  0.00    -0.485 C  
ENDROOT
BRANCH   2   3
HETATM    3  C   UNL     1     -12.225  13.385  65.516  1.00  0.00    -0.455 C  
BRANCH   3   4
HETATM    4  O   UNL     1     -10.812  13.292  65.709  1.00  0.00    -0.272 OA 
BRANCH   4   5
HETATM    5  C   UNL     1     -10.379  12.496  66.742  1.00  0.00    -0.226 A  
HETATM    6  C   UNL     1     -10.977  11.267  67.070  1.00  0.00    -0.352 A  
HETATM    7  C   UNL     1     -10.541  10.496  68.152  1.00  0.00    -0.204 A  
HETATM    8  C   UNL     1      -9.400  10.895  68.841  1.00  0.00    -0.169 A  
HETATM    9  N   UNL     1     -11.107   9.239  68.387  1.00  0.00    -0.474 NA 
HETATM   10  H1  UNL     1     -10.789   8.677  69.177  1.00  0.00     0.000 HD 
HETATM   11  C   UNL     1      -8.781  12.104  68.533  1.00  0.00    -0.079 A  
HETATM   12  H2  UNL     1     -11.019   8.682  67.538  1.00  0.00     0.000 HD 
HETATM   13  C   UNL     1      -9.275  12.921  67.503  1.00  0.00    -0.192 A  
BRANCH  13  14
HETATM   14  C   UNL     1      -8.612  14.247  67.376  1.00  0.00    -0.213 C  
HETATM   15  O   UNL     1      -7.419  14.379  67.135  1.00  0.00    -0.136 OA 
BRANCH  14  16
HETATM   16  O   UNL     1      -9.442  15.216  67.827  1.00  0.00    -0.193 OA 
BRANCH  16  17
HETATM   17  C   UNL     1      -9.812  16.206  66.856  1.00  0.00    -0.241 C  
BRANCH  17  18
HETATM   18  C   UNL     1      -8.831  17.376  67.048  1.00  0.00    -0.234 C  
BRANCH  18  19
HETATM   19  N   UNL     1      -8.547  17.812  68.431  1.00  0.00    -0.286 NA 
BRANCH  19  20
HETATM   20  C   UNL     1      -8.740  19.272  68.512  1.00  0.00    -0.367 C  
HETATM   21  C   UNL     1     -10.102  19.754  68.033  1.00  0.00    -0.571 C  
ENDBRANCH  19  20
BRANCH  19  22
HETATM   22  C   UNL     1      -7.250  17.342  68.930  1.00  0.00    -0.243 C  
HETATM   23  C   UNL     1      -6.037  17.639  68.052  1.00  0.00    -0.158 C  
ENDBRANCH  19  22
ENDBRANCH  18  19
ENDBRANCH  17  18
ENDBRANCH  16  17
ENDBRANCH  14  16
ENDBRANCH  13  14
ENDBRANCH   4   5
ENDBRANCH   3   4
ENDBRANCH   2   3
TORSDOF 10
ENDMDL
MODEL      188
REMARK 921   NORMALIZED FREE ENERGY PREDICTED BY IDOCK:   -3.54 KCAL/MOL
REMARK 922        TOTAL FREE ENERGY PREDICTED BY IDOCK:   -6.66 KCAL/MOL
REMARK 923 INTER-LIGAND FREE ENERGY PREDICTED BY IDOCK:   -5.97 KCAL/MOL
REMARK 924 INTRA-LIGAND FREE ENERGY PREDICTED BY IDOCK:   -0.69 KCAL/MOL
REMARK 927      BINDING AFFINITY PREDICTED BY RF-SCORE:    0.00 PKD
ROOT
HETATM    1  C   UNL     1     -11.137   6.317  73.016  1.00  0.00    -0.237 C  
HETATM    2  C   UNL     1     -11.095   7.801  72.681  1.00  0.00    -0.433 C  
ENDROOT
BRANCH   2   3
HETATM    3  C   UNL     1     -12.304   8.199  71.843  1.00  0.00    -0.332 C  
BRANCH   3   4
HETATM    4  O   UNL     1     -11.873   8.930  70.694  1.00  0.00    -0.241 OA 
BRANCH   4   5
HETATM    5  C   UNL     1     -12.105  10.284  70.698  1.00  0.00    -0.338 A  
HETATM    6  C   UNL     1     -12.890  10.927  71.669  1.00  0.00    -0.554 A  
HETATM    7  C   UNL     1     -13.143  12.302  71.627  1.00  0.00    -0.306 A  
HETATM    8  C   UNL     1     -12.491  13.072  70.670  1.00  0.00    -0.347 A  
HETATM    9  N   UNL     1     -13.856  12.914  72.663  1.00  0.00    -0.721 NA 
HETATM   10  H1  UNL     1     -14.040  13.916  72.632  1.00  0.00     0.000 HD 
HETATM   11  C   UNL     1     -11.700  12.464  69.699  1.00  0.00    -0.377 A  
HETATM   12  H2  UNL     1     -13.392  12.698  73.545  1.00  0.00     0.000 HD 
HETATM   13  C   UNL     1     -11.519  11.071  69.690  1.00  0.00    -0.375 A  
BRANCH  13  14
HETATM   14  C   UNL     1     -10.773  10.538  68.518  1.00  0.00    -0.224 C  
HETATM   15  O   UNL     1     -11.263   9.765  67.707  1.00  0.00    -0.184 OA 
BRANCH  14  16
HETATM   16  O   UNL     1      -9.455  10.814  68.655  1.00  0.00    -0.172 OA 
BRANCH  16  17
HETATM   17  C   UNL     1      -8.608  10.286  67.622  1.00  0.00    -0.118 C  
BRANCH  17  18
HETATM   18  C   UNL     1      -8.421  11.424  66.604  1.00  0.00    -0.171 C  
BRANCH  18  19
HETATM   19  N   UNL     1      -8.499  11.080  65.169  1.00  0.00    -0.039 NA 
BRANCH  19  20
HETATM   20  C   UNL     1      -9.918  10.965  64.789  1.00  0.00    -0.307 C  
HETATM   21  C   UNL     1     -10.153  10.658  63.316  1.00  0.00    -0.233 C  
ENDBRANCH  19  20
BRANCH  19  22
HETATM   22  C   UNL     1      -7.677   9.919  64.808  1.00  0.00    -0.138 C  
HETATM   23  C   UNL     1      -6.540  10.175  63.823  1.00  0.00    -0.119 C  
ENDBRANCH  19  22
ENDBRANCH  18  19
ENDBRANCH  17  18
ENDBRANCH  16  17
ENDBRANCH  14  16
ENDBRANCH  13  14
ENDBRANCH   4   5
ENDBRANCH   3   4
ENDBRANCH   2   3
TORSDOF 10
ENDMDL
MODEL      189
REMARK 921   NORMALIZED FREE ENERGY PREDICTED BY IDOCK:   -3.54 KCAL/MOL
REMARK 922        TOTAL FREE ENERGY PREDICTED BY IDOCK:   -6.66 KCAL/MOL
REMARK 923 INTER-LIGAND FREE ENERGY PREDICTED BY IDOCK:   -5.81 KCAL/MOL
REMARK 924 INTRA-LIGAND FREE ENERGY PREDICTED BY IDOCK:   -0.85 KCAL/MOL
REMARK 927      BINDING AFFINITY PREDICTED BY RF-SCORE:    0.00 PKD
ROOT
HETATM    1  C   UNL     1     -12.285  14.017  64.159  1.00  0.00    -0.433 C  
HETATM    2  C   UNL     1     -12.489  12.740  64.962  1.00  0.00    -0.572 C  
ENDROOT
BRANCH   2   3
HETATM    3  C   UNL     1     -11.708  12.795  66.269  1.00  0.00    -0.402 C  
BRANCH   3   4
HETATM    4  O   UNL     1     -11.620  11.484  66.832  1.00  0.00    -0.503 OA 
BRANCH   4   5
HETATM    5  C   UNL     1     -10.364  10.939  66.940  1.00  0.00    -0.238 A  
HETATM    6  C   UNL     1      -9.449  10.899  65.874  1.00  0.00    -0.241 A  
HETATM    7  C   UNL     1      -8.190  10.302  66.001  1.00  0.00    -0.141 A  
HETATM    8  C   UNL     1      -7.785   9.855  67.254  1.00  0.00    -0.095 A  
HETATM    9  N   UNL     1      -7.278  10.362  64.942  1.00  0.00    -0.292 NA 
HETATM   10  H1  UNL     1      -6.360   9.928  65.034  1.00  0.00     0.000 HD 
HETATM   11  C   UNL     1      -8.667   9.890  68.331  1.00  0.00    -0.120 A  
HETATM   12  H2  UNL     1      -7.148  11.340  64.684  1.00  0.00     0.000 HD 
HETATM   13  C   UNL     1      -9.963  10.409  68.179  1.00  0.00    -0.170 A  
BRANCH  13  14
HETATM   14  C   UNL     1     -10.848  10.254  69.366  1.00  0.00    -0.245 C  
HETATM   15  O   UNL     1     -11.618   9.315  69.510  1.00  0.00     0.107 OA 
BRANCH  14  16
HETATM   16  O   UNL     1     -10.862  11.407  70.076  1.00  0.00     0.001 OA 
BRANCH  16  17
HETATM   17  C   UNL     1     -12.162  11.977  70.291  1.00  0.00    -0.266 C  
BRANCH  17  18
HETATM   18  C   UNL     1     -11.918  13.398  70.828  1.00  0.00    -0.139 C  
BRANCH  18  19
HETATM   19  N   UNL     1     -13.011  14.382  70.686  1.00  0.00    -0.339 NA 
BRANCH  19  20
HETATM   20  C   UNL     1     -12.442  15.648  70.190  1.00  0.00    -0.278 C  
HETATM   21  C   UNL     1     -10.922  15.719  70.244  1.00  0.00    -0.368 C  
ENDBRANCH  19  20
BRANCH  19  22
HETATM   22  C   UNL     1     -13.829  14.517  71.897  1.00  0.00    -0.457 C  
HETATM   23  C   UNL     1     -13.108  14.998  73.152  1.00  0.00    -0.619 C  
ENDBRANCH  19  22
ENDBRANCH  18  19
ENDBRANCH  17  18
ENDBRANCH  16  17
ENDBRANCH  14  16
ENDBRANCH  13  14
ENDBRANCH   4   5
ENDBRANCH   3   4
ENDBRANCH   2   3
TORSDOF 10
ENDMDL
MODEL      190
REMARK 921   NORMALIZED FREE ENERGY PREDICTED BY IDOCK:   -3.53 KCAL/MOL
REMARK 922        TOTAL FREE ENERGY PREDICTED BY IDOCK:   -6.66 KCAL/MOL
REMARK 923 INTER-LIGAND FREE ENERGY PREDICTED BY IDOCK:   -6.39 KCAL/MOL
REMARK 924 INTRA-LIGAND FREE ENERGY PREDICTED BY IDOCK:   -0.27 KCAL/MOL
REMARK 927      BINDING AFFINITY PREDICTED BY RF-SCORE:    0.00 PKD
ROOT
HETATM    1  C   UNL     1      -8.497  16.423  67.861  1.00  0.00    -0.171 C  
HETATM    2  C   UNL     1      -9.501  16.694  68.972  1.00  0.00    -0.236 C  
ENDROOT
BRANCH   2   3
HETATM    3  C   UNL     1     -10.814  15.971  68.700  1.00  0.00    -0.301 C  
BRANCH   3   4
HETATM    4  O   UNL     1     -10.545  14.647  68.232  1.00  0.00    -0.228 OA 
BRANCH   4   5
HETATM    5  C   UNL     1     -11.152  14.270  67.059  1.00  0.00    -0.312 A  
HETATM    6  C   UNL     1     -11.336  15.142  65.973  1.00  0.00    -0.221 A  
HETATM    7  C   UNL     1     -11.993  14.742  64.804  1.00  0.00    -0.404 A  
HETATM    8  C   UNL     1     -12.355  13.406  64.664  1.00  0.00    -0.433 A  
HETATM    9  N   UNL     1     -12.076  15.616  63.715  1.00  0.00    -1.074 NA 
HETATM   10  H1  UNL     1     -12.554  15.324  62.863  1.00  0.00     0.000 HD 
HETATM   11  C   UNL     1     -12.178  12.516  65.721  1.00  0.00    -0.361 A  
HETATM   12  H2  UNL     1     -11.133  15.915  63.469  1.00  0.00     0.000 HD 
HETATM   13  C   UNL     1     -11.599  12.942  66.928  1.00  0.00    -0.425 A  
BRANCH  13  14
HETATM   14  C   UNL     1     -11.600  11.931  68.020  1.00  0.00    -0.332 C  
HETATM   15  O   UNL     1     -11.587  12.228  69.207  1.00  0.00    -0.284 OA 
BRANCH  14  16
HETATM   16  O   UNL     1     -11.344  10.706  67.506  1.00  0.00    -0.408 OA 
BRANCH  16  17
HETATM   17  C   UNL     1     -10.008  10.223  67.712  1.00  0.00    -0.173 C  
BRANCH  17  18
HETATM   18  C   UNL     1     -10.126   9.074  68.729  1.00  0.00    -0.199 C  
BRANCH  18  19
HETATM   19  N   UNL     1      -9.188   7.940  68.594  1.00  0.00    -0.143 NA 
BRANCH  19  20
HETATM   20  C   UNL     1      -9.949   6.747  68.179  1.00  0.00    -0.149 C  
HETATM   21  C   UNL     1     -10.951   6.998  67.060  1.00  0.00    -0.357 C  
ENDBRANCH  19  20
BRANCH  19  22
HETATM   22  C   UNL     1      -8.346   7.741  69.780  1.00  0.00    -0.131 C  
HETATM   23  C   UNL     1      -6.846   7.617  69.532  1.00  0.00    -0.044 C  
ENDBRANCH  19  22
ENDBRANCH  18  19
ENDBRANCH  17  18
ENDBRANCH  16  17
ENDBRANCH  14  16
ENDBRANCH  13  14
ENDBRANCH   4   5
ENDBRANCH   3   4
ENDBRANCH   2   3
TORSDOF 10
ENDMDL
MODEL      191
REMARK 921   NORMALIZED FREE ENERGY PREDICTED BY IDOCK:   -3.53 KCAL/MOL
REMARK 922        TOTAL FREE ENERGY PREDICTED BY IDOCK:   -6.65 KCAL/MOL
REMARK 923 INTER-LIGAND FREE ENERGY PREDICTED BY IDOCK:   -5.83 KCAL/MOL
REMARK 924 INTRA-LIGAND FREE ENERGY PREDICTED BY IDOCK:   -0.82 KCAL/MOL
REMARK 927      BINDING AFFINITY PREDICTED BY RF-SCORE:    0.00 PKD
ROOT
HETATM    1  C   UNL     1      -7.200  10.835  68.061  1.00  0.00    -0.086 C  
HETATM    2  C   UNL     1      -8.691  10.774  68.365  1.00  0.00    -0.142 C  
ENDROOT
BRANCH   2   3
HETATM    3  C   UNL     1      -9.494  10.580  67.085  1.00  0.00    -0.159 C  
BRANCH   3   4
HETATM    4  O   UNL     1      -9.157  11.604  66.147  1.00  0.00    -0.213 OA 
BRANCH   4   5
HETATM    5  C   UNL     1     -10.199  12.191  65.470  1.00  0.00    -0.265 A  
HETATM    6  C   UNL     1     -10.906  11.549  64.440  1.00  0.00    -0.405 A  
HETATM    7  C   UNL     1     -11.937  12.185  63.741  1.00  0.00    -0.513 A  
HETATM    8  C   UNL     1     -12.360  13.440  64.167  1.00  0.00    -0.395 A  
HETATM    9  N   UNL     1     -12.673  11.478  62.784  1.00  0.00    -0.746 NA 
HETATM   10  H1  UNL     1     -13.425  11.942  62.274  1.00  0.00     0.000 HD 
HETATM   11  C   UNL     1     -11.683  14.098  65.191  1.00  0.00    -0.361 A  
HETATM   12  H2  UNL     1     -13.050  10.639  63.223  1.00  0.00     0.000 HD 
HETATM   13  C   UNL     1     -10.590  13.493  65.832  1.00  0.00    -0.284 A  
BRANCH  13  14
HETATM   14  C   UNL     1      -9.869  14.359  66.805  1.00  0.00    -0.264 C  
HETATM   15  O   UNL     1     -10.174  14.437  67.987  1.00  0.00    -0.222 OA 
BRANCH  14  16
HETATM   16  O   UNL     1      -9.054  15.210  66.139  1.00  0.00    -0.295 OA 
BRANCH  16  17
HETATM   17  C   UNL     1      -9.305  16.605  66.370  1.00  0.00    -0.281 C  
BRANCH  17  18
HETATM   18  C   UNL     1      -7.975  17.326  66.090  1.00  0.00    -0.257 C  
BRANCH  18  19
HETATM   19  N   UNL     1      -7.058  17.542  67.229  1.00  0.00    -0.162 NA 
BRANCH  19  20
HETATM   20  C   UNL     1      -6.543  18.922  67.162  1.00  0.00    -0.199 C  
HETATM   21  C   UNL     1      -6.614  19.685  68.478  1.00  0.00    -0.314 C  
ENDBRANCH  19  20
BRANCH  19  22
HETATM   22  C   UNL     1      -6.021  16.510  67.340  1.00  0.00    -0.158 C  
HETATM   23  C   UNL     1      -5.674  16.047  68.752  1.00  0.00    -0.108 C  
ENDBRANCH  19  22
ENDBRANCH  18  19
ENDBRANCH  17  18
ENDBRANCH  16  17
ENDBRANCH  14  16
ENDBRANCH  13  14
ENDBRANCH   4   5
ENDBRANCH   3   4
ENDBRANCH   2   3
TORSDOF 10
ENDMDL
MODEL      192
REMARK 921   NORMALIZED FREE ENERGY PREDICTED BY IDOCK:   -3.51 KCAL/MOL
REMARK 922        TOTAL FREE ENERGY PREDICTED BY IDOCK:   -6.62 KCAL/MOL
REMARK 923 INTER-LIGAND FREE ENERGY PREDICTED BY IDOCK:   -5.88 KCAL/MOL
REMARK 924 INTRA-LIGAND FREE ENERGY PREDICTED BY IDOCK:   -0.73 KCAL/MOL
REMARK 927      BINDING AFFINITY PREDICTED BY RF-SCORE:    0.00 PKD
ROOT
HETATM    1  C   UNL     1     -11.611  11.563  67.903  1.00  0.00    -0.352 C  
HETATM    2  C   UNL     1     -11.774  12.644  66.844  1.00  0.00    -0.453 C  
ENDROOT
BRANCH   2   3
HETATM    3  C   UNL     1     -10.568  13.576  66.838  1.00  0.00    -0.270 C  
BRANCH   3   4
HETATM    4  O   UNL     1     -10.992  14.913  67.113  1.00  0.00    -0.307 OA 
BRANCH   4   5
HETATM    5  C   UNL     1     -11.254  15.221  68.426  1.00  0.00    -0.309 A  
HETATM    6  C   UNL     1     -12.525  15.090  69.009  1.00  0.00     0.072 A  
HETATM    7  C   UNL     1     -12.772  15.450  70.338  1.00  0.00    -0.362 A  
HETATM    8  C   UNL     1     -11.699  15.822  71.140  1.00  0.00    -0.476 A  
HETATM    9  N   UNL     1     -14.032  15.220  70.902  1.00  0.00    -0.796 NA 
HETATM   10  H1  UNL     1     -14.211  15.482  71.871  1.00  0.00     0.000 HD 
HETATM   11  C   UNL     1     -10.425  15.952  70.593  1.00  0.00     0.129 A  
HETATM   12  H2  UNL     1     -14.262  14.234  70.786  1.00  0.00     0.000 HD 
HETATM   13  C   UNL     1     -10.197  15.676  69.235  1.00  0.00    -0.250 A  
BRANCH  13  14
HETATM   14  C   UNL     1      -8.826  15.994  68.747  1.00  0.00    -0.227 C  
HETATM   15  O   UNL     1      -7.963  15.145  68.576  1.00  0.00    -0.130 OA 
BRANCH  14  16
HETATM   16  O   UNL     1      -8.625  17.332  68.799  1.00  0.00    -0.274 OA 
BRANCH  16  17
HETATM   17  C   UNL     1      -9.397  18.103  67.866  1.00  0.00    -0.272 C  
BRANCH  17  18
HETATM   18  C   UNL     1      -8.380  18.913  67.043  1.00  0.00    -0.276 C  
BRANCH  18  19
HETATM   19  N   UNL     1      -6.958  18.522  67.133  1.00  0.00    -0.201 NA 
BRANCH  19  20
HETATM   20  C   UNL     1      -6.181  19.682  67.608  1.00  0.00    -0.195 C  
HETATM   21  C   UNL     1      -6.345  19.985  69.091  1.00  0.00    -0.360 C  
ENDBRANCH  19  20
BRANCH  19  22
HETATM   22  C   UNL     1      -6.447  17.912  65.900  1.00  0.00    -0.259 C  
HETATM   23  C   UNL     1      -5.877  18.869  64.856  1.00  0.00    -0.316 C  
ENDBRANCH  19  22
ENDBRANCH  18  19
ENDBRANCH  17  18
ENDBRANCH  16  17
ENDBRANCH  14  16
ENDBRANCH  13  14
ENDBRANCH   4   5
ENDBRANCH   3   4
ENDBRANCH   2   3
TORSDOF 10
ENDMDL
MODEL      193
REMARK 921   NORMALIZED FREE ENERGY PREDICTED BY IDOCK:   -3.51 KCAL/MOL
REMARK 922        TOTAL FREE ENERGY PREDICTED BY IDOCK:   -6.61 KCAL/MOL
REMARK 923 INTER-LIGAND FREE ENERGY PREDICTED BY IDOCK:   -5.52 KCAL/MOL
REMARK 924 INTRA-LIGAND FREE ENERGY PREDICTED BY IDOCK:   -1.10 KCAL/MOL
REMARK 927      BINDING AFFINITY PREDICTED BY RF-SCORE:    0.00 PKD
ROOT
HETATM    1  C   UNL     1      -8.620   7.240  67.803  1.00  0.00    -0.120 C  
HETATM    2  C   UNL     1      -9.343   8.471  67.274  1.00  0.00    -0.184 C  
ENDROOT
BRANCH   2   3
HETATM    3  C   UNL     1     -10.651   8.691  68.024  1.00  0.00    -0.145 C  
BRANCH   3   4
HETATM    4  O   UNL     1     -10.382   8.865  69.417  1.00  0.00    -0.204 OA 
BRANCH   4   5
HETATM    5  C   UNL     1     -11.192   9.741  70.100  1.00  0.00    -0.272 A  
HETATM    6  C   UNL     1     -11.242  11.117  69.824  1.00  0.00    -0.318 A  
HETATM    7  C   UNL     1     -12.046  11.993  70.561  1.00  0.00    -0.311 A  
HETATM    8  C   UNL     1     -12.919  11.463  71.505  1.00  0.00    -0.505 A  
HETATM    9  N   UNL     1     -12.131  13.340  70.195  1.00  0.00    -0.352 NA 
HETATM   10  H1  UNL     1     -12.718  13.978  70.733  1.00  0.00     0.000 HD 
HETATM   11  C   UNL     1     -12.899  10.101  71.795  1.00  0.00    -0.554 A  
HETATM   12  H2  UNL     1     -12.411  13.391  69.217  1.00  0.00     0.000 HD 
HETATM   13  C   UNL     1     -12.025   9.236  71.115  1.00  0.00    -0.394 A  
BRANCH  13  14
HETATM   14  C   UNL     1     -12.002   7.836  71.620  1.00  0.00    -0.297 C  
HETATM   15  O   UNL     1     -12.631   6.926  71.098  1.00  0.00    -0.376 OA 
BRANCH  14  16
HETATM   16  O   UNL     1     -11.431   7.805  72.846  1.00  0.00    -0.378 OA 
BRANCH  16  17
HETATM   17  C   UNL     1     -10.872   6.539  73.229  1.00  0.00    -0.248 C  
BRANCH  17  18
HETATM   18  C   UNL     1      -9.351   6.673  73.039  1.00  0.00    -0.135 C  
BRANCH  18  19
HETATM   19  N   UNL     1      -8.822   6.596  71.661  1.00  0.00    -0.134 NA 
BRANCH  19  20
HETATM   20  C   UNL     1      -8.811   5.184  71.240  1.00  0.00    -0.135 C  
HETATM   21  C   UNL     1      -9.852   4.833  70.185  1.00  0.00    -0.308 C  
ENDBRANCH  19  20
BRANCH  19  22
HETATM   22  C   UNL     1      -7.540   7.291  71.494  1.00  0.00    -0.086 C  
HETATM   23  C   UNL     1      -6.650   7.376  72.731  1.00  0.00    -0.060 C  
ENDBRANCH  19  22
ENDBRANCH  18  19
ENDBRANCH  17  18
ENDBRANCH  16  17
ENDBRANCH  14  16
ENDBRANCH  13  14
ENDBRANCH   4   5
ENDBRANCH   3   4
ENDBRANCH   2   3
TORSDOF 10
ENDMDL
MODEL      194
REMARK 921   NORMALIZED FREE ENERGY PREDICTED BY IDOCK:   -3.50 KCAL/MOL
REMARK 922        TOTAL FREE ENERGY PREDICTED BY IDOCK:   -6.61 KCAL/MOL
REMARK 923 INTER-LIGAND FREE ENERGY PREDICTED BY IDOCK:   -6.05 KCAL/MOL
REMARK 924 INTRA-LIGAND FREE ENERGY PREDICTED BY IDOCK:   -0.56 KCAL/MOL
REMARK 927      BINDING AFFINITY PREDICTED BY RF-SCORE:    0.00 PKD
ROOT
HETATM    1  C   UNL     1      -6.000  14.283  70.671  1.00  0.00    -0.196 C  
HETATM    2  C   UNL     1      -6.624  14.598  69.318  1.00  0.00    -0.128 C  
ENDROOT
BRANCH   2   3
HETATM    3  C   UNL     1      -7.484  15.852  69.402  1.00  0.00    -0.213 C  
BRANCH   3   4
HETATM    4  O   UNL     1      -8.857  15.508  69.199  1.00  0.00    -0.217 OA 
BRANCH   4   5
HETATM    5  C   UNL     1      -9.422  15.891  68.007  1.00  0.00    -0.206 A  
HETATM    6  C   UNL     1      -9.433  17.221  67.553  1.00  0.00    -0.245 A  
HETATM    7  C   UNL     1     -10.051  17.589  66.353  1.00  0.00    -0.345 A  
HETATM    8  C   UNL     1     -10.553  16.590  65.526  1.00  0.00    -0.310 A  
HETATM    9  N   UNL     1      -9.961  18.908  65.897  1.00  0.00    -0.506 NA 
HETATM   10  H1  UNL     1     -10.411  19.176  65.022  1.00  0.00     0.000 HD 
HETATM   11  C   UNL     1     -10.549  15.262  65.946  1.00  0.00    -0.345 A  
HETATM   12  H2  UNL     1      -8.975  19.164  65.844  1.00  0.00     0.000 HD 
HETATM   13  C   UNL     1     -10.007  14.906  67.192  1.00  0.00    -0.231 A  
BRANCH  13  14
HETATM   14  C   UNL     1     -10.197  13.481  67.579  1.00  0.00    -0.234 C  
HETATM   15  O   UNL     1      -9.440  12.886  68.333  1.00  0.00    -0.215 OA 
BRANCH  14  16
HETATM   16  O   UNL     1     -11.129  12.913  66.778  1.00  0.00    -0.267 OA 
BRANCH  16  17
HETATM   17  C   UNL     1     -10.920  11.523  66.488  1.00  0.00    -0.293 C  
BRANCH  17  18
HETATM   18  C   UNL     1      -9.856  11.477  65.376  1.00  0.00    -0.235 C  
BRANCH  18  19
HETATM   19  N   UNL     1     -10.246  11.955  64.034  1.00  0.00    -0.331 NA 
BRANCH  19  20
HETATM   20  C   UNL     1     -11.714  11.882  63.916  1.00  0.00    -0.415 C  
HETATM   21  C   UNL     1     -12.377  13.184  63.488  1.00  0.00    -0.478 C  
ENDBRANCH  19  20
BRANCH  19  22
HETATM   22  C   UNL     1      -9.515  11.291  62.949  1.00  0.00    -0.361 C  
HETATM   23  C   UNL     1      -8.933   9.917  63.266  1.00  0.00    -0.276 C  
ENDBRANCH  19  22
ENDBRANCH  18  19
ENDBRANCH  17  18
ENDBRANCH  16  17
ENDBRANCH  14  16
ENDBRANCH  13  14
ENDBRANCH   4   5
ENDBRANCH   3   4
ENDBRANCH   2   3
TORSDOF 10
ENDMDL
MODEL      195
REMARK 921   NORMALIZED FREE ENERGY PREDICTED BY IDOCK:   -3.48 KCAL/MOL
REMARK 922        TOTAL FREE ENERGY PREDICTED BY IDOCK:   -6.57 KCAL/MOL
REMARK 923 INTER-LIGAND FREE ENERGY PREDICTED BY IDOCK:   -5.64 KCAL/MOL
REMARK 924 INTRA-LIGAND FREE ENERGY PREDICTED BY IDOCK:   -0.94 KCAL/MOL
REMARK 927      BINDING AFFINITY PREDICTED BY RF-SCORE:    0.00 PKD
ROOT
HETATM    1  C   UNL     1      -9.843   4.479  67.442  1.00  0.00    -0.204 C  
HETATM    2  C   UNL     1     -10.663   5.733  67.173  1.00  0.00    -0.358 C  
ENDROOT
BRANCH   2   3
HETATM    3  C   UNL     1      -9.827   6.985  67.413  1.00  0.00    -0.154 C  
BRANCH   3   4
HETATM    4  O   UNL     1     -10.628   7.982  68.051  1.00  0.00    -0.200 OA 
BRANCH   4   5
HETATM    5  C   UNL     1     -10.550   8.056  69.421  1.00  0.00    -0.205 A  
HETATM    6  C   UNL     1     -11.270   7.209  70.280  1.00  0.00    -0.309 A  
HETATM    7  C   UNL     1     -11.202   7.333  71.672  1.00  0.00    -0.245 A  
HETATM    8  C   UNL     1     -10.294   8.232  72.219  1.00  0.00    -0.386 A  
HETATM    9  N   UNL     1     -11.868   6.412  72.488  1.00  0.00    -0.496 NA 
HETATM   10  H1  UNL     1     -11.818   6.502  73.503  1.00  0.00     0.000 HD 
HETATM   11  C   UNL     1      -9.559   9.079  71.393  1.00  0.00    -0.356 A  
HETATM   12  H2  UNL     1     -11.562   5.474  72.232  1.00  0.00     0.000 HD 
HETATM   13  C   UNL     1      -9.696   9.014  69.997  1.00  0.00    -0.203 A  
BRANCH  13  14
HETATM   14  C   UNL     1      -8.966  10.068  69.241  1.00  0.00    -0.178 C  
HETATM   15  O   UNL     1      -7.746  10.156  69.222  1.00  0.00    -0.100 OA 
BRANCH  14  16
HETATM   16  O   UNL     1      -9.836  11.024  68.839  1.00  0.00    -0.193 OA 
BRANCH  16  17
HETATM   17  C   UNL     1      -9.237  12.263  68.427  1.00  0.00    -0.145 C  
BRANCH  17  18
HETATM   18  C   UNL     1      -9.638  12.459  66.955  1.00  0.00    -0.219 C  
BRANCH  18  19
HETATM   19  N   UNL     1     -10.966  11.968  66.535  1.00  0.00    -0.281 NA 
BRANCH  19  20
HETATM   20  C   UNL     1     -10.842  11.363  65.196  1.00  0.00    -0.238 C  
HETATM   21  C   UNL     1      -9.899  10.169  65.130  1.00  0.00    -0.394 C  
ENDBRANCH  19  20
BRANCH  19  22
HETATM   22  C   UNL     1     -12.020  12.983  66.647  1.00  0.00    -0.387 C  
HETATM   23  C   UNL     1     -11.722  14.342  66.019  1.00  0.00    -0.384 C  
ENDBRANCH  19  22
ENDBRANCH  18  19
ENDBRANCH  17  18
ENDBRANCH  16  17
ENDBRANCH  14  16
ENDBRANCH  13  14
ENDBRANCH   4   5
ENDBRANCH   3   4
ENDBRANCH   2   3
TORSDOF 10
ENDMDL
MODEL      196
REMARK 921   NORMALIZED FREE ENERGY PREDICTED BY IDOCK:   -3.48 KCAL/MOL
REMARK 922        TOTAL FREE ENERGY PREDICTED BY IDOCK:   -6.57 KCAL/MOL
REMARK 923 INTER-LIGAND FREE ENERGY PREDICTED BY IDOCK:   -5.56 KCAL/MOL
REMARK 924 INTRA-LIGAND FREE ENERGY PREDICTED BY IDOCK:   -1.01 KCAL/MOL
REMARK 927      BINDING AFFINITY PREDICTED BY RF-SCORE:    0.00 PKD
ROOT
HETATM    1  C   UNL     1     -13.267  10.003  71.763  1.00  0.00    -0.540 C  
HETATM    2  C   UNL     1     -13.992   8.666  71.832  1.00  0.00    -0.501 C  
ENDROOT
BRANCH   2   3
HETATM    3  C   UNL     1     -13.043   7.521  71.504  1.00  0.00    -0.356 C  
BRANCH   3   4
HETATM    4  O   UNL     1     -11.797   7.722  72.175  1.00  0.00    -0.296 OA 
BRANCH   4   5
HETATM    5  C   UNL     1     -10.957   6.638  72.260  1.00  0.00    -0.246 A  
HETATM    6  C   UNL     1     -11.352   5.398  72.788  1.00  0.00    -0.358 A  
HETATM    7  C   UNL     1     -10.464   4.323  72.899  1.00  0.00    -0.176 A  
HETATM    8  C   UNL     1      -9.192   4.446  72.349  1.00  0.00    -0.150 A  
HETATM    9  N   UNL     1     -10.923   3.080  73.348  1.00  0.00    -0.205 NA 
HETATM   10  H1  UNL     1     -10.276   2.296  73.429  1.00  0.00     0.000 HD 
HETATM   11  C   UNL     1      -8.775   5.661  71.811  1.00  0.00    -0.136 A  
HETATM   12  H2  UNL     1     -11.705   2.793  72.760  1.00  0.00     0.000 HD 
HETATM   13  C   UNL     1      -9.640   6.767  71.782  1.00  0.00    -0.157 A  
BRANCH  13  14
HETATM   14  C   UNL     1      -9.024   8.039  71.316  1.00  0.00    -0.139 C  
HETATM   15  O   UNL     1      -8.495   8.844  72.071  1.00  0.00    -0.367 OA 
BRANCH  14  16
HETATM   16  O   UNL     1      -9.381   8.273  70.031  1.00  0.00    -0.160 OA 
BRANCH  16  17
HETATM   17  C   UNL     1      -9.778   9.622  69.742  1.00  0.00    -0.224 C  
BRANCH  17  18
HETATM   18  C   UNL     1     -11.025   9.514  68.848  1.00  0.00    -0.086 C  
BRANCH  18  19
HETATM   19  N   UNL     1     -11.184  10.512  67.770  1.00  0.00    -0.343 NA 
BRANCH  19  20
HETATM   20  C   UNL     1      -9.924  10.586  67.009  1.00  0.00    -0.201 C  
HETATM   21  C   UNL     1      -9.955   9.867  65.667  1.00  0.00    -0.353 C  
ENDBRANCH  19  20
BRANCH  19  22
HETATM   22  C   UNL     1     -11.682  11.807  68.248  1.00  0.00    -0.310 C  
HETATM   23  C   UNL     1     -10.830  13.027  67.911  1.00  0.00    -0.260 C  
ENDBRANCH  19  22
ENDBRANCH  18  19
ENDBRANCH  17  18
ENDBRANCH  16  17
ENDBRANCH  14  16
ENDBRANCH  13  14
ENDBRANCH   4   5
ENDBRANCH   3   4
ENDBRANCH   2   3
TORSDOF 10
ENDMDL
MODEL      197
REMARK 921   NORMALIZED FREE ENERGY PREDICTED BY IDOCK:   -3.47 KCAL/MOL
REMARK 922        TOTAL FREE ENERGY PREDICTED BY IDOCK:   -6.55 KCAL/MOL
REMARK 923 INTER-LIGAND FREE ENERGY PREDICTED BY IDOCK:   -5.93 KCAL/MOL
REMARK 924 INTRA-LIGAND FREE ENERGY PREDICTED BY IDOCK:   -0.62 KCAL/MOL
REMARK 927      BINDING AFFINITY PREDICTED BY RF-SCORE:    0.00 PKD
ROOT
HETATM    1  C   UNL     1      -9.631  20.443  66.994  1.00  0.00    -0.571 C  
HETATM    2  C   UNL     1     -10.838  19.565  66.692  1.00  0.00    -0.476 C  
ENDROOT
BRANCH   2   3
HETATM    3  C   UNL     1     -10.402  18.138  66.386  1.00  0.00    -0.394 C  
BRANCH   3   4
HETATM    4  O   UNL     1     -10.547  17.329  67.556  1.00  0.00    -0.354 OA 
BRANCH   4   5
HETATM    5  C   UNL     1      -9.415  16.709  68.025  1.00  0.00    -0.224 A  
HETATM    6  C   UNL     1      -8.324  17.407  68.569  1.00  0.00    -0.271 A  
HETATM    7  C   UNL     1      -7.166  16.752  69.002  1.00  0.00    -0.225 A  
HETATM    8  C   UNL     1      -7.150  15.361  69.016  1.00  0.00    -0.144 A  
HETATM    9  N   UNL     1      -6.142  17.478  69.619  1.00  0.00    -0.253 NA 
HETATM   10  H1  UNL     1      -5.298  17.000  69.935  1.00  0.00     0.000 HD 
HETATM   11  C   UNL     1      -8.220  14.642  68.490  1.00  0.00    -0.152 A  
HETATM   12  H2  UNL     1      -6.538  17.989  70.407  1.00  0.00     0.000 HD 
HETATM   13  C   UNL     1      -9.345  15.305  67.973  1.00  0.00    -0.197 A  
BRANCH  13  14
HETATM   14  C   UNL     1     -10.349  14.425  67.313  1.00  0.00    -0.260 C  
HETATM   15  O   UNL     1     -11.344  14.854  66.745  1.00  0.00    -0.344 OA 
BRANCH  14  16
HETATM   16  O   UNL     1     -10.134  13.139  67.675  1.00  0.00    -0.215 OA 
BRANCH  16  17
HETATM   17  C   UNL     1     -11.314  12.330  67.790  1.00  0.00    -0.301 C  
BRANCH  17  18
HETATM   18  C   UNL     1     -11.070  11.095  66.905  1.00  0.00    -0.247 C  
BRANCH  18  19
HETATM   19  N   UNL     1     -10.121  11.234  65.781  1.00  0.00    -0.237 NA 
BRANCH  19  20
HETATM   20  C   UNL     1     -10.887  11.272  64.521  1.00  0.00    -0.284 C  
HETATM   21  C   UNL     1     -10.975  12.649  63.879  1.00  0.00    -0.468 C  
ENDBRANCH  19  20
BRANCH  19  22
HETATM   22  C   UNL     1      -9.043  10.239  65.807  1.00  0.00    -0.170 C  
HETATM   23  C   UNL     1      -8.970   9.352  67.047  1.00  0.00    -0.146 C  
ENDBRANCH  19  22
ENDBRANCH  18  19
ENDBRANCH  17  18
ENDBRANCH  16  17
ENDBRANCH  14  16
ENDBRANCH  13  14
ENDBRANCH   4   5
ENDBRANCH   3   4
ENDBRANCH   2   3
TORSDOF 10
ENDMDL
MODEL      198
REMARK 921   NORMALIZED FREE ENERGY PREDICTED BY IDOCK:   -3.46 KCAL/MOL
REMARK 922        TOTAL FREE ENERGY PREDICTED BY IDOCK:   -6.54 KCAL/MOL
REMARK 923 INTER-LIGAND FREE ENERGY PREDICTED BY IDOCK:   -5.61 KCAL/MOL
REMARK 924 INTRA-LIGAND FREE ENERGY PREDICTED BY IDOCK:   -0.93 KCAL/MOL
REMARK 927      BINDING AFFINITY PREDICTED BY RF-SCORE:    0.00 PKD
ROOT
HETATM    1  C   UNL     1     -11.345  12.903  66.963  1.00  0.00    -0.355 C  
HETATM    2  C   UNL     1     -10.088  12.047  66.888  1.00  0.00    -0.224 C  
ENDROOT
BRANCH   2   3
HETATM    3  C   UNL     1     -10.350  10.655  67.450  1.00  0.00    -0.219 C  
BRANCH   3   4
HETATM    4  O   UNL     1      -9.221   9.815  67.197  1.00  0.00    -0.136 OA 
BRANCH   4   5
HETATM    5  C   UNL     1      -9.383   8.472  67.438  1.00  0.00    -0.148 A  
HETATM    6  C   UNL     1     -10.252   7.657  66.694  1.00  0.00    -0.272 A  
HETATM    7  C   UNL     1     -10.427   6.300  66.987  1.00  0.00    -0.278 A  
HETATM    8  C   UNL     1      -9.618   5.715  67.956  1.00  0.00    -0.137 A  
HETATM    9  N   UNL     1     -11.235   5.507  66.166  1.00  0.00    -0.761 NA 
HETATM   10  H1  UNL     1     -11.362   4.517  66.379  1.00  0.00     0.000 HD 
HETATM   11  C   UNL     1      -8.741   6.497  68.703  1.00  0.00    -0.123 A  
HETATM   12  H2  UNL     1     -10.900   5.589  65.207  1.00  0.00     0.000 HD 
HETATM   13  C   UNL     1      -8.632   7.877  68.468  1.00  0.00    -0.128 A  
BRANCH  13  14
HETATM   14  C   UNL     1      -7.770   8.616  69.430  1.00  0.00    -0.091 C  
HETATM   15  O   UNL     1      -6.620   8.949  69.179  1.00  0.00    -0.046 OA 
BRANCH  14  16
HETATM   16  O   UNL     1      -8.342   8.603  70.656  1.00  0.00    -0.118 OA 
BRANCH  16  17
HETATM   17  C   UNL     1      -9.548   9.372  70.777  1.00  0.00    -0.255 C  
BRANCH  17  18
HETATM   18  C   UNL     1     -10.337   8.743  71.939  1.00  0.00    -0.344 C  
BRANCH  18  19
HETATM   19  N   UNL     1     -11.796   8.974  71.982  1.00  0.00    -0.366 NA 
BRANCH  19  20
HETATM   20  C   UNL     1     -12.483   7.688  71.768  1.00  0.00    -0.329 C  
HETATM   21  C   UNL     1     -11.897   6.841  70.646  1.00  0.00    -0.442 C  
ENDBRANCH  19  20
BRANCH  19  22
HETATM   22  C   UNL     1     -12.236  10.055  71.092  1.00  0.00    -0.380 C  
HETATM   23  C   UNL     1     -13.196  11.078  71.691  1.00  0.00    -0.461 C  
ENDBRANCH  19  22
ENDBRANCH  18  19
ENDBRANCH  17  18
ENDBRANCH  16  17
ENDBRANCH  14  16
ENDBRANCH  13  14
ENDBRANCH   4   5
ENDBRANCH   3   4
ENDBRANCH   2   3
TORSDOF 10
ENDMDL
MODEL      199
REMARK 921   NORMALIZED FREE ENERGY PREDICTED BY IDOCK:   -3.46 KCAL/MOL
REMARK 922        TOTAL FREE ENERGY PREDICTED BY IDOCK:   -6.54 KCAL/MOL
REMARK 923 INTER-LIGAND FREE ENERGY PREDICTED BY IDOCK:   -5.93 KCAL/MOL
REMARK 924 INTRA-LIGAND FREE ENERGY PREDICTED BY IDOCK:   -0.61 KCAL/MOL
REMARK 927      BINDING AFFINITY PREDICTED BY RF-SCORE:    0.00 PKD
ROOT
HETATM    1  C   UNL     1     -13.268   9.937  71.737  1.00  0.00    -0.535 C  
HETATM    2  C   UNL     1     -11.790   9.745  71.425  1.00  0.00    -0.488 C  
ENDROOT
BRANCH   2   3
HETATM    3  C   UNL     1     -11.346  10.693  70.317  1.00  0.00    -0.319 C  
BRANCH   3   4
HETATM    4  O   UNL     1     -12.446  11.514  69.918  1.00  0.00    -0.200 OA 
BRANCH   4   5
HETATM    5  C   UNL     1     -12.215  12.866  69.847  1.00  0.00    -0.188 A  
HETATM    6  C   UNL     1     -12.508  13.753  70.896  1.00  0.00    -0.451 A  
HETATM    7  C   UNL     1     -12.300  15.132  70.781  1.00  0.00    -0.360 A  
HETATM    8  C   UNL     1     -11.661  15.619  69.646  1.00  0.00    -0.373 A  
HETATM    9  N   UNL     1     -12.524  15.966  71.882  1.00  0.00    -0.452 NA 
HETATM   10  H1  UNL     1     -12.371  16.971  71.798  1.00  0.00     0.000 HD 
HETATM   11  C   UNL     1     -11.350  14.763  68.593  1.00  0.00    -0.305 A  
HETATM   12  H2  UNL     1     -11.972  15.620  72.666  1.00  0.00     0.000 HD 
HETATM   13  C   UNL     1     -11.643  13.391  68.674  1.00  0.00    -0.362 A  
BRANCH  13  14
HETATM   14  C   UNL     1     -11.393  12.618  67.427  1.00  0.00    -0.313 C  
HETATM   15  O   UNL     1     -12.158  11.763  67.004  1.00  0.00    -0.575 OA 
BRANCH  14  16
HETATM   16  O   UNL     1     -10.115  12.808  67.023  1.00  0.00    -0.234 OA 
BRANCH  16  17
HETATM   17  C   UNL     1      -9.109  12.297  67.911  1.00  0.00    -0.190 C  
BRANCH  17  18
HETATM   18  C   UNL     1      -8.866  10.840  67.481  1.00  0.00    -0.128 C  
BRANCH  18  19
HETATM   19  N   UNL     1      -7.819  10.589  66.468  1.00  0.00    -0.127 NA 
BRANCH  19  20
HETATM   20  C   UNL     1      -6.859  11.707  66.498  1.00  0.00     0.043 C  
HETATM   21  C   UNL     1      -5.480  11.338  67.027  1.00  0.00    -0.085 C  
ENDBRANCH  19  20
BRANCH  19  22
HETATM   22  C   UNL     1      -8.362  10.290  65.138  1.00  0.00    -0.161 C  
HETATM   23  C   UNL     1      -7.406   9.629  64.149  1.00  0.00    -0.122 C  
ENDBRANCH  19  22
ENDBRANCH  18  19
ENDBRANCH  17  18
ENDBRANCH  16  17
ENDBRANCH  14  16
ENDBRANCH  13  14
ENDBRANCH   4   5
ENDBRANCH   3   4
ENDBRANCH   2   3
TORSDOF 10
ENDMDL
MODEL      200
REMARK 921   NORMALIZED FREE ENERGY PREDICTED BY IDOCK:   -3.43 KCAL/MOL
REMARK 922        TOTAL FREE ENERGY PREDICTED BY IDOCK:   -6.50 KCAL/MOL
REMARK 923 INTER-LIGAND FREE ENERGY PREDICTED BY IDOCK:   -5.35 KCAL/MOL
REMARK 924 INTRA-LIGAND FREE ENERGY PREDICTED BY IDOCK:   -1.14 KCAL/MOL
REMARK 927      BINDING AFFINITY PREDICTED BY RF-SCORE:    0.00 PKD
ROOT
HETATM    1  C   UNL     1     -12.949  10.959  71.304  1.00  0.00    -0.492 C  
HETATM    2  C   UNL     1     -12.016  10.815  70.110  1.00  0.00    -0.432 C  
ENDROOT
BRANCH   2   3
HETATM    3  C   UNL     1     -11.257   9.495  70.176  1.00  0.00    -0.234 C  
BRANCH   3   4
HETATM    4  O   UNL     1     -10.558   9.280  68.947  1.00  0.00    -0.218 OA 
BRANCH   4   5
HETATM    5  C   UNL     1      -9.383   9.969  68.775  1.00  0.00    -0.162 A  
HETATM    6  C   UNL     1      -8.454  10.178  69.808  1.00  0.00    -0.147 A  
HETATM    7  C   UNL     1      -7.283  10.918  69.614  1.00  0.00    -0.095 A  
HETATM    8  C   UNL     1      -6.967  11.346  68.329  1.00  0.00    -0.072 A  
HETATM    9  N   UNL     1      -6.346  11.026  70.647  1.00  0.00    -0.445 NA 
HETATM   10  H1  UNL     1      -5.491  11.565  70.505  1.00  0.00     0.000 HD 
HETATM   11  C   UNL     1      -7.865  11.146  67.283  1.00  0.00    -0.137 A  
HETATM   12  H2  UNL     1      -6.087  10.086  70.947  1.00  0.00     0.000 HD 
HETATM   13  C   UNL     1      -9.082  10.480  67.499  1.00  0.00    -0.144 A  
BRANCH  13  14
HETATM   14  C   UNL     1     -10.008  10.463  66.334  1.00  0.00    -0.221 C  
HETATM   15  O   UNL     1     -10.168   9.482  65.620  1.00  0.00    -0.228 OA 
BRANCH  14  16
HETATM   16  O   UNL     1     -10.401  11.726  66.047  1.00  0.00    -0.224 OA 
BRANCH  16  17
HETATM   17  C   UNL     1     -11.793  12.000  66.270  1.00  0.00    -0.148 C  
BRANCH  17  18
HETATM   18  C   UNL     1     -11.880  13.496  66.617  1.00  0.00    -0.407 C  
BRANCH  18  19
HETATM   19  N   UNL     1     -10.732  14.352  66.252  1.00  0.00    -0.301 NA 
BRANCH  19  20
HETATM   20  C   UNL     1     -10.263  15.051  67.462  1.00  0.00    -0.234 C  
HETATM   21  C   UNL     1     -10.536  14.309  68.763  1.00  0.00    -0.255 C  
ENDBRANCH  19  20
BRANCH  19  22
HETATM   22  C   UNL     1     -11.008  15.233  65.110  1.00  0.00    -0.416 C  
HETATM   23  C   UNL     1     -12.290  14.952  64.332  1.00  0.00    -0.342 C  
ENDBRANCH  19  22
ENDBRANCH  18  19
ENDBRANCH  17  18
ENDBRANCH  16  17
ENDBRANCH  14  16
ENDBRANCH  13  14
ENDBRANCH   4   5
ENDBRANCH   3   4
ENDBRANCH   2   3
TORSDOF 10
ENDMDL
MODEL      201
REMARK 921   NORMALIZED FREE ENERGY PREDICTED BY IDOCK:   -3.41 KCAL/MOL
REMARK 922        TOTAL FREE ENERGY PREDICTED BY IDOCK:   -6.47 KCAL/MOL
REMARK 923 INTER-LIGAND FREE ENERGY PREDICTED BY IDOCK:   -5.84 KCAL/MOL
REMARK 924 INTRA-LIGAND FREE ENERGY PREDICTED BY IDOCK:   -0.63 KCAL/MOL
REMARK 927      BINDING AFFINITY PREDICTED BY RF-SCORE:    0.00 PKD
ROOT
HETATM    1  C   UNL     1     -12.761  13.908  65.033  1.00  0.00    -0.372 C  
HETATM    2  C   UNL     1     -12.188  14.013  66.439  1.00  0.00    -0.492 C  
ENDROOT
BRANCH   2   3
HETATM    3  C   UNL     1     -11.652  12.665  66.903  1.00  0.00    -0.373 C  
BRANCH   3   4
HETATM    4  O   UNL     1     -10.231  12.634  66.750  1.00  0.00    -0.232 OA 
BRANCH   4   5
HETATM    5  C   UNL     1      -9.719  11.676  65.908  1.00  0.00    -0.235 A  
HETATM    6  C   UNL     1     -10.127  11.529  64.572  1.00  0.00    -0.324 A  
HETATM    7  C   UNL     1      -9.619  10.519  63.749  1.00  0.00    -0.311 A  
HETATM    8  C   UNL     1      -8.583   9.724  64.228  1.00  0.00    -0.202 A  
HETATM    9  N   UNL     1      -9.987  10.465  62.401  1.00  0.00    -0.749 NA 
HETATM   10  H1  UNL     1      -9.616   9.729  61.800  1.00  0.00     0.000 HD 
HETATM   11  C   UNL     1      -8.152   9.852  65.546  1.00  0.00    -0.127 A  
HETATM   12  H2  UNL     1      -9.778  11.366  61.973  1.00  0.00     0.000 HD 
HETATM   13  C   UNL     1      -8.728  10.808  66.399  1.00  0.00    -0.163 A  
BRANCH  13  14
HETATM   14  C   UNL     1      -8.278  10.742  67.817  1.00  0.00    -0.112 C  
HETATM   15  O   UNL     1      -7.469  11.522  68.300  1.00  0.00    -0.090 OA 
BRANCH  14  16
HETATM   16  O   UNL     1      -8.674   9.570  68.365  1.00  0.00    -0.123 OA 
BRANCH  16  17
HETATM   17  C   UNL     1     -10.088   9.320  68.321  1.00  0.00    -0.185 C  
BRANCH  17  18
HETATM   18  C   UNL     1     -10.505   8.987  69.764  1.00  0.00    -0.218 C  
BRANCH  18  19
HETATM   19  N   UNL     1     -11.122   7.668  70.012  1.00  0.00    -0.231 NA 
BRANCH  19  20
HETATM   20  C   UNL     1     -10.976   7.342  71.442  1.00  0.00    -0.235 C  
HETATM   21  C   UNL     1     -11.517   8.407  72.388  1.00  0.00    -0.451 C  
ENDBRANCH  19  20
BRANCH  19  22
HETATM   22  C   UNL     1     -10.641   6.624  69.099  1.00  0.00    -0.244 C  
HETATM   23  C   UNL     1     -10.402   5.246  69.711  1.00  0.00    -0.369 C  
ENDBRANCH  19  22
ENDBRANCH  18  19
ENDBRANCH  17  18
ENDBRANCH  16  17
ENDBRANCH  14  16
ENDBRANCH  13  14
ENDBRANCH   4   5
ENDBRANCH   3   4
ENDBRANCH   2   3
TORSDOF 10
ENDMDL
MODEL      202
REMARK 921   NORMALIZED FREE ENERGY PREDICTED BY IDOCK:   -3.40 KCAL/MOL
REMARK 922        TOTAL FREE ENERGY PREDICTED BY IDOCK:   -6.44 KCAL/MOL
REMARK 923 INTER-LIGAND FREE ENERGY PREDICTED BY IDOCK:   -5.62 KCAL/MOL
REMARK 924 INTRA-LIGAND FREE ENERGY PREDICTED BY IDOCK:   -0.82 KCAL/MOL
REMARK 927      BINDING AFFINITY PREDICTED BY RF-SCORE:    0.00 PKD
ROOT
HETATM    1  C   UNL     1     -10.285  10.765  64.575  1.00  0.00    -0.428 C  
HETATM    2  C   UNL     1      -9.266  11.085  65.659  1.00  0.00    -0.231 C  
ENDROOT
BRANCH   2   3
HETATM    3  C   UNL     1      -9.536  12.457  66.264  1.00  0.00    -0.241 C  
BRANCH   3   4
HETATM    4  O   UNL     1      -9.364  12.400  67.682  1.00  0.00    -0.177 OA 
BRANCH   4   5
HETATM    5  C   UNL     1     -10.312  13.035  68.447  1.00  0.00    -0.252 A  
HETATM    6  C   UNL     1     -10.418  14.432  68.537  1.00  0.00    -0.254 A  
HETATM    7  C   UNL     1     -11.368  15.053  69.356  1.00  0.00    -0.297 A  
HETATM    8  C   UNL     1     -12.319  14.262  69.994  1.00  0.00    -0.403 A  
HETATM    9  N   UNL     1     -11.496  16.445  69.347  1.00  0.00    -0.273 NA 
HETATM   10  H1  UNL     1     -12.189  16.897  69.944  1.00  0.00     0.000 HD 
HETATM   11  C   UNL     1     -12.244  12.874  69.916  1.00  0.00    -0.258 A  
HETATM   12  H2  UNL     1     -11.650  16.749  68.386  1.00  0.00     0.000 HD 
HETATM   13  C   UNL     1     -11.234  12.251  69.165  1.00  0.00    -0.300 A  
BRANCH  13  14
HETATM   14  C   UNL     1     -11.182  10.768  69.284  1.00  0.00    -0.272 C  
HETATM   15  O   UNL     1     -11.375  10.014  68.340  1.00  0.00    -0.183 OA 
BRANCH  14  16
HETATM   16  O   UNL     1     -11.169  10.417  70.591  1.00  0.00    -0.319 OA 
BRANCH  16  17
HETATM   17  C   UNL     1     -11.722   9.124  70.882  1.00  0.00    -0.284 C  
BRANCH  17  18
HETATM   18  C   UNL     1     -10.710   8.431  71.812  1.00  0.00    -0.285 C  
BRANCH  18  19
HETATM   19  N   UNL     1      -9.988   7.255  71.283  1.00  0.00    -0.188 NA 
BRANCH  19  20
HETATM   20  C   UNL     1     -10.932   6.127  71.188  1.00  0.00    -0.284 C  
HETATM   21  C   UNL     1     -11.484   5.653  72.526  1.00  0.00    -0.335 C  
ENDBRANCH  19  20
BRANCH  19  22
HETATM   22  C   UNL     1      -8.755   6.955  72.019  1.00  0.00    -0.125 C  
HETATM   23  C   UNL     1      -8.361   7.944  73.113  1.00  0.00    -0.233 C  
ENDBRANCH  19  22
ENDBRANCH  18  19
ENDBRANCH  17  18
ENDBRANCH  16  17
ENDBRANCH  14  16
ENDBRANCH  13  14
ENDBRANCH   4   5
ENDBRANCH   3   4
ENDBRANCH   2   3
TORSDOF 10
ENDMDL
MODEL      203
REMARK 921   NORMALIZED FREE ENERGY PREDICTED BY IDOCK:   -3.40 KCAL/MOL
REMARK 922        TOTAL FREE ENERGY PREDICTED BY IDOCK:   -6.44 KCAL/MOL
REMARK 923 INTER-LIGAND FREE ENERGY PREDICTED BY IDOCK:   -5.74 KCAL/MOL
REMARK 924 INTRA-LIGAND FREE ENERGY PREDICTED BY IDOCK:   -0.70 KCAL/MOL
REMARK 927      BINDING AFFINITY PREDICTED BY RF-SCORE:    0.00 PKD
ROOT
HETATM    1  C   UNL     1      -8.618  16.368  67.745  1.00  0.00    -0.172 C  
HETATM    2  C   UNL     1      -9.590  16.644  68.884  1.00  0.00    -0.252 C  
ENDROOT
BRANCH   2   3
HETATM    3  C   UNL     1     -10.865  15.828  68.713  1.00  0.00    -0.274 C  
BRANCH   3   4
HETATM    4  O   UNL     1     -10.534  14.495  68.319  1.00  0.00    -0.233 OA 
BRANCH   4   5
HETATM    5  C   UNL     1     -11.155  14.009  67.194  1.00  0.00    -0.303 A  
HETATM    6  C   UNL     1     -11.416  14.795  66.059  1.00  0.00    -0.316 A  
HETATM    7  C   UNL     1     -12.087  14.285  64.942  1.00  0.00    -0.435 A  
HETATM    8  C   UNL     1     -12.384  12.927  64.904  1.00  0.00    -0.532 A  
HETATM    9  N   UNL     1     -12.246  15.078  63.801  1.00  0.00    -1.008 NA 
HETATM   10  H1  UNL     1     -12.735  14.705  62.987  1.00  0.00     0.000 HD 
HETATM   11  C   UNL     1     -12.130  12.121  66.011  1.00  0.00    -0.101 A  
HETATM   12  H2  UNL     1     -11.327  15.404  63.504  1.00  0.00     0.000 HD 
HETATM   13  C   UNL     1     -11.538  12.656  67.167  1.00  0.00    -0.434 A  
BRANCH  13  14
HETATM   14  C   UNL     1     -11.455  11.723  68.324  1.00  0.00    -0.307 C  
HETATM   15  O   UNL     1     -11.909  11.985  69.429  1.00  0.00    -0.306 OA 
BRANCH  14  16
HETATM   16  O   UNL     1     -10.593  10.720  68.038  1.00  0.00    -0.181 OA 
BRANCH  16  17
HETATM   17  C   UNL     1      -9.249  10.917  68.501  1.00  0.00    -0.181 C  
BRANCH  17  18
HETATM   18  C   UNL     1      -9.099  10.038  69.755  1.00  0.00    -0.193 C  
BRANCH  18  19
HETATM   19  N   UNL     1      -7.738   9.598  70.125  1.00  0.00    -0.154 NA 
BRANCH  19  20
HETATM   20  C   UNL     1      -6.762  10.407  69.372  1.00  0.00    -0.069 C  
HETATM   21  C   UNL     1      -6.101  11.513  70.184  1.00  0.00    -0.156 C  
ENDBRANCH  19  20
BRANCH  19  22
HETATM   22  C   UNL     1      -7.546   8.148  70.006  1.00  0.00    -0.077 C  
HETATM   23  C   UNL     1      -6.725   7.669  68.813  1.00  0.00    -0.054 C  
ENDBRANCH  19  22
ENDBRANCH  18  19
ENDBRANCH  17  18
ENDBRANCH  16  17
ENDBRANCH  14  16
ENDBRANCH  13  14
ENDBRANCH   4   5
ENDBRANCH   3   4
ENDBRANCH   2   3
TORSDOF 10
ENDMDL
MODEL      204
REMARK 921   NORMALIZED FREE ENERGY PREDICTED BY IDOCK:   -3.38 KCAL/MOL
REMARK 922        TOTAL FREE ENERGY PREDICTED BY IDOCK:   -6.42 KCAL/MOL
REMARK 923 INTER-LIGAND FREE ENERGY PREDICTED BY IDOCK:   -5.52 KCAL/MOL
REMARK 924 INTRA-LIGAND FREE ENERGY PREDICTED BY IDOCK:   -0.90 KCAL/MOL
REMARK 927      BINDING AFFINITY PREDICTED BY RF-SCORE:    0.00 PKD
ROOT
HETATM    1  C   UNL     1     -11.099   4.561  73.561  1.00  0.00    -0.398 C  
HETATM    2  C   UNL     1     -10.563   5.627  72.616  1.00  0.00    -0.266 C  
ENDROOT
BRANCH   2   3
HETATM    3  C   UNL     1     -11.111   7.000  72.987  1.00  0.00    -0.259 C  
BRANCH   3   4
HETATM    4  O   UNL     1     -12.183   7.344  72.107  1.00  0.00    -0.285 OA 
BRANCH   4   5
HETATM    5  C   UNL     1     -12.190   8.626  71.612  1.00  0.00    -0.333 A  
HETATM    6  C   UNL     1     -12.928   9.671  72.191  1.00  0.00    -0.493 A  
HETATM    7  C   UNL     1     -12.949  10.957  71.643  1.00  0.00    -0.464 A  
HETATM    8  C   UNL     1     -12.110  11.240  70.570  1.00  0.00    -0.481 A  
HETATM    9  N   UNL     1     -13.627  11.988  72.302  1.00  0.00    -0.504 NA 
HETATM   10  H1  UNL     1     -13.641  12.926  71.902  1.00  0.00     0.000 HD 
HETATM   11  C   UNL     1     -11.360  10.226  69.979  1.00  0.00    -0.370 A  
HETATM   12  H2  UNL     1     -13.270  12.049  73.256  1.00  0.00     0.000 HD 
HETATM   13  C   UNL     1     -11.410   8.914  70.477  1.00  0.00    -0.268 A  
BRANCH  13  14
HETATM   14  C   UNL     1     -10.676   7.903  69.668  1.00  0.00    -0.218 C  
HETATM   15  O   UNL     1     -11.188   6.867  69.266  1.00  0.00    -0.211 OA 
BRANCH  14  16
HETATM   16  O   UNL     1      -9.350   8.174  69.695  1.00  0.00    -0.158 OA 
BRANCH  16  17
HETATM   17  C   UNL     1      -8.552   7.418  68.772  1.00  0.00    -0.129 C  
BRANCH  17  18
HETATM   18  C   UNL     1      -8.127   8.405  67.671  1.00  0.00    -0.118 C  
BRANCH  18  19
HETATM   19  N   UNL     1      -8.271   9.848  67.952  1.00  0.00    -0.113 NA 
BRANCH  19  20
HETATM   20  C   UNL     1      -8.774  10.516  66.737  1.00  0.00    -0.132 C  
HETATM   21  C   UNL     1      -9.752  11.653  67.003  1.00  0.00    -0.201 C  
ENDBRANCH  19  20
BRANCH  19  22
HETATM   22  C   UNL     1      -7.058  10.451  68.518  1.00  0.00    -0.074 C  
HETATM   23  C   UNL     1      -5.767  10.240  67.732  1.00  0.00    -0.044 C  
ENDBRANCH  19  22
ENDBRANCH  18  19
ENDBRANCH  17  18
ENDBRANCH  16  17
ENDBRANCH  14  16
ENDBRANCH  13  14
ENDBRANCH   4   5
ENDBRANCH   3   4
ENDBRANCH   2   3
TORSDOF 10
ENDMDL
MODEL      205
REMARK 921   NORMALIZED FREE ENERGY PREDICTED BY IDOCK:   -3.38 KCAL/MOL
REMARK 922        TOTAL FREE ENERGY PREDICTED BY IDOCK:   -6.41 KCAL/MOL
REMARK 923 INTER-LIGAND FREE ENERGY PREDICTED BY IDOCK:   -5.92 KCAL/MOL
REMARK 924 INTRA-LIGAND FREE ENERGY PREDICTED BY IDOCK:   -0.49 KCAL/MOL
REMARK 927      BINDING AFFINITY PREDICTED BY RF-SCORE:    0.00 PKD
ROOT
HETATM    1  C   UNL     1      -8.304   6.810  70.774  1.00  0.00    -0.128 C  
HETATM    2  C   UNL     1      -8.002   8.142  71.446  1.00  0.00    -0.119 C  
ENDROOT
BRANCH   2   3
HETATM    3  C   UNL     1      -8.555   9.299  70.623  1.00  0.00    -0.225 C  
BRANCH   3   4
HETATM    4  O   UNL     1      -9.763   8.893  69.975  1.00  0.00    -0.165 OA 
BRANCH   4   5
HETATM    5  C   UNL     1     -10.929   9.460  70.428  1.00  0.00    -0.266 A  
HETATM    6  C   UNL     1     -11.647   8.966  71.530  1.00  0.00    -0.388 A  
HETATM    7  C   UNL     1     -12.854   9.539  71.946  1.00  0.00    -0.420 A  
HETATM    8  C   UNL     1     -13.284  10.711  71.332  1.00  0.00    -0.420 A  
HETATM    9  N   UNL     1     -13.489   9.070  73.100  1.00  0.00    -0.926 NA 
HETATM   10  H1  UNL     1     -14.369   9.489  73.403  1.00  0.00     0.000 HD 
HETATM   11  C   UNL     1     -12.588  11.229  70.242  1.00  0.00    -0.255 A  
HETATM   12  H2  UNL     1     -12.827   9.116  73.874  1.00  0.00     0.000 HD 
HETATM   13  C   UNL     1     -11.425  10.600  69.770  1.00  0.00    -0.375 A  
BRANCH  13  14
HETATM   14  C   UNL     1     -10.863  11.171  68.515  1.00  0.00    -0.203 C  
HETATM   15  O   UNL     1     -10.251  10.505  67.691  1.00  0.00    -0.181 OA 
BRANCH  14  16
HETATM   16  O   UNL     1     -10.895  12.523  68.577  1.00  0.00    -0.227 OA 
BRANCH  16  17
HETATM   17  C   UNL     1      -9.611  13.166  68.571  1.00  0.00    -0.117 C  
BRANCH  17  18
HETATM   18  C   UNL     1      -9.826  14.534  67.900  1.00  0.00    -0.222 C  
BRANCH  18  19
HETATM   19  N   UNL     1      -8.724  15.074  67.077  1.00  0.00    -0.222 NA 
BRANCH  19  20
HETATM   20  C   UNL     1      -7.742  15.717  67.970  1.00  0.00    -0.126 C  
HETATM   21  C   UNL     1      -6.328  15.164  67.852  1.00  0.00    -0.176 C  
ENDBRANCH  19  20
BRANCH  19  22
HETATM   22  C   UNL     1      -9.189  15.923  65.974  1.00  0.00    -0.337 C  
HETATM   23  C   UNL     1     -10.646  15.750  65.554  1.00  0.00    -0.424 C  
ENDBRANCH  19  22
ENDBRANCH  18  19
ENDBRANCH  17  18
ENDBRANCH  16  17
ENDBRANCH  14  16
ENDBRANCH  13  14
ENDBRANCH   4   5
ENDBRANCH   3   4
ENDBRANCH   2   3
TORSDOF 10
ENDMDL
MODEL      206
REMARK 921   NORMALIZED FREE ENERGY PREDICTED BY IDOCK:   -3.38 KCAL/MOL
REMARK 922        TOTAL FREE ENERGY PREDICTED BY IDOCK:   -6.41 KCAL/MOL
REMARK 923 INTER-LIGAND FREE ENERGY PREDICTED BY IDOCK:   -5.00 KCAL/MOL
REMARK 924 INTRA-LIGAND FREE ENERGY PREDICTED BY IDOCK:   -1.40 KCAL/MOL
REMARK 927      BINDING AFFINITY PREDICTED BY RF-SCORE:    0.00 PKD
ROOT
HETATM    1  C   UNL     1     -13.599   8.078  71.651  1.00  0.00    -0.390 C  
HETATM    2  C   UNL     1     -12.953   9.330  72.225  1.00  0.00    -0.488 C  
ENDROOT
BRANCH   2   3
HETATM    3  C   UNL     1     -12.001   9.956  71.213  1.00  0.00    -0.402 C  
BRANCH   3   4
HETATM    4  O   UNL     1     -11.637   8.985  70.230  1.00  0.00    -0.195 OA 
BRANCH   4   5
HETATM    5  C   UNL     1     -10.294   8.820  69.989  1.00  0.00    -0.203 A  
HETATM    6  C   UNL     1      -9.346   9.836  70.194  1.00  0.00    -0.261 A  
HETATM    7  C   UNL     1      -7.990   9.654  69.902  1.00  0.00    -0.167 A  
HETATM    8  C   UNL     1      -7.551   8.390  69.524  1.00  0.00    -0.090 A  
HETATM    9  N   UNL     1      -7.069  10.662  70.205  1.00  0.00    -0.458 NA 
HETATM   10  H1  UNL     1      -6.080  10.529  69.993  1.00  0.00     0.000 HD 
HETATM   11  C   UNL     1      -8.467   7.361  69.320  1.00  0.00    -0.136 A  
HETATM   12  H2  UNL     1      -7.157  10.894  71.194  1.00  0.00     0.000 HD 
HETATM   13  C   UNL     1      -9.840   7.571  69.528  1.00  0.00    -0.169 A  
BRANCH  13  14
HETATM   14  C   UNL     1     -10.720   6.436  69.136  1.00  0.00    -0.284 C  
HETATM   15  O   UNL     1     -11.202   6.317  68.018  1.00  0.00    -0.323 OA 
BRANCH  14  16
HETATM   16  O   UNL     1     -11.103   5.756  70.241  1.00  0.00    -0.311 OA 
BRANCH  16  17
HETATM   17  C   UNL     1     -10.196   4.732  70.675  1.00  0.00    -0.180 C  
BRANCH  17  18
HETATM   18  C   UNL     1     -10.079   4.888  72.202  1.00  0.00    -0.192 C  
BRANCH  18  19
HETATM   19  N   UNL     1      -8.795   5.378  72.745  1.00  0.00    -0.123 NA 
BRANCH  19  20
HETATM   20  C   UNL     1      -8.867   6.844  72.872  1.00  0.00    -0.126 C  
HETATM   21  C   UNL     1     -10.087   7.352  73.630  1.00  0.00    -0.376 C  
ENDBRANCH  19  20
BRANCH  19  22
HETATM   22  C   UNL     1      -7.628   4.889  72.000  1.00  0.00    -0.088 C  
HETATM   23  C   UNL     1      -6.453   4.389  72.835  1.00  0.00    -0.041 C  
ENDBRANCH  19  22
ENDBRANCH  18  19
ENDBRANCH  17  18
ENDBRANCH  16  17
ENDBRANCH  14  16
ENDBRANCH  13  14
ENDBRANCH   4   5
ENDBRANCH   3   4
ENDBRANCH   2   3
TORSDOF 10
ENDMDL
MODEL      207
REMARK 921   NORMALIZED FREE ENERGY PREDICTED BY IDOCK:   -3.36 KCAL/MOL
REMARK 922        TOTAL FREE ENERGY PREDICTED BY IDOCK:   -6.37 KCAL/MOL
REMARK 923 INTER-LIGAND FREE ENERGY PREDICTED BY IDOCK:   -5.81 KCAL/MOL
REMARK 924 INTRA-LIGAND FREE ENERGY PREDICTED BY IDOCK:   -0.57 KCAL/MOL
REMARK 927      BINDING AFFINITY PREDICTED BY RF-SCORE:    0.00 PKD
ROOT
HETATM    1  C   UNL     1     -12.736   9.915  71.930  1.00  0.00    -0.501 C  
HETATM    2  C   UNL     1     -13.897   8.944  71.765  1.00  0.00    -0.465 C  
ENDROOT
BRANCH   2   3
HETATM    3  C   UNL     1     -13.386   7.518  71.595  1.00  0.00    -0.358 C  
BRANCH   3   4
HETATM    4  O   UNL     1     -12.083   7.541  71.009  1.00  0.00    -0.308 OA 
BRANCH   4   5
HETATM    5  C   UNL     1     -11.292   6.437  71.214  1.00  0.00    -0.306 A  
HETATM    6  C   UNL     1     -11.115   5.841  72.474  1.00  0.00    -0.327 A  
HETATM    7  C   UNL     1     -10.272   4.741  72.662  1.00  0.00    -0.189 A  
HETATM    8  C   UNL     1      -9.697   4.141  71.547  1.00  0.00    -0.243 A  
HETATM    9  N   UNL     1     -10.194   4.126  73.916  1.00  0.00    -0.148 NA 
HETATM   10  H1  UNL     1      -9.580   3.323  74.053  1.00  0.00     0.000 HD 
HETATM   11  C   UNL     1      -9.861   4.705  70.284  1.00  0.00    -0.314 A  
HETATM   12  H2  UNL     1     -11.136   3.863  74.205  1.00  0.00     0.000 HD 
HETATM   13  C   UNL     1     -10.636   5.863  70.111  1.00  0.00    -0.362 A  
BRANCH  13  14
HETATM   14  C   UNL     1     -10.610   6.441  68.739  1.00  0.00    -0.251 C  
HETATM   15  O   UNL     1     -10.716   5.764  67.725  1.00  0.00    -0.250 OA 
BRANCH  14  16
HETATM   16  O   UNL     1     -10.188   7.725  68.795  1.00  0.00    -0.193 OA 
BRANCH  16  17
HETATM   17  C   UNL     1      -9.395   8.158  67.679  1.00  0.00    -0.140 C  
BRANCH  17  18
HETATM   18  C   UNL     1     -10.288   9.118  66.872  1.00  0.00    -0.251 C  
BRANCH  18  19
HETATM   19  N   UNL     1      -9.819   9.527  65.532  1.00  0.00    -0.296 NA 
BRANCH  19  20
HETATM   20  C   UNL     1      -8.517   8.886  65.274  1.00  0.00    -0.169 C  
HETATM   21  C   UNL     1      -7.408   9.850  64.876  1.00  0.00    -0.136 C  
ENDBRANCH  19  20
BRANCH  19  22
HETATM   22  C   UNL     1      -9.831  10.981  65.334  1.00  0.00    -0.251 C  
HETATM   23  C   UNL     1     -11.075  11.720  65.817  1.00  0.00    -0.351 C  
ENDBRANCH  19  22
ENDBRANCH  18  19
ENDBRANCH  17  18
ENDBRANCH  16  17
ENDBRANCH  14  16
ENDBRANCH  13  14
ENDBRANCH   4   5
ENDBRANCH   3   4
ENDBRANCH   2   3
TORSDOF 10
ENDMDL
MODEL      208
REMARK 921   NORMALIZED FREE ENERGY PREDICTED BY IDOCK:   -3.35 KCAL/MOL
REMARK 922        TOTAL FREE ENERGY PREDICTED BY IDOCK:   -6.37 KCAL/MOL
REMARK 923 INTER-LIGAND FREE ENERGY PREDICTED BY IDOCK:   -4.93 KCAL/MOL
REMARK 924 INTRA-LIGAND FREE ENERGY PREDICTED BY IDOCK:   -1.43 KCAL/MOL
REMARK 927      BINDING AFFINITY PREDICTED BY RF-SCORE:    0.00 PKD
ROOT
HETATM    1  C   UNL     1      -8.060   3.146  70.821  1.00  0.00    -0.064 C  
HETATM    2  C   UNL     1      -9.114   4.188  70.473  1.00  0.00    -0.176 C  
ENDROOT
BRANCH   2   3
HETATM    3  C   UNL     1     -10.184   4.253  71.556  1.00  0.00    -0.068 C  
BRANCH   3   4
HETATM    4  O   UNL     1      -9.987   5.421  72.356  1.00  0.00    -0.164 OA 
BRANCH   4   5
HETATM    5  C   UNL     1     -10.719   6.533  72.020  1.00  0.00    -0.223 A  
HETATM    6  C   UNL     1     -12.097   6.494  71.748  1.00  0.00    -0.393 A  
HETATM    7  C   UNL     1     -12.810   7.636  71.369  1.00  0.00    -0.319 A  
HETATM    8  C   UNL     1     -12.162   8.867  71.390  1.00  0.00    -0.374 A  
HETATM    9  N   UNL     1     -14.196   7.568  71.195  1.00  0.00    -0.655 NA 
HETATM   10  H1  UNL     1     -14.716   8.401  70.918  1.00  0.00     0.000 HD 
HETATM   11  C   UNL     1     -10.798   8.938  71.663  1.00  0.00    -0.420 A  
HETATM   12  H2  UNL     1     -14.611   7.198  72.049  1.00  0.00     0.000 HD 
HETATM   13  C   UNL     1     -10.065   7.777  71.956  1.00  0.00    -0.244 A  
BRANCH  13  14
HETATM   14  C   UNL     1      -8.595   7.974  72.085  1.00  0.00    -0.155 C  
HETATM   15  O   UNL     1      -8.090   8.726  72.908  1.00  0.00    -0.404 OA 
BRANCH  14  16
HETATM   16  O   UNL     1      -7.968   7.433  71.015  1.00  0.00    -0.095 OA 
BRANCH  16  17
HETATM   17  C   UNL     1      -7.789   8.318  69.898  1.00  0.00    -0.102 C  
BRANCH  17  18
HETATM   18  C   UNL     1      -8.208   7.518  68.652  1.00  0.00    -0.129 C  
BRANCH  18  19
HETATM   19  N   UNL     1      -9.145   8.160  67.708  1.00  0.00    -0.135 NA 
BRANCH  19  20
HETATM   20  C   UNL     1     -10.523   7.834  68.118  1.00  0.00    -0.176 C  
HETATM   21  C   UNL     1     -10.798   6.344  68.269  1.00  0.00    -0.384 C  
ENDBRANCH  19  20
BRANCH  19  22
HETATM   22  C   UNL     1      -8.843   7.865  66.303  1.00  0.00    -0.159 C  
HETATM   23  C   UNL     1      -7.641   6.961  66.044  1.00  0.00    -0.093 C  
ENDBRANCH  19  22
ENDBRANCH  18  19
ENDBRANCH  17  18
ENDBRANCH  16  17
ENDBRANCH  14  16
ENDBRANCH  13  14
ENDBRANCH   4   5
ENDBRANCH   3   4
ENDBRANCH   2   3
TORSDOF 10
ENDMDL
MODEL      209
REMARK 921   NORMALIZED FREE ENERGY PREDICTED BY IDOCK:   -3.35 KCAL/MOL
REMARK 922        TOTAL FREE ENERGY PREDICTED BY IDOCK:   -6.36 KCAL/MOL
REMARK 923 INTER-LIGAND FREE ENERGY PREDICTED BY IDOCK:   -5.88 KCAL/MOL
REMARK 924 INTRA-LIGAND FREE ENERGY PREDICTED BY IDOCK:   -0.48 KCAL/MOL
REMARK 927      BINDING AFFINITY PREDICTED BY RF-SCORE:    0.00 PKD
ROOT
HETATM    1  C   UNL     1      -9.939   4.808  69.182  1.00  0.00    -0.233 C  
HETATM    2  C   UNL     1     -10.276   5.240  70.602  1.00  0.00    -0.327 C  
ENDROOT
BRANCH   2   3
HETATM    3  C   UNL     1      -9.139   6.059  71.200  1.00  0.00    -0.146 C  
BRANCH   3   4
HETATM    4  O   UNL     1      -9.631   6.842  72.290  1.00  0.00    -0.147 OA 
BRANCH   4   5
HETATM    5  C   UNL     1     -10.599   7.772  71.996  1.00  0.00    -0.228 A  
HETATM    6  C   UNL     1     -11.954   7.602  72.326  1.00  0.00    -0.329 A  
HETATM    7  C   UNL     1     -12.926   8.547  71.980  1.00  0.00    -0.371 A  
HETATM    8  C   UNL     1     -12.517   9.748  71.410  1.00  0.00    -0.482 A  
HETATM    9  N   UNL     1     -14.247   8.379  72.406  1.00  0.00    -0.625 NA 
HETATM   10  H1  UNL     1     -14.955   9.069  72.154  1.00  0.00     0.000 HD 
HETATM   11  C   UNL     1     -11.179   9.948  71.078  1.00  0.00    -0.435 A  
HETATM   12  H2  UNL     1     -14.248   8.273  73.420  1.00  0.00     0.000 HD 
HETATM   13  C   UNL     1     -10.218   8.959  71.346  1.00  0.00    -0.375 A  
BRANCH  13  14
HETATM   14  C   UNL     1      -8.857   9.240  70.812  1.00  0.00    -0.225 C  
HETATM   15  O   UNL     1      -7.881   9.420  71.527  1.00  0.00    -0.308 OA 
BRANCH  14  16
HETATM   16  O   UNL     1      -8.938   9.528  69.492  1.00  0.00    -0.155 OA 
BRANCH  16  17
HETATM   17  C   UNL     1      -7.879  10.352  68.980  1.00  0.00    -0.120 C  
BRANCH  17  18
HETATM   18  C   UNL     1      -8.537  11.681  68.571  1.00  0.00    -0.134 C  
BRANCH  18  19
HETATM   19  N   UNL     1      -9.471  11.660  67.426  1.00  0.00    -0.166 NA 
BRANCH  19  20
HETATM   20  C   UNL     1     -10.851  11.637  67.945  1.00  0.00    -0.210 C  
HETATM   21  C   UNL     1     -11.319  12.955  68.547  1.00  0.00    -0.324 C  
ENDBRANCH  19  20
BRANCH  19  22
HETATM   22  C   UNL     1      -9.170  10.603  66.453  1.00  0.00    -0.168 C  
HETATM   23  C   UNL     1     -10.138  10.465  65.282  1.00  0.00    -0.370 C  
ENDBRANCH  19  22
ENDBRANCH  18  19
ENDBRANCH  17  18
ENDBRANCH  16  17
ENDBRANCH  14  16
ENDBRANCH  13  14
ENDBRANCH   4   5
ENDBRANCH   3   4
ENDBRANCH   2   3
TORSDOF 10
ENDMDL
MODEL      210
REMARK 921   NORMALIZED FREE ENERGY PREDICTED BY IDOCK:   -3.34 KCAL/MOL
REMARK 922        TOTAL FREE ENERGY PREDICTED BY IDOCK:   -6.35 KCAL/MOL
REMARK 923 INTER-LIGAND FREE ENERGY PREDICTED BY IDOCK:   -5.55 KCAL/MOL
REMARK 924 INTRA-LIGAND FREE ENERGY PREDICTED BY IDOCK:   -0.80 KCAL/MOL
REMARK 927      BINDING AFFINITY PREDICTED BY RF-SCORE:    0.00 PKD
ROOT
HETATM    1  C   UNL     1      -6.166  14.084  70.500  1.00  0.00    -0.114 C  
HETATM    2  C   UNL     1      -5.904  15.512  70.043  1.00  0.00    -0.144 C  
ENDROOT
BRANCH   2   3
HETATM    3  C   UNL     1      -6.679  15.821  68.769  1.00  0.00    -0.119 C  
BRANCH   3   4
HETATM    4  O   UNL     1      -7.970  15.210  68.831  1.00  0.00    -0.152 OA 
BRANCH   4   5
HETATM    5  C   UNL     1      -8.758  15.310  67.710  1.00  0.00    -0.165 A  
HETATM    6  C   UNL     1      -9.323  16.519  67.273  1.00  0.00    -0.227 A  
HETATM    7  C   UNL     1     -10.155  16.586  66.150  1.00  0.00    -0.348 A  
HETATM    8  C   UNL     1     -10.317  15.446  65.371  1.00  0.00    -0.422 A  
HETATM    9  N   UNL     1     -10.624  17.824  65.700  1.00  0.00    -0.579 NA 
HETATM   10  H1  UNL     1     -11.230  17.872  64.881  1.00  0.00     0.000 HD 
HETATM   11  C   UNL     1      -9.762  14.234  65.774  1.00  0.00    -0.264 A  
HETATM   12  H2  UNL     1      -9.823  18.435  65.545  1.00  0.00     0.000 HD 
HETATM   13  C   UNL     1      -9.001  14.151  66.952  1.00  0.00    -0.247 A  
BRANCH  13  14
HETATM   14  C   UNL     1      -8.590  12.775  67.342  1.00  0.00    -0.194 C  
HETATM   15  O   UNL     1      -7.447  12.484  67.670  1.00  0.00    -0.115 OA 
BRANCH  14  16
HETATM   16  O   UNL     1      -9.568  11.898  67.016  1.00  0.00    -0.185 OA 
BRANCH  16  17
HETATM   17  C   UNL     1     -10.158  11.200  68.124  1.00  0.00    -0.179 C  
BRANCH  17  18
HETATM   18  C   UNL     1     -11.252  12.131  68.677  1.00  0.00    -0.269 C  
BRANCH  18  19
HETATM   19  N   UNL     1     -12.158  11.586  69.709  1.00  0.00    -0.315 NA 
BRANCH  19  20
HETATM   20  C   UNL     1     -12.387  12.625  70.729  1.00  0.00    -0.283 C  
HETATM   21  C   UNL     1     -12.180  14.050  70.234  1.00  0.00    -0.430 C  
ENDBRANCH  19  20
BRANCH  19  22
HETATM   22  C   UNL     1     -11.713  10.295  70.245  1.00  0.00    -0.306 C  
HETATM   23  C   UNL     1     -12.374   9.836  71.542  1.00  0.00    -0.495 C  
ENDBRANCH  19  22
ENDBRANCH  18  19
ENDBRANCH  17  18
ENDBRANCH  16  17
ENDBRANCH  14  16
ENDBRANCH  13  14
ENDBRANCH   4   5
ENDBRANCH   3   4
ENDBRANCH   2   3
TORSDOF 10
ENDMDL
MODEL      211
REMARK 921   NORMALIZED FREE ENERGY PREDICTED BY IDOCK:   -3.34 KCAL/MOL
REMARK 922        TOTAL FREE ENERGY PREDICTED BY IDOCK:   -6.35 KCAL/MOL
REMARK 923 INTER-LIGAND FREE ENERGY PREDICTED BY IDOCK:   -5.39 KCAL/MOL
REMARK 924 INTRA-LIGAND FREE ENERGY PREDICTED BY IDOCK:   -0.96 KCAL/MOL
REMARK 927      BINDING AFFINITY PREDICTED BY RF-SCORE:    0.00 PKD
ROOT
HETATM    1  C   UNL     1     -12.275  12.242  63.579  1.00  0.00    -0.669 C  
HETATM    2  C   UNL     1     -11.915  13.706  63.785  1.00  0.00    -0.425 C  
ENDROOT
BRANCH   2   3
HETATM    3  C   UNL     1     -10.900  13.858  64.912  1.00  0.00    -0.405 C  
BRANCH   3   4
HETATM    4  O   UNL     1     -11.566  14.275  66.105  1.00  0.00    -0.349 OA 
BRANCH   4   5
HETATM    5  C   UNL     1     -11.431  13.463  67.206  1.00  0.00    -0.340 A  
HETATM    6  C   UNL     1     -11.487  12.061  67.138  1.00  0.00    -0.401 A  
HETATM    7  C   UNL     1     -11.387  11.260  68.281  1.00  0.00    -0.289 A  
HETATM    8  C   UNL     1     -11.092  11.865  69.498  1.00  0.00    -0.169 A  
HETATM    9  N   UNL     1     -11.359   9.867  68.157  1.00  0.00    -0.531 NA 
HETATM   10  H1  UNL     1     -11.286   9.283  68.990  1.00  0.00     0.000 HD 
HETATM   11  C   UNL     1     -11.022  13.252  69.594  1.00  0.00     0.103 A  
HETATM   12  H2  UNL     1     -10.605   9.615  67.519  1.00  0.00     0.000 HD 
HETATM   13  C   UNL     1     -11.212  14.060  68.460  1.00  0.00    -0.291 A  
BRANCH  13  14
HETATM   14  C   UNL     1     -11.256  15.524  68.728  1.00  0.00    -0.315 C  
HETATM   15  O   UNL     1     -12.272  16.195  68.617  1.00  0.00     0.003 OA 
BRANCH  14  16
HETATM   16  O   UNL     1      -9.995  16.005  68.830  1.00  0.00    -0.208 OA 
BRANCH  16  17
HETATM   17  C   UNL     1      -9.450  16.554  67.620  1.00  0.00    -0.225 C  
BRANCH  17  18
HETATM   18  C   UNL     1      -7.965  16.147  67.601  1.00  0.00    -0.145 C  
BRANCH  18  19
HETATM   19  N   UNL     1      -7.243  16.129  68.890  1.00  0.00    -0.165 NA 
BRANCH  19  20
HETATM   20  C   UNL     1      -6.198  17.169  68.858  1.00  0.00    -0.179 C  
HETATM   21  C   UNL     1      -6.543  18.432  69.635  1.00  0.00    -0.105 C  
ENDBRANCH  19  20
BRANCH  19  22
HETATM   22  C   UNL     1      -6.761  14.794  69.264  1.00  0.00    -0.137 C  
HETATM   23  C   UNL     1      -6.105  14.671  70.636  1.00  0.00    -0.148 C  
ENDBRANCH  19  22
ENDBRANCH  18  19
ENDBRANCH  17  18
ENDBRANCH  16  17
ENDBRANCH  14  16
ENDBRANCH  13  14
ENDBRANCH   4   5
ENDBRANCH   3   4
ENDBRANCH   2   3
TORSDOF 10
ENDMDL
MODEL      212
REMARK 921   NORMALIZED FREE ENERGY PREDICTED BY IDOCK:   -3.34 KCAL/MOL
REMARK 922        TOTAL FREE ENERGY PREDICTED BY IDOCK:   -6.35 KCAL/MOL
REMARK 923 INTER-LIGAND FREE ENERGY PREDICTED BY IDOCK:   -5.72 KCAL/MOL
REMARK 924 INTRA-LIGAND FREE ENERGY PREDICTED BY IDOCK:   -0.63 KCAL/MOL
REMARK 927      BINDING AFFINITY PREDICTED BY RF-SCORE:    0.00 PKD
ROOT
HETATM    1  C   UNL     1     -12.334  14.423  64.222  1.00  0.00    -0.402 C  
HETATM    2  C   UNL     1     -12.153  13.213  63.317  1.00  0.00    -0.460 C  
ENDROOT
BRANCH   2   3
HETATM    3  C   UNL     1     -10.963  12.376  63.768  1.00  0.00    -0.447 C  
BRANCH   3   4
HETATM    4  O   UNL     1     -11.284  11.699  64.985  1.00  0.00    -0.283 OA 
BRANCH   4   5
HETATM    5  C   UNL     1     -10.281  10.963  65.568  1.00  0.00    -0.271 A  
HETATM    6  C   UNL     1      -9.570   9.960  64.890  1.00  0.00    -0.356 A  
HETATM    7  C   UNL     1      -8.580   9.198  65.520  1.00  0.00    -0.170 A  
HETATM    8  C   UNL     1      -8.200   9.535  66.815  1.00  0.00    -0.113 A  
HETATM    9  N   UNL     1      -7.837   8.271  64.782  1.00  0.00    -0.121 NA 
HETATM   10  H1  UNL     1      -7.115   7.715  65.242  1.00  0.00     0.000 HD 
HETATM   11  C   UNL     1      -8.882  10.530  67.510  1.00  0.00    -0.131 A  
HETATM   12  H2  UNL     1      -7.416   8.753  63.988  1.00  0.00     0.000 HD 
HETATM   13  C   UNL     1      -9.936  11.234  66.904  1.00  0.00    -0.238 A  
BRANCH  13  14
HETATM   14  C   UNL     1     -10.671  12.166  67.802  1.00  0.00    -0.209 C  
HETATM   15  O   UNL     1     -11.192  11.814  68.852  1.00  0.00    -0.216 OA 
BRANCH  14  16
HETATM   16  O   UNL     1     -10.897  13.335  67.158  1.00  0.00    -0.255 OA 
BRANCH  16  17
HETATM   17  C   UNL     1      -9.736  14.155  66.954  1.00  0.00    -0.269 C  
BRANCH  17  18
HETATM   18  C   UNL     1      -9.298  14.625  68.353  1.00  0.00    -0.201 C  
BRANCH  18  19
HETATM   19  N   UNL     1     -10.053  15.734  68.971  1.00  0.00    -0.212 NA 
BRANCH  19  20
HETATM   20  C   UNL     1     -10.831  15.198  70.104  1.00  0.00    -0.241 C  
HETATM   21  C   UNL     1     -12.292  15.627  70.123  1.00  0.00    -0.366 C  
ENDBRANCH  19  20
BRANCH  19  22
HETATM   22  C   UNL     1     -10.842  16.506  68.004  1.00  0.00    -0.337 C  
HETATM   23  C   UNL     1     -10.446  17.969  67.823  1.00  0.00    -0.421 C  
ENDBRANCH  19  22
ENDBRANCH  18  19
ENDBRANCH  17  18
ENDBRANCH  16  17
ENDBRANCH  14  16
ENDBRANCH  13  14
ENDBRANCH   4   5
ENDBRANCH   3   4
ENDBRANCH   2   3
TORSDOF 10
ENDMDL
MODEL      213
REMARK 921   NORMALIZED FREE ENERGY PREDICTED BY IDOCK:   -3.33 KCAL/MOL
REMARK 922        TOTAL FREE ENERGY PREDICTED BY IDOCK:   -6.34 KCAL/MOL
REMARK 923 INTER-LIGAND FREE ENERGY PREDICTED BY IDOCK:   -5.58 KCAL/MOL
REMARK 924 INTRA-LIGAND FREE ENERGY PREDICTED BY IDOCK:   -0.76 KCAL/MOL
REMARK 927      BINDING AFFINITY PREDICTED BY RF-SCORE:    0.00 PKD
ROOT
HETATM    1  C   UNL     1     -12.648  11.920  63.115  1.00  0.00    -0.329 C  
HETATM    2  C   UNL     1     -11.921  12.085  64.442  1.00  0.00    -0.385 C  
ENDROOT
BRANCH   2   3
HETATM    3  C   UNL     1     -12.580  13.169  65.286  1.00  0.00    -0.472 C  
BRANCH   3   4
HETATM    4  O   UNL     1     -12.335  12.916  66.671  1.00  0.00    -0.422 OA 
BRANCH   4   5
HETATM    5  C   UNL     1     -11.152  13.386  67.187  1.00  0.00    -0.286 A  
HETATM    6  C   UNL     1     -10.840  14.753  67.276  1.00  0.00    -0.309 A  
HETATM    7  C   UNL     1      -9.610  15.202  67.769  1.00  0.00    -0.203 A  
HETATM    8  C   UNL     1      -8.726  14.274  68.307  1.00  0.00    -0.179 A  
HETATM    9  N   UNL     1      -9.378  16.573  67.922  1.00  0.00    -0.214 NA 
HETATM   10  H1  UNL     1      -8.481  16.900  68.282  1.00  0.00     0.000 HD 
HETATM   11  C   UNL     1      -9.011  12.912  68.240  1.00  0.00    -0.175 A  
HETATM   12  H2  UNL     1     -10.120  16.963  68.502  1.00  0.00     0.000 HD 
HETATM   13  C   UNL     1     -10.209  12.458  67.663  1.00  0.00    -0.210 A  
BRANCH  13  14
HETATM   14  C   UNL     1     -10.322  10.980  67.525  1.00  0.00    -0.198 C  
HETATM   15  O   UNL     1      -9.759  10.344  66.644  1.00  0.00    -0.177 OA 
BRANCH  14  16
HETATM   16  O   UNL     1     -11.321  10.525  68.316  1.00  0.00    -0.293 OA 
BRANCH  16  17
HETATM   17  C   UNL     1     -11.012  10.460  69.717  1.00  0.00    -0.293 C  
BRANCH  17  18
HETATM   18  C   UNL     1      -9.915   9.389  69.859  1.00  0.00    -0.212 C  
BRANCH  18  19
HETATM   19  N   UNL     1     -10.305   8.079  70.419  1.00  0.00    -0.202 NA 
BRANCH  19  20
HETATM   20  C   UNL     1      -9.740   7.017  69.568  1.00  0.00    -0.160 C  
HETATM   21  C   UNL     1     -10.601   6.645  68.369  1.00  0.00    -0.289 C  
ENDBRANCH  19  20
BRANCH  19  22
HETATM   22  C   UNL     1     -11.748   7.960  70.661  1.00  0.00    -0.157 C  
HETATM   23  C   UNL     1     -12.194   6.791  71.534  1.00  0.00    -0.413 C  
ENDBRANCH  19  22
ENDBRANCH  18  19
ENDBRANCH  17  18
ENDBRANCH  16  17
ENDBRANCH  14  16
ENDBRANCH  13  14
ENDBRANCH   4   5
ENDBRANCH   3   4
ENDBRANCH   2   3
TORSDOF 10
ENDMDL
MODEL      214
REMARK 921   NORMALIZED FREE ENERGY PREDICTED BY IDOCK:   -3.31 KCAL/MOL
REMARK 922        TOTAL FREE ENERGY PREDICTED BY IDOCK:   -6.30 KCAL/MOL
REMARK 923 INTER-LIGAND FREE ENERGY PREDICTED BY IDOCK:   -5.79 KCAL/MOL
REMARK 924 INTRA-LIGAND FREE ENERGY PREDICTED BY IDOCK:   -0.51 KCAL/MOL
REMARK 927      BINDING AFFINITY PREDICTED BY RF-SCORE:    0.00 PKD
ROOT
HETATM    1  C   UNL     1     -10.506   7.561  66.862  1.00  0.00    -0.385 C  
HETATM    2  C   UNL     1     -10.145   6.720  68.078  1.00  0.00    -0.183 C  
ENDROOT
BRANCH   2   3
HETATM    3  C   UNL     1      -9.767   7.611  69.255  1.00  0.00    -0.164 C  
BRANCH   3   4
HETATM    4  O   UNL     1     -10.172   8.955  68.990  1.00  0.00    -0.196 OA 
BRANCH   4   5
HETATM    5  C   UNL     1     -11.123   9.492  69.824  1.00  0.00    -0.191 A  
HETATM    6  C   UNL     1     -11.606   8.831  70.966  1.00  0.00    -0.337 A  
HETATM    7  C   UNL     1     -12.605   9.383  71.775  1.00  0.00    -0.387 A  
HETATM    8  C   UNL     1     -13.035  10.680  71.515  1.00  0.00    -0.566 A  
HETATM    9  N   UNL     1     -12.992   8.730  72.950  1.00  0.00    -0.671 NA 
HETATM   10  H1  UNL     1     -13.720   9.133  73.540  1.00  0.00     0.000 HD 
HETATM   11  C   UNL     1     -12.568  11.363  70.395  1.00  0.00    -0.267 A  
HETATM   12  H2  UNL     1     -12.162   8.576  73.522  1.00  0.00     0.000 HD 
HETATM   13  C   UNL     1     -11.631  10.770  69.533  1.00  0.00    -0.375 A  
BRANCH  13  14
HETATM   14  C   UNL     1     -11.327  11.548  68.300  1.00  0.00    -0.286 C  
HETATM   15  O   UNL     1     -11.355  11.062  67.178  1.00  0.00    -0.399 OA 
BRANCH  14  16
HETATM   16  O   UNL     1     -10.770  12.734  68.637  1.00  0.00    -0.245 OA 
BRANCH  16  17
HETATM   17  C   UNL     1     -10.518  13.626  67.541  1.00  0.00    -0.241 C  
BRANCH  17  18
HETATM   18  C   UNL     1      -9.037  13.434  67.170  1.00  0.00    -0.235 C  
BRANCH  18  19
HETATM   19  N   UNL     1      -8.092  13.123  68.262  1.00  0.00    -0.148 NA 
BRANCH  19  20
HETATM   20  C   UNL     1      -7.401  14.365  68.654  1.00  0.00    -0.123 C  
HETATM   21  C   UNL     1      -8.315  15.574  68.803  1.00  0.00    -0.187 C  
ENDBRANCH  19  20
BRANCH  19  22
HETATM   22  C   UNL     1      -7.197  12.002  67.951  1.00  0.00    -0.102 C  
HETATM   23  C   UNL     1      -7.625  10.631  68.467  1.00  0.00    -0.097 C  
ENDBRANCH  19  22
ENDBRANCH  18  19
ENDBRANCH  17  18
ENDBRANCH  16  17
ENDBRANCH  14  16
ENDBRANCH  13  14
ENDBRANCH   4   5
ENDBRANCH   3   4
ENDBRANCH   2   3
TORSDOF 10
ENDMDL
MODEL      215
REMARK 921   NORMALIZED FREE ENERGY PREDICTED BY IDOCK:   -3.30 KCAL/MOL
REMARK 922        TOTAL FREE ENERGY PREDICTED BY IDOCK:   -6.29 KCAL/MOL
REMARK 923 INTER-LIGAND FREE ENERGY PREDICTED BY IDOCK:   -5.28 KCAL/MOL
REMARK 924 INTRA-LIGAND FREE ENERGY PREDICTED BY IDOCK:   -1.01 KCAL/MOL
REMARK 927      BINDING AFFINITY PREDICTED BY RF-SCORE:    0.00 PKD
ROOT
HETATM    1  C   UNL     1     -12.708  10.935  71.241  1.00  0.00    -0.542 C  
HETATM    2  C   UNL     1     -11.703  10.662  70.131  1.00  0.00    -0.417 C  
ENDROOT
BRANCH   2   3
HETATM    3  C   UNL     1     -11.027   9.312  70.338  1.00  0.00    -0.255 C  
BRANCH   3   4
HETATM    4  O   UNL     1     -10.291   8.959  69.165  1.00  0.00    -0.212 OA 
BRANCH   4   5
HETATM    5  C   UNL     1      -8.968   9.330  69.128  1.00  0.00    -0.144 A  
HETATM    6  C   UNL     1      -8.193   9.528  70.283  1.00  0.00    -0.209 A  
HETATM    7  C   UNL     1      -6.859   9.944  70.218  1.00  0.00    -0.138 A  
HETATM    8  C   UNL     1      -6.248  10.036  68.972  1.00  0.00    -0.044 A  
HETATM    9  N   UNL     1      -6.100  10.043  71.388  1.00  0.00    -0.306 NA 
HETATM   10  H1  UNL     1      -5.127  10.346  71.340  1.00  0.00     0.000 HD 
HETATM   11  C   UNL     1      -6.989   9.837  67.809  1.00  0.00    -0.086 A  
HETATM   12  H2  UNL     1      -6.134   9.147  71.872  1.00  0.00     0.000 HD 
HETATM   13  C   UNL     1      -8.352   9.506  67.876  1.00  0.00    -0.115 A  
BRANCH  13  14
HETATM   14  C   UNL     1      -9.057   9.465  66.566  1.00  0.00    -0.153 C  
HETATM   15  O   UNL     1      -9.317   8.424  65.978  1.00  0.00    -0.209 OA 
BRANCH  14  16
HETATM   16  O   UNL     1      -9.101  10.709  66.034  1.00  0.00    -0.168 OA 
BRANCH  16  17
HETATM   17  C   UNL     1     -10.362  11.085  65.460  1.00  0.00    -0.260 C  
BRANCH  17  18
HETATM   18  C   UNL     1     -10.528  12.588  65.749  1.00  0.00    -0.271 C  
BRANCH  18  19
HETATM   19  N   UNL     1     -11.674  13.003  66.583  1.00  0.00    -0.362 NA 
BRANCH  19  20
HETATM   20  C   UNL     1     -12.501  13.946  65.809  1.00  0.00    -0.495 C  
HETATM   21  C   UNL     1     -12.364  13.811  64.299  1.00  0.00    -0.384 C  
ENDBRANCH  19  20
BRANCH  19  22
HETATM   22  C   UNL     1     -11.277  13.491  67.910  1.00  0.00    -0.274 C  
HETATM   23  C   UNL     1      -9.793  13.387  68.253  1.00  0.00    -0.235 C  
ENDBRANCH  19  22
ENDBRANCH  18  19
ENDBRANCH  17  18
ENDBRANCH  16  17
ENDBRANCH  14  16
ENDBRANCH  13  14
ENDBRANCH   4   5
ENDBRANCH   3   4
ENDBRANCH   2   3
TORSDOF 10
ENDMDL
MODEL      216
REMARK 921   NORMALIZED FREE ENERGY PREDICTED BY IDOCK:   -3.30 KCAL/MOL
REMARK 922        TOTAL FREE ENERGY PREDICTED BY IDOCK:   -6.28 KCAL/MOL
REMARK 923 INTER-LIGAND FREE ENERGY PREDICTED BY IDOCK:   -5.59 KCAL/MOL
REMARK 924 INTRA-LIGAND FREE ENERGY PREDICTED BY IDOCK:   -0.69 KCAL/MOL
REMARK 927      BINDING AFFINITY PREDICTED BY RF-SCORE:    0.00 PKD
ROOT
HETATM    1  C   UNL     1      -8.691   8.347  67.503  1.00  0.00    -0.136 C  
HETATM    2  C   UNL     1      -9.429   9.521  66.875  1.00  0.00    -0.204 C  
ENDROOT
BRANCH   2   3
HETATM    3  C   UNL     1     -10.804   9.693  67.508  1.00  0.00    -0.198 C  
BRANCH   3   4
HETATM    4  O   UNL     1     -10.672   9.780  68.929  1.00  0.00    -0.216 OA 
BRANCH   4   5
HETATM    5  C   UNL     1     -11.306  10.831  69.547  1.00  0.00    -0.289 A  
HETATM    6  C   UNL     1     -11.420  12.107  68.970  1.00  0.00    -0.351 A  
HETATM    7  C   UNL     1     -12.036  13.170  69.639  1.00  0.00    -0.306 A  
HETATM    8  C   UNL     1     -12.669  12.919  70.852  1.00  0.00    -0.291 A  
HETATM    9  N   UNL     1     -12.205  14.398  68.992  1.00  0.00    -0.541 NA 
HETATM   10  H1  UNL     1     -12.655  15.173  69.480  1.00  0.00     0.000 HD 
HETATM   11  C   UNL     1     -12.580  11.662  71.444  1.00  0.00    -0.391 A  
HETATM   12  H2  UNL     1     -12.702  14.236  68.117  1.00  0.00     0.000 HD 
HETATM   13  C   UNL     1     -11.883  10.619  70.812  1.00  0.00    -0.459 A  
BRANCH  13  14
HETATM   14  C   UNL     1     -11.742   9.375  71.616  1.00  0.00    -0.398 C  
HETATM   15  O   UNL     1     -12.687   8.816  72.156  1.00  0.00    -0.351 OA 
BRANCH  14  16
HETATM   16  O   UNL     1     -10.433   9.144  71.870  1.00  0.00    -0.348 OA 
BRANCH  16  17
HETATM   17  C   UNL     1     -10.164   8.033  72.739  1.00  0.00    -0.319 C  
BRANCH  17  18
HETATM   18  C   UNL     1      -9.777   6.861  71.821  1.00  0.00    -0.159 C  
BRANCH  18  19
HETATM   19  N   UNL     1      -8.523   6.140  72.122  1.00  0.00    -0.117 NA 
BRANCH  19  20
HETATM   20  C   UNL     1      -7.390   7.058  71.907  1.00  0.00    -0.086 C  
HETATM   21  C   UNL     1      -7.181   7.473  70.457  1.00  0.00    -0.064 C  
ENDBRANCH  19  20
BRANCH  19  22
HETATM   22  C   UNL     1      -8.409   4.858  71.416  1.00  0.00    -0.116 C  
HETATM   23  C   UNL     1      -9.486   4.559  70.377  1.00  0.00    -0.252 C  
ENDBRANCH  19  22
ENDBRANCH  18  19
ENDBRANCH  17  18
ENDBRANCH  16  17
ENDBRANCH  14  16
ENDBRANCH  13  14
ENDBRANCH   4   5
ENDBRANCH   3   4
ENDBRANCH   2   3
TORSDOF 10
ENDMDL
MODEL      217
REMARK 921   NORMALIZED FREE ENERGY PREDICTED BY IDOCK:   -3.28 KCAL/MOL
REMARK 922        TOTAL FREE ENERGY PREDICTED BY IDOCK:   -6.26 KCAL/MOL
REMARK 923 INTER-LIGAND FREE ENERGY PREDICTED BY IDOCK:   -5.87 KCAL/MOL
REMARK 924 INTRA-LIGAND FREE ENERGY PREDICTED BY IDOCK:   -0.39 KCAL/MOL
REMARK 927      BINDING AFFINITY PREDICTED BY RF-SCORE:    0.00 PKD
ROOT
HETATM    1  C   UNL     1      -8.891   4.930  69.515  1.00  0.00    -0.120 C  
HETATM    2  C   UNL     1      -9.559   4.986  68.148  1.00  0.00    -0.182 C  
ENDROOT
BRANCH   2   3
HETATM    3  C   UNL     1     -10.798   5.871  68.191  1.00  0.00    -0.236 C  
BRANCH   3   4
HETATM    4  O   UNL     1     -10.486   7.104  68.842  1.00  0.00    -0.197 OA 
BRANCH   4   5
HETATM    5  C   UNL     1     -10.269   8.194  68.033  1.00  0.00    -0.212 A  
HETATM    6  C   UNL     1      -9.759   8.094  66.728  1.00  0.00    -0.303 A  
HETATM    7  C   UNL     1      -9.510   9.223  65.941  1.00  0.00    -0.259 A  
HETATM    8  C   UNL     1      -9.903  10.470  66.417  1.00  0.00    -0.260 A  
HETATM    9  N   UNL     1      -9.087   9.072  64.617  1.00  0.00    -0.434 NA 
HETATM   10  H1  UNL     1      -8.906   9.896  64.043  1.00  0.00     0.000 HD 
HETATM   11  C   UNL     1     -10.419  10.599  67.704  1.00  0.00    -0.267 A  
HETATM   12  H2  UNL     1      -9.758   8.481  64.128  1.00  0.00     0.000 HD 
HETATM   13  C   UNL     1     -10.584   9.473  68.527  1.00  0.00    -0.247 A  
BRANCH  13  14
HETATM   14  C   UNL     1     -11.007   9.767  69.923  1.00  0.00    -0.264 C  
HETATM   15  O   UNL     1     -12.082  10.279  70.204  1.00  0.00    -0.254 OA 
BRANCH  14  16
HETATM   16  O   UNL     1      -9.945   9.645  70.754  1.00  0.00    -0.270 OA 
BRANCH  16  17
HETATM   17  C   UNL     1      -9.923   8.447  71.546  1.00  0.00    -0.217 C  
BRANCH  17  18
HETATM   18  C   UNL     1     -11.259   8.419  72.310  1.00  0.00    -0.376 C  
BRANCH  18  19
HETATM   19  N   UNL     1     -12.033   7.160  72.291  1.00  0.00    -0.256 NA 
BRANCH  19  20
HETATM   20  C   UNL     1     -11.092   6.032  72.174  1.00  0.00    -0.279 C  
HETATM   21  C   UNL     1     -10.773   5.338  73.492  1.00  0.00    -0.337 C  
ENDBRANCH  19  20
BRANCH  19  22
HETATM   22  C   UNL     1     -13.111   7.159  71.296  1.00  0.00    -0.300 C  
HETATM   23  C   UNL     1     -14.404   7.864  71.696  1.00  0.00    -0.595 C  
ENDBRANCH  19  22
ENDBRANCH  18  19
ENDBRANCH  17  18
ENDBRANCH  16  17
ENDBRANCH  14  16
ENDBRANCH  13  14
ENDBRANCH   4   5
ENDBRANCH   3   4
ENDBRANCH   2   3
TORSDOF 10
ENDMDL
MODEL      218
REMARK 921   NORMALIZED FREE ENERGY PREDICTED BY IDOCK:   -3.27 KCAL/MOL
REMARK 922        TOTAL FREE ENERGY PREDICTED BY IDOCK:   -6.25 KCAL/MOL
REMARK 923 INTER-LIGAND FREE ENERGY PREDICTED BY IDOCK:   -5.41 KCAL/MOL
REMARK 924 INTRA-LIGAND FREE ENERGY PREDICTED BY IDOCK:   -0.84 KCAL/MOL
REMARK 927      BINDING AFFINITY PREDICTED BY RF-SCORE:    0.00 PKD
ROOT
HETATM    1  C   UNL     1      -6.341  11.312  67.986  1.00  0.00    -0.053 C  
HETATM    2  C   UNL     1      -6.124  12.768  68.373  1.00  0.00    -0.069 C  
ENDROOT
BRANCH   2   3
HETATM    3  C   UNL     1      -7.048  13.680  67.575  1.00  0.00    -0.152 C  
BRANCH   3   4
HETATM    4  O   UNL     1      -8.176  14.040  68.375  1.00  0.00    -0.141 OA 
BRANCH   4   5
HETATM    5  C   UNL     1      -9.416  13.875  67.806  1.00  0.00    -0.214 A  
HETATM    6  C   UNL     1      -9.788  12.724  67.091  1.00  0.00    -0.216 A  
HETATM    7  C   UNL     1     -11.044  12.600  66.489  1.00  0.00    -0.280 A  
HETATM    8  C   UNL     1     -11.996  13.588  66.717  1.00  0.00    -0.453 A  
HETATM    9  N   UNL     1     -11.403  11.402  65.863  1.00  0.00    -0.162 NA 
HETATM   10  H1  UNL     1     -12.320  11.311  65.424  1.00  0.00     0.000 HD 
HETATM   11  C   UNL     1     -11.659  14.736  67.429  1.00  0.00    -0.377 A  
HETATM   12  H2  UNL     1     -11.290  10.641  66.532  1.00  0.00     0.000 HD 
HETATM   13  C   UNL     1     -10.368  14.899  67.957  1.00  0.00    -0.244 A  
BRANCH  13  14
HETATM   14  C   UNL     1     -10.099  16.230  68.568  1.00  0.00    -0.239 C  
HETATM   15  O   UNL     1     -10.449  16.530  69.701  1.00  0.00    -0.301 OA 
BRANCH  14  16
HETATM   16  O   UNL     1      -9.681  17.092  67.612  1.00  0.00    -0.254 OA 
BRANCH  16  17
HETATM   17  C   UNL     1      -8.287  17.431  67.660  1.00  0.00    -0.211 C  
BRANCH  17  18
HETATM   18  C   UNL     1      -7.889  17.796  66.220  1.00  0.00    -0.264 C  
BRANCH  18  19
HETATM   19  N   UNL     1      -7.714  19.228  65.899  1.00  0.00    -0.429 NA 
BRANCH  19  20
HETATM   20  C   UNL     1      -6.359  19.425  65.354  1.00  0.00    -0.261 C  
HETATM   21  C   UNL     1      -5.538  20.486  66.075  1.00  0.00    -0.219 C  
ENDBRANCH  19  20
BRANCH  19  22
HETATM   22  C   UNL     1      -8.055  20.117  67.015  1.00  0.00    -0.326 C  
HETATM   23  C   UNL     1      -9.507  20.580  67.094  1.00  0.00    -0.544 C  
ENDBRANCH  19  22
ENDBRANCH  18  19
ENDBRANCH  17  18
ENDBRANCH  16  17
ENDBRANCH  14  16
ENDBRANCH  13  14
ENDBRANCH   4   5
ENDBRANCH   3   4
ENDBRANCH   2   3
TORSDOF 10
ENDMDL
MODEL      219
REMARK 921   NORMALIZED FREE ENERGY PREDICTED BY IDOCK:   -3.27 KCAL/MOL
REMARK 922        TOTAL FREE ENERGY PREDICTED BY IDOCK:   -6.23 KCAL/MOL
REMARK 923 INTER-LIGAND FREE ENERGY PREDICTED BY IDOCK:   -5.71 KCAL/MOL
REMARK 924 INTRA-LIGAND FREE ENERGY PREDICTED BY IDOCK:   -0.52 KCAL/MOL
REMARK 927      BINDING AFFINITY PREDICTED BY RF-SCORE:    0.00 PKD
ROOT
HETATM    1  C   UNL     1      -6.742  11.607  68.269  1.00  0.00    -0.064 C  
HETATM    2  C   UNL     1      -7.092  12.933  67.609  1.00  0.00    -0.151 C  
ENDROOT
BRANCH   2   3
HETATM    3  C   UNL     1      -7.237  14.033  68.653  1.00  0.00    -0.114 C  
BRANCH   3   4
HETATM    4  O   UNL     1      -8.612  14.403  68.774  1.00  0.00    -0.170 OA 
BRANCH   4   5
HETATM    5  C   UNL     1      -8.983  15.601  68.214  1.00  0.00    -0.181 A  
HETATM    6  C   UNL     1      -8.210  16.273  67.252  1.00  0.00    -0.197 A  
HETATM    7  C   UNL     1      -8.592  17.513  66.728  1.00  0.00    -0.253 A  
HETATM    8  C   UNL     1      -9.837  18.028  67.072  1.00  0.00    -0.318 A  
HETATM    9  N   UNL     1      -7.838  18.103  65.709  1.00  0.00    -0.531 NA 
HETATM   10  H1  UNL     1      -8.117  19.006  65.327  1.00  0.00     0.000 HD 
HETATM   11  C   UNL     1     -10.630  17.380  68.016  1.00  0.00    -0.389 A  
HETATM   12  H2  UNL     1      -7.758  17.438  64.940  1.00  0.00     0.000 HD 
HETATM   13  C   UNL     1     -10.203  16.181  68.609  1.00  0.00    -0.244 A  
BRANCH  13  14
HETATM   14  C   UNL     1     -11.074  15.672  69.703  1.00  0.00    -0.299 C  
HETATM   15  O   UNL     1     -11.355  16.329  70.696  1.00  0.00    -0.386 OA 
BRANCH  14  16
HETATM   16  O   UNL     1     -11.254  14.338  69.558  1.00  0.00    -0.253 OA 
BRANCH  16  17
HETATM   17  C   UNL     1     -12.032  13.947  68.416  1.00  0.00    -0.356 C  
BRANCH  17  18
HETATM   18  C   UNL     1     -11.823  12.430  68.261  1.00  0.00    -0.309 C  
BRANCH  18  19
HETATM   19  N   UNL     1     -11.105  11.723  69.341  1.00  0.00    -0.216 NA 
BRANCH  19  20
HETATM   20  C   UNL     1     -10.275  10.663  68.739  1.00  0.00    -0.190 C  
HETATM   21  C   UNL     1     -10.251  10.672  67.217  1.00  0.00    -0.250 C  
ENDBRANCH  19  20
BRANCH  19  22
HETATM   22  C   UNL     1     -11.989  11.264  70.419  1.00  0.00    -0.380 C  
HETATM   23  C   UNL     1     -11.580   9.976  71.129  1.00  0.00    -0.460 C  
ENDBRANCH  19  22
ENDBRANCH  18  19
ENDBRANCH  17  18
ENDBRANCH  16  17
ENDBRANCH  14  16
ENDBRANCH  13  14
ENDBRANCH   4   5
ENDBRANCH   3   4
ENDBRANCH   2   3
TORSDOF 10
ENDMDL
MODEL      220
REMARK 921   NORMALIZED FREE ENERGY PREDICTED BY IDOCK:   -3.27 KCAL/MOL
REMARK 922        TOTAL FREE ENERGY PREDICTED BY IDOCK:   -6.23 KCAL/MOL
REMARK 923 INTER-LIGAND FREE ENERGY PREDICTED BY IDOCK:   -5.31 KCAL/MOL
REMARK 924 INTRA-LIGAND FREE ENERGY PREDICTED BY IDOCK:   -0.92 KCAL/MOL
REMARK 927      BINDING AFFINITY PREDICTED BY RF-SCORE:    0.00 PKD
ROOT
HETATM    1  C   UNL     1     -14.018   8.717  71.556  1.00  0.00    -0.391 C  
HETATM    2  C   UNL     1     -12.576   8.793  72.040  1.00  0.00    -0.447 C  
ENDROOT
BRANCH   2   3
HETATM    3  C   UNL     1     -11.914  10.078  71.559  1.00  0.00    -0.353 C  
BRANCH   3   4
HETATM    4  O   UNL     1     -12.404  10.414  70.259  1.00  0.00    -0.287 OA 
BRANCH   4   5
HETATM    5  C   UNL     1     -12.051  11.645  69.763  1.00  0.00    -0.289 A  
HETATM    6  C   UNL     1     -12.616  12.848  70.217  1.00  0.00    -0.084 A  
HETATM    7  C   UNL     1     -12.267  14.086  69.666  1.00  0.00    -0.332 A  
HETATM    8  C   UNL     1     -11.236  14.136  68.735  1.00  0.00    -0.294 A  
HETATM    9  N   UNL     1     -12.789  15.265  70.209  1.00  0.00    -0.646 NA 
HETATM   10  H1  UNL     1     -12.534  16.167  69.807  1.00  0.00     0.000 HD 
HETATM   11  C   UNL     1     -10.650  12.960  68.271  1.00  0.00    -0.259 A  
HETATM   12  H2  UNL     1     -12.575  15.283  71.205  1.00  0.00     0.000 HD 
HETATM   13  C   UNL     1     -11.066  11.711  68.761  1.00  0.00    -0.283 A  
BRANCH  13  14
HETATM   14  C   UNL     1     -10.463  10.533  68.079  1.00  0.00    -0.197 C  
HETATM   15  O   UNL     1     -11.113   9.740  67.413  1.00  0.00    -0.210 OA 
BRANCH  14  16
HETATM   16  O   UNL     1      -9.202  10.342  68.532  1.00  0.00    -0.134 OA 
BRANCH  16  17
HETATM   17  C   UNL     1      -9.058   9.322  69.531  1.00  0.00    -0.160 C  
BRANCH  17  18
HETATM   18  C   UNL     1      -8.429   8.113  68.816  1.00  0.00    -0.126 C  
BRANCH  18  19
HETATM   19  N   UNL     1      -8.707   6.770  69.365  1.00  0.00    -0.135 NA 
BRANCH  19  20
HETATM   20  C   UNL     1      -7.693   5.832  68.849  1.00  0.00    -0.090 C  
HETATM   21  C   UNL     1      -6.700   6.452  67.876  1.00  0.00    -0.064 C  
ENDBRANCH  19  20
BRANCH  19  22
HETATM   22  C   UNL     1     -10.095   6.338  69.161  1.00  0.00    -0.168 C  
HETATM   23  C   UNL     1     -10.824   5.799  70.388  1.00  0.00    -0.360 C  
ENDBRANCH  19  22
ENDBRANCH  18  19
ENDBRANCH  17  18
ENDBRANCH  16  17
ENDBRANCH  14  16
ENDBRANCH  13  14
ENDBRANCH   4   5
ENDBRANCH   3   4
ENDBRANCH   2   3
TORSDOF 10
ENDMDL
MODEL      221
REMARK 921   NORMALIZED FREE ENERGY PREDICTED BY IDOCK:   -3.25 KCAL/MOL
REMARK 922        TOTAL FREE ENERGY PREDICTED BY IDOCK:   -6.20 KCAL/MOL
REMARK 923 INTER-LIGAND FREE ENERGY PREDICTED BY IDOCK:   -6.31 KCAL/MOL
REMARK 924 INTRA-LIGAND FREE ENERGY PREDICTED BY IDOCK:    0.11 KCAL/MOL
REMARK 927      BINDING AFFINITY PREDICTED BY RF-SCORE:    0.00 PKD
ROOT
HETATM    1  C   UNL     1     -12.613  11.881  63.482  1.00  0.00    -0.579 C  
HETATM    2  C   UNL     1     -11.342  12.714  63.568  1.00  0.00    -0.527 C  
ENDROOT
BRANCH   2   3
HETATM    3  C   UNL     1     -10.113  11.815  63.639  1.00  0.00    -0.418 C  
BRANCH   3   4
HETATM    4  O   UNL     1     -10.072  11.157  64.906  1.00  0.00    -0.250 OA 
BRANCH   4   5
HETATM    5  C   UNL     1      -9.950  11.958  66.016  1.00  0.00    -0.232 A  
HETATM    6  C   UNL     1      -9.742  13.345  65.945  1.00  0.00    -0.197 A  
HETATM    7  C   UNL     1      -9.581  14.131  67.091  1.00  0.00    -0.244 A  
HETATM    8  C   UNL     1      -9.764  13.540  68.337  1.00  0.00    -0.207 A  
HETATM    9  N   UNL     1      -9.464  15.520  66.976  1.00  0.00    -0.220 NA 
HETATM   10  H1  UNL     1      -9.347  16.092  67.812  1.00  0.00     0.000 HD 
HETATM   11  C   UNL     1      -9.980  12.168  68.439  1.00  0.00    -0.206 A  
HETATM   12  H2  UNL     1     -10.269  15.869  66.456  1.00  0.00     0.000 HD 
HETATM   13  C   UNL     1     -10.052  11.366  67.288  1.00  0.00    -0.218 A  
BRANCH  13  14
HETATM   14  C   UNL     1     -10.140   9.902  67.543  1.00  0.00    -0.197 C  
HETATM   15  O   UNL     1     -10.646   9.115  66.756  1.00  0.00    -0.227 OA 
BRANCH  14  16
HETATM   16  O   UNL     1      -9.843   9.648  68.839  1.00  0.00    -0.165 OA 
BRANCH  16  17
HETATM   17  C   UNL     1     -10.700   8.698  69.489  1.00  0.00    -0.182 C  
BRANCH  17  18
HETATM   18  C   UNL     1     -10.833   9.173  70.946  1.00  0.00    -0.278 C  
BRANCH  18  19
HETATM   19  N   UNL     1     -11.841   8.507  71.796  1.00  0.00    -0.308 NA 
BRANCH  19  20
HETATM   20  C   UNL     1     -12.059   7.142  71.284  1.00  0.00    -0.348 C  
HETATM   21  C   UNL     1     -11.687   6.036  72.263  1.00  0.00    -0.338 C  
ENDBRANCH  19  20
BRANCH  19  22
HETATM   22  C   UNL     1     -13.068   9.296  71.964  1.00  0.00    -0.436 C  
HETATM   23  C   UNL     1     -14.382   8.522  71.920  1.00  0.00    -0.536 C  
ENDBRANCH  19  22
ENDBRANCH  18  19
ENDBRANCH  17  18
ENDBRANCH  16  17
ENDBRANCH  14  16
ENDBRANCH  13  14
ENDBRANCH   4   5
ENDBRANCH   3   4
ENDBRANCH   2   3
TORSDOF 10
ENDMDL
MODEL      222
REMARK 921   NORMALIZED FREE ENERGY PREDICTED BY IDOCK:   -3.24 KCAL/MOL
REMARK 922        TOTAL FREE ENERGY PREDICTED BY IDOCK:   -6.20 KCAL/MOL
REMARK 923 INTER-LIGAND FREE ENERGY PREDICTED BY IDOCK:   -4.82 KCAL/MOL
REMARK 924 INTRA-LIGAND FREE ENERGY PREDICTED BY IDOCK:   -1.38 KCAL/MOL
REMARK 927      BINDING AFFINITY PREDICTED BY RF-SCORE:    0.00 PKD
ROOT
HETATM    1  C   UNL     1      -6.317  10.208  68.590  1.00  0.00    -0.052 C  
HETATM    2  C   UNL     1      -6.672  10.083  70.065  1.00  0.00    -0.112 C  
ENDROOT
BRANCH   2   3
HETATM    3  C   UNL     1      -8.148   9.749  70.238  1.00  0.00    -0.154 C  
BRANCH   3   4
HETATM    4  O   UNL     1      -8.336   8.335  70.143  1.00  0.00    -0.118 OA 
BRANCH   4   5
HETATM    5  C   UNL     1      -9.592   7.856  70.425  1.00  0.00    -0.171 A  
HETATM    6  C   UNL     1     -10.300   8.194  71.591  1.00  0.00    -0.284 A  
HETATM    7  C   UNL     1     -11.561   7.660  71.873  1.00  0.00    -0.280 A  
HETATM    8  C   UNL     1     -12.187   6.878  70.908  1.00  0.00    -0.404 A  
HETATM    9  N   UNL     1     -12.267   8.092  73.001  1.00  0.00    -0.645 NA 
HETATM   10  H1  UNL     1     -13.187   7.703  73.206  1.00  0.00     0.000 HD 
HETATM   11  C   UNL     1     -11.514   6.533  69.739  1.00  0.00    -0.443 A  
HETATM   12  H2  UNL     1     -12.348   9.108  72.962  1.00  0.00     0.000 HD 
HETATM   13  C   UNL     1     -10.210   6.998  69.499  1.00  0.00    -0.208 A  
BRANCH  13  14
HETATM   14  C   UNL     1      -9.554   6.439  68.285  1.00  0.00    -0.123 C  
HETATM   15  O   UNL     1      -9.267   5.256  68.163  1.00  0.00    -0.109 OA 
BRANCH  14  16
HETATM   16  O   UNL     1      -9.099   7.450  67.509  1.00  0.00    -0.125 OA 
BRANCH  16  17
HETATM   17  C   UNL     1     -10.100   8.127  66.734  1.00  0.00    -0.295 C  
BRANCH  17  18
HETATM   18  C   UNL     1      -9.573   9.555  66.514  1.00  0.00    -0.201 C  
BRANCH  18  19
HETATM   19  N   UNL     1      -9.944  10.584  67.508  1.00  0.00    -0.168 NA 
BRANCH  19  20
HETATM   20  C   UNL     1     -11.320  10.320  67.966  1.00  0.00    -0.146 C  
HETATM   21  C   UNL     1     -11.643  10.882  69.344  1.00  0.00    -0.387 C  
ENDBRANCH  19  20
BRANCH  19  22
HETATM   22  C   UNL     1      -9.713  11.954  67.035  1.00  0.00    -0.194 C  
HETATM   23  C   UNL     1      -8.939  12.874  67.975  1.00  0.00    -0.196 C  
ENDBRANCH  19  22
ENDBRANCH  18  19
ENDBRANCH  17  18
ENDBRANCH  16  17
ENDBRANCH  14  16
ENDBRANCH  13  14
ENDBRANCH   4   5
ENDBRANCH   3   4
ENDBRANCH   2   3
TORSDOF 10
ENDMDL
MODEL      223
REMARK 921   NORMALIZED FREE ENERGY PREDICTED BY IDOCK:   -3.24 KCAL/MOL
REMARK 922        TOTAL FREE ENERGY PREDICTED BY IDOCK:   -6.19 KCAL/MOL
REMARK 923 INTER-LIGAND FREE ENERGY PREDICTED BY IDOCK:   -5.67 KCAL/MOL
REMARK 924 INTRA-LIGAND FREE ENERGY PREDICTED BY IDOCK:   -0.51 KCAL/MOL
REMARK 927      BINDING AFFINITY PREDICTED BY RF-SCORE:    0.00 PKD
ROOT
HETATM    1  C   UNL     1      -9.964   7.151  68.280  1.00  0.00    -0.171 C  
HETATM    2  C   UNL     1      -9.161   8.441  68.191  1.00  0.00    -0.141 C  
ENDROOT
BRANCH   2   3
HETATM    3  C   UNL     1     -10.034   9.585  67.690  1.00  0.00    -0.180 C  
BRANCH   3   4
HETATM    4  O   UNL     1      -9.214  10.584  67.080  1.00  0.00    -0.149 OA 
BRANCH   4   5
HETATM    5  C   UNL     1      -9.500  10.908  65.776  1.00  0.00    -0.211 A  
HETATM    6  C   UNL     1      -9.353  10.006  64.709  1.00  0.00    -0.330 A  
HETATM    7  C   UNL     1      -9.613  10.375  63.385  1.00  0.00    -0.312 A  
HETATM    8  C   UNL     1     -10.158  11.629  63.135  1.00  0.00    -0.409 A  
HETATM    9  N   UNL     1      -9.538   9.420  62.366  1.00  0.00    -0.516 NA 
HETATM   10  H1  UNL     1      -9.728   9.689  61.400  1.00  0.00     0.000 HD 
HETATM   11  C   UNL     1     -10.323  12.543  64.174  1.00  0.00    -0.416 A  
HETATM   12  H2  UNL     1     -10.148   8.640  62.609  1.00  0.00     0.000 HD 
HETATM   13  C   UNL     1      -9.977  12.200  65.491  1.00  0.00    -0.269 A  
BRANCH  13  14
HETATM   14  C   UNL     1     -10.066  13.312  66.477  1.00  0.00    -0.275 C  
HETATM   15  O   UNL     1      -9.761  13.189  67.655  1.00  0.00    -0.203 OA 
BRANCH  14  16
HETATM   16  O   UNL     1     -10.770  14.337  65.943  1.00  0.00    -0.291 OA 
BRANCH  16  17
HETATM   17  C   UNL     1     -10.040  15.563  65.784  1.00  0.00    -0.360 C  
BRANCH  17  18
HETATM   18  C   UNL     1     -10.634  16.546  66.809  1.00  0.00    -0.224 C  
BRANCH  18  19
HETATM   19  N   UNL     1      -9.812  16.885  67.989  1.00  0.00    -0.257 NA 
BRANCH  19  20
HETATM   20  C   UNL     1      -8.436  16.410  67.756  1.00  0.00    -0.167 C  
HETATM   21  C   UNL     1      -7.419  16.904  68.776  1.00  0.00    -0.237 C  
ENDBRANCH  19  20
BRANCH  19  22
HETATM   22  C   UNL     1     -10.404  16.435  69.254  1.00  0.00    -0.292 C  
HETATM   23  C   UNL     1     -11.890  16.088  69.222  1.00  0.00    -0.264 C  
ENDBRANCH  19  22
ENDBRANCH  18  19
ENDBRANCH  17  18
ENDBRANCH  16  17
ENDBRANCH  14  16
ENDBRANCH  13  14
ENDBRANCH   4   5
ENDBRANCH   3   4
ENDBRANCH   2   3
TORSDOF 10
ENDMDL
MODEL      224
REMARK 921   NORMALIZED FREE ENERGY PREDICTED BY IDOCK:   -3.24 KCAL/MOL
REMARK 922        TOTAL FREE ENERGY PREDICTED BY IDOCK:   -6.18 KCAL/MOL
REMARK 923 INTER-LIGAND FREE ENERGY PREDICTED BY IDOCK:   -5.41 KCAL/MOL
REMARK 924 INTRA-LIGAND FREE ENERGY PREDICTED BY IDOCK:   -0.77 KCAL/MOL
REMARK 927      BINDING AFFINITY PREDICTED BY RF-SCORE:    0.00 PKD
ROOT
HETATM    1  C   UNL     1     -12.081  13.839  67.534  1.00  0.00    -0.366 C  
HETATM    2  C   UNL     1     -11.754  12.356  67.637  1.00  0.00    -0.412 C  
ENDROOT
BRANCH   2   3
HETATM    3  C   UNL     1     -11.332  11.995  69.055  1.00  0.00    -0.275 C  
BRANCH   3   4
HETATM    4  O   UNL     1     -10.944  10.621  69.106  1.00  0.00    -0.213 OA 
BRANCH   4   5
HETATM    5  C   UNL     1     -11.262   9.929  70.250  1.00  0.00    -0.301 A  
HETATM    6  C   UNL     1     -12.526   9.991  70.860  1.00  0.00    -0.431 A  
HETATM    7  C   UNL     1     -12.811   9.308  72.047  1.00  0.00    -0.415 A  
HETATM    8  C   UNL     1     -11.856   8.439  72.564  1.00  0.00    -0.427 A  
HETATM    9  N   UNL     1     -14.108   9.327  72.570  1.00  0.00    -0.702 NA 
HETATM   10  H1  UNL     1     -14.315   8.828  73.435  1.00  0.00     0.000 HD 
HETATM   11  C   UNL     1     -10.596   8.351  71.976  1.00  0.00    -0.387 A  
HETATM   12  H2  UNL     1     -14.752   9.002  71.849  1.00  0.00     0.000 HD 
HETATM   13  C   UNL     1     -10.282   9.107  70.835  1.00  0.00    -0.351 A  
BRANCH  13  14
HETATM   14  C   UNL     1      -8.862   9.029  70.396  1.00  0.00    -0.200 C  
HETATM   15  O   UNL     1      -7.945   9.572  70.997  1.00  0.00    -0.321 OA 
BRANCH  14  16
HETATM   16  O   UNL     1      -8.801   8.527  69.141  1.00  0.00    -0.140 OA 
BRANCH  16  17
HETATM   17  C   UNL     1      -9.184   7.149  69.013  1.00  0.00    -0.135 C  
BRANCH  17  18
HETATM   18  C   UNL     1      -8.153   6.346  69.826  1.00  0.00    -0.121 C  
BRANCH  18  19
HETATM   19  N   UNL     1      -6.839   6.087  69.201  1.00  0.00    -0.060 NA 
BRANCH  19  20
HETATM   20  C   UNL     1      -6.603   4.632  69.189  1.00  0.00    -0.044 C  
HETATM   21  C   UNL     1      -7.553   3.848  68.294  1.00  0.00    -0.066 C  
ENDBRANCH  19  20
BRANCH  19  22
HETATM   22  C   UNL     1      -5.752   6.874  69.795  1.00  0.00    -0.019 C  
HETATM   23  C   UNL     1      -5.305   8.107  69.015  1.00  0.00    -0.027 C  
ENDBRANCH  19  22
ENDBRANCH  18  19
ENDBRANCH  17  18
ENDBRANCH  16  17
ENDBRANCH  14  16
ENDBRANCH  13  14
ENDBRANCH   4   5
ENDBRANCH   3   4
ENDBRANCH   2   3
TORSDOF 10
ENDMDL
MODEL      225
REMARK 921   NORMALIZED FREE ENERGY PREDICTED BY IDOCK:   -3.23 KCAL/MOL
REMARK 922        TOTAL FREE ENERGY PREDICTED BY IDOCK:   -6.17 KCAL/MOL
REMARK 923 INTER-LIGAND FREE ENERGY PREDICTED BY IDOCK:   -5.06 KCAL/MOL
REMARK 924 INTRA-LIGAND FREE ENERGY PREDICTED BY IDOCK:   -1.11 KCAL/MOL
REMARK 927      BINDING AFFINITY PREDICTED BY RF-SCORE:    0.00 PKD
ROOT
HETATM    1  C   UNL     1      -9.378  12.313  68.070  1.00  0.00    -0.195 C  
HETATM    2  C   UNL     1     -10.042  11.263  67.190  1.00  0.00    -0.223 C  
ENDROOT
BRANCH   2   3
HETATM    3  C   UNL     1     -10.875  10.303  68.032  1.00  0.00    -0.275 C  
BRANCH   3   4
HETATM    4  O   UNL     1     -10.376  10.281  69.371  1.00  0.00    -0.208 OA 
BRANCH   4   5
HETATM    5  C   UNL     1     -11.291  10.049  70.369  1.00  0.00    -0.320 A  
HETATM    6  C   UNL     1     -12.128  11.049  70.893  1.00  0.00    -0.444 A  
HETATM    7  C   UNL     1     -13.023  10.794  71.937  1.00  0.00    -0.419 A  
HETATM    8  C   UNL     1     -13.182   9.484  72.377  1.00  0.00    -0.451 A  
HETATM    9  N   UNL     1     -13.898  11.797  72.368  1.00  0.00    -0.245 NA 
HETATM   10  H1  UNL     1     -14.551  11.610  73.129  1.00  0.00     0.000 HD 
HETATM   11  C   UNL     1     -12.372   8.470  71.870  1.00  0.00    -0.407 A  
HETATM   12  H2  UNL     1     -14.428  12.130  71.563  1.00  0.00     0.000 HD 
HETATM   13  C   UNL     1     -11.411   8.746  70.884  1.00  0.00    -0.322 A  
BRANCH  13  14
HETATM   14  C   UNL     1     -10.518   7.606  70.536  1.00  0.00    -0.220 C  
HETATM   15  O   UNL     1      -9.358   7.524  70.916  1.00  0.00    -0.154 OA 
BRANCH  14  16
HETATM   16  O   UNL     1     -11.086   6.868  69.554  1.00  0.00    -0.252 OA 
BRANCH  16  17
HETATM   17  C   UNL     1     -10.734   5.476  69.553  1.00  0.00    -0.262 C  
BRANCH  17  18
HETATM   18  C   UNL     1      -9.959   5.236  68.245  1.00  0.00    -0.156 C  
BRANCH  18  19
HETATM   19  N   UNL     1      -8.485   5.182  68.321  1.00  0.00    -0.096 NA 
BRANCH  19  20
HETATM   20  C   UNL     1      -7.933   6.303  67.539  1.00  0.00    -0.109 C  
HETATM   21  C   UNL     1      -8.969   7.087  66.745  1.00  0.00    -0.145 C  
ENDBRANCH  19  20
BRANCH  19  22
HETATM   22  C   UNL     1      -7.935   3.867  67.971  1.00  0.00    -0.080 C  
HETATM   23  C   UNL     1      -7.562   3.657  66.507  1.00  0.00    -0.080 C  
ENDBRANCH  19  22
ENDBRANCH  18  19
ENDBRANCH  17  18
ENDBRANCH  16  17
ENDBRANCH  14  16
ENDBRANCH  13  14
ENDBRANCH   4   5
ENDBRANCH   3   4
ENDBRANCH   2   3
TORSDOF 10
ENDMDL
MODEL      226
REMARK 921   NORMALIZED FREE ENERGY PREDICTED BY IDOCK:   -3.23 KCAL/MOL
REMARK 922        TOTAL FREE ENERGY PREDICTED BY IDOCK:   -6.17 KCAL/MOL
REMARK 923 INTER-LIGAND FREE ENERGY PREDICTED BY IDOCK:   -5.55 KCAL/MOL
REMARK 924 INTRA-LIGAND FREE ENERGY PREDICTED BY IDOCK:   -0.62 KCAL/MOL
REMARK 927      BINDING AFFINITY PREDICTED BY RF-SCORE:    0.00 PKD
ROOT
HETATM    1  C   UNL     1      -5.433  18.858  70.367  1.00  0.00    -0.237 C  
HETATM    2  C   UNL     1      -5.301  17.438  69.834  1.00  0.00    -0.213 C  
ENDROOT
BRANCH   2   3
HETATM    3  C   UNL     1      -6.174  17.241  68.601  1.00  0.00    -0.169 C  
BRANCH   3   4
HETATM    4  O   UNL     1      -7.486  17.747  68.856  1.00  0.00    -0.275 OA 
BRANCH   4   5
HETATM    5  C   UNL     1      -7.988  18.651  67.951  1.00  0.00    -0.259 A  
HETATM    6  C   UNL     1      -7.182  19.359  67.044  1.00  0.00    -0.225 A  
HETATM    7  C   UNL     1      -7.715  20.304  66.160  1.00  0.00    -0.188 A  
HETATM    8  C   UNL     1      -9.097  20.447  66.088  1.00  0.00    -0.122 A  
HETATM    9  N   UNL     1      -6.889  20.920  65.215  1.00  0.00    -0.527 NA 
HETATM   10  H1  UNL     1      -7.278  21.609  64.570  1.00  0.00     0.000 HD 
HETATM   11  C   UNL     1      -9.922  19.752  66.969  1.00  0.00    -0.532 A  
HETATM   12  H2  UNL     1      -6.425  20.195  64.670  1.00  0.00     0.000 HD 
HETATM   13  C   UNL     1      -9.377  18.870  67.917  1.00  0.00    -0.338 A  
BRANCH  13  14
HETATM   14  C   UNL     1     -10.353  18.305  68.888  1.00  0.00    -0.166 C  
HETATM   15  O   UNL     1     -10.394  18.636  70.066  1.00  0.00     0.589 OA 
BRANCH  14  16
HETATM   16  O   UNL     1     -10.958  17.223  68.347  1.00  0.00    -0.312 OA 
BRANCH  16  17
HETATM   17  C   UNL     1     -10.243  15.986  68.490  1.00  0.00    -0.236 C  
BRANCH  17  18
HETATM   18  C   UNL     1     -10.460  15.538  69.946  1.00  0.00    -0.313 C  
BRANCH  18  19
HETATM   19  N   UNL     1     -11.837  15.581  70.480  1.00  0.00    -0.324 NA 
BRANCH  19  20
HETATM   20  C   UNL     1     -11.771  15.813  71.934  1.00  0.00    -0.483 C  
HETATM   21  C   UNL     1     -13.111  15.708  72.650  1.00  0.00    -0.572 C  
ENDBRANCH  19  20
BRANCH  19  22
HETATM   22  C   UNL     1     -12.646  14.422  70.085  1.00  0.00    -0.286 C  
HETATM   23  C   UNL     1     -12.004  13.051  70.276  1.00  0.00    -0.360 C  
ENDBRANCH  19  22
ENDBRANCH  18  19
ENDBRANCH  17  18
ENDBRANCH  16  17
ENDBRANCH  14  16
ENDBRANCH  13  14
ENDBRANCH   4   5
ENDBRANCH   3   4
ENDBRANCH   2   3
TORSDOF 10
ENDMDL
MODEL      227
REMARK 921   NORMALIZED FREE ENERGY PREDICTED BY IDOCK:   -3.22 KCAL/MOL
REMARK 922        TOTAL FREE ENERGY PREDICTED BY IDOCK:   -6.15 KCAL/MOL
REMARK 923 INTER-LIGAND FREE ENERGY PREDICTED BY IDOCK:   -5.12 KCAL/MOL
REMARK 924 INTRA-LIGAND FREE ENERGY PREDICTED BY IDOCK:   -1.03 KCAL/MOL
REMARK 927      BINDING AFFINITY PREDICTED BY RF-SCORE:    0.00 PKD
ROOT
HETATM    1  C   UNL     1      -5.448  10.228  68.439  1.00  0.00    -0.038 C  
HETATM    2  C   UNL     1      -6.387  10.775  69.505  1.00  0.00    -0.079 C  
ENDROOT
BRANCH   2   3
HETATM    3  C   UNL     1      -7.367  11.772  68.899  1.00  0.00    -0.093 C  
BRANCH   3   4
HETATM    4  O   UNL     1      -8.656  11.167  68.779  1.00  0.00    -0.160 OA 
BRANCH   4   5
HETATM    5  C   UNL     1      -9.158  11.025  67.508  1.00  0.00    -0.137 A  
HETATM    6  C   UNL     1      -9.400  12.111  66.650  1.00  0.00    -0.226 A  
HETATM    7  C   UNL     1      -9.949  11.940  65.375  1.00  0.00    -0.252 A  
HETATM    8  C   UNL     1     -10.137  10.648  64.895  1.00  0.00    -0.402 A  
HETATM    9  N   UNL     1     -10.090  13.040  64.522  1.00  0.00    -0.592 NA 
HETATM   10  H1  UNL     1     -10.490  12.915  63.592  1.00  0.00     0.000 HD 
HETATM   11  C   UNL     1      -9.899   9.551  65.720  1.00  0.00    -0.363 A  
HETATM   12  H2  UNL     1      -9.181  13.490  64.424  1.00  0.00     0.000 HD 
HETATM   13  C   UNL     1      -9.432   9.729  67.033  1.00  0.00    -0.195 A  
BRANCH  13  14
HETATM   14  C   UNL     1      -9.358   8.488  67.850  1.00  0.00    -0.135 C  
HETATM   15  O   UNL     1      -8.305   7.928  68.124  1.00  0.00    -0.122 OA 
BRANCH  14  16
HETATM   16  O   UNL     1     -10.596   7.960  67.988  1.00  0.00    -0.200 OA 
BRANCH  16  17
HETATM   17  C   UNL     1     -10.824   7.245  69.212  1.00  0.00    -0.159 C  
BRANCH  17  18
HETATM   18  C   UNL     1     -10.901   8.313  70.318  1.00  0.00    -0.240 C  
BRANCH  18  19
HETATM   19  N   UNL     1     -11.716   8.006  71.512  1.00  0.00    -0.274 NA 
BRANCH  19  20
HETATM   20  C   UNL     1     -12.893   8.893  71.519  1.00  0.00    -0.334 C  
HETATM   21  C   UNL     1     -12.609  10.318  71.063  1.00  0.00    -0.487 C  
ENDBRANCH  19  20
BRANCH  19  22
HETATM   22  C   UNL     1     -10.940   8.014  72.758  1.00  0.00    -0.382 C  
HETATM   23  C   UNL     1     -10.207   6.723  73.109  1.00  0.00    -0.253 C  
ENDBRANCH  19  22
ENDBRANCH  18  19
ENDBRANCH  17  18
ENDBRANCH  16  17
ENDBRANCH  14  16
ENDBRANCH  13  14
ENDBRANCH   4   5
ENDBRANCH   3   4
ENDBRANCH   2   3
TORSDOF 10
ENDMDL
MODEL      228
REMARK 921   NORMALIZED FREE ENERGY PREDICTED BY IDOCK:   -3.21 KCAL/MOL
REMARK 922        TOTAL FREE ENERGY PREDICTED BY IDOCK:   -6.14 KCAL/MOL
REMARK 923 INTER-LIGAND FREE ENERGY PREDICTED BY IDOCK:   -5.49 KCAL/MOL
REMARK 924 INTRA-LIGAND FREE ENERGY PREDICTED BY IDOCK:   -0.65 KCAL/MOL
REMARK 927      BINDING AFFINITY PREDICTED BY RF-SCORE:    0.00 PKD
ROOT
HETATM    1  C   UNL     1     -12.657  14.757  70.464  1.00  0.00    -0.416 C  
HETATM    2  C   UNL     1     -11.751  15.799  71.105  1.00  0.00    -0.476 C  
ENDROOT
BRANCH   2   3
HETATM    3  C   UNL     1     -10.751  16.341  70.091  1.00  0.00    -0.246 C  
BRANCH   3   4
HETATM    4  O   UNL     1     -10.484  15.346  69.101  1.00  0.00    -0.216 OA 
BRANCH   4   5
HETATM    5  C   UNL     1     -10.487  15.759  67.790  1.00  0.00    -0.283 A  
HETATM    6  C   UNL     1     -10.343  17.103  67.407  1.00  0.00    -0.333 A  
HETATM    7  C   UNL     1     -10.390  17.501  66.067  1.00  0.00    -0.306 A  
HETATM    8  C   UNL     1     -10.448  16.522  65.081  1.00  0.00    -0.169 A  
HETATM    9  N   UNL     1     -10.153  18.837  65.726  1.00  0.00    -0.508 NA 
HETATM   10  H1  UNL     1     -10.187  19.127  64.749  1.00  0.00     0.000 HD 
HETATM   11  C   UNL     1     -10.583  15.181  65.430  1.00  0.00    -0.410 A  
HETATM   12  H2  UNL     1      -9.252  19.114  66.114  1.00  0.00     0.000 HD 
HETATM   13  C   UNL     1     -10.626  14.792  66.779  1.00  0.00    -0.302 A  
BRANCH  13  14
HETATM   14  C   UNL     1     -10.918  13.351  67.012  1.00  0.00    -0.287 C  
HETATM   15  O   UNL     1     -11.934  12.954  67.565  1.00  0.00    -0.359 OA 
BRANCH  14  16
HETATM   16  O   UNL     1      -9.804  12.618  66.779  1.00  0.00    -0.224 OA 
BRANCH  16  17
HETATM   17  C   UNL     1      -8.686  12.916  67.629  1.00  0.00    -0.185 C  
BRANCH  17  18
HETATM   18  C   UNL     1      -7.552  11.978  67.183  1.00  0.00    -0.146 C  
BRANCH  18  19
HETATM   19  N   UNL     1      -7.771  10.523  67.321  1.00  0.00    -0.105 NA 
BRANCH  19  20
HETATM   20  C   UNL     1      -6.750   9.979  68.235  1.00  0.00    -0.055 C  
HETATM   21  C   UNL     1      -6.674   8.458  68.259  1.00  0.00    -0.065 C  
ENDBRANCH  19  20
BRANCH  19  22
HETATM   22  C   UNL     1      -7.866   9.828  66.032  1.00  0.00    -0.107 C  
HETATM   23  C   UNL     1      -9.245   9.298  65.648  1.00  0.00    -0.291 C  
ENDBRANCH  19  22
ENDBRANCH  18  19
ENDBRANCH  17  18
ENDBRANCH  16  17
ENDBRANCH  14  16
ENDBRANCH  13  14
ENDBRANCH   4   5
ENDBRANCH   3   4
ENDBRANCH   2   3
TORSDOF 10
ENDMDL
MODEL      229
REMARK 921   NORMALIZED FREE ENERGY PREDICTED BY IDOCK:   -3.20 KCAL/MOL
REMARK 922        TOTAL FREE ENERGY PREDICTED BY IDOCK:   -6.13 KCAL/MOL
REMARK 923 INTER-LIGAND FREE ENERGY PREDICTED BY IDOCK:   -5.64 KCAL/MOL
REMARK 924 INTRA-LIGAND FREE ENERGY PREDICTED BY IDOCK:   -0.49 KCAL/MOL
REMARK 927      BINDING AFFINITY PREDICTED BY RF-SCORE:    0.00 PKD
ROOT
HETATM    1  C   UNL     1      -6.370  10.199  68.926  1.00  0.00    -0.044 C  
HETATM    2  C   UNL     1      -7.384  10.234  70.062  1.00  0.00    -0.157 C  
ENDROOT
BRANCH   2   3
HETATM    3  C   UNL     1      -8.628   9.434  69.698  1.00  0.00    -0.168 C  
BRANCH   3   4
HETATM    4  O   UNL     1      -9.782  10.055  70.268  1.00  0.00    -0.212 OA 
BRANCH   4   5
HETATM    5  C   UNL     1     -10.780   9.220  70.710  1.00  0.00    -0.284 A  
HETATM    6  C   UNL     1     -10.620   7.830  70.836  1.00  0.00    -0.220 A  
HETATM    7  C   UNL     1     -11.666   6.998  71.250  1.00  0.00    -0.317 A  
HETATM    8  C   UNL     1     -12.855   7.580  71.676  1.00  0.00    -0.392 A  
HETATM    9  N   UNL     1     -11.437   5.632  71.446  1.00  0.00    -0.034 NA 
HETATM   10  H1  UNL     1     -12.199   5.026  71.748  1.00  0.00     0.000 HD 
HETATM   11  C   UNL     1     -13.040   8.957  71.571  1.00  0.00    -0.376 A  
HETATM   12  H2  UNL     1     -10.662   5.525  72.099  1.00  0.00     0.000 HD 
HETATM   13  C   UNL     1     -12.019   9.781  71.069  1.00  0.00    -0.440 A  
BRANCH  13  14
HETATM   14  C   UNL     1     -12.397  11.208  70.875  1.00  0.00    -0.399 C  
HETATM   15  O   UNL     1     -13.073  11.837  71.677  1.00  0.00    -0.441 OA 
BRANCH  14  16
HETATM   16  O   UNL     1     -12.124  11.581  69.603  1.00  0.00    -0.309 OA 
BRANCH  16  17
HETATM   17  C   UNL     1     -11.884  12.984  69.415  1.00  0.00    -0.322 C  
BRANCH  17  18
HETATM   18  C   UNL     1     -10.777  13.086  68.351  1.00  0.00    -0.256 C  
BRANCH  18  19
HETATM   19  N   UNL     1     -10.217  14.424  68.071  1.00  0.00    -0.225 NA 
BRANCH  19  20
HETATM   20  C   UNL     1      -9.356  14.333  66.878  1.00  0.00    -0.257 C  
HETATM   21  C   UNL     1     -10.103  14.424  65.554  1.00  0.00    -0.382 C  
ENDBRANCH  19  20
BRANCH  19  22
HETATM   22  C   UNL     1      -9.573  15.038  69.239  1.00  0.00    -0.180 C  
HETATM   23  C   UNL     1      -8.082  15.334  69.113  1.00  0.00    -0.228 C  
ENDBRANCH  19  22
ENDBRANCH  18  19
ENDBRANCH  17  18
ENDBRANCH  16  17
ENDBRANCH  14  16
ENDBRANCH  13  14
ENDBRANCH   4   5
ENDBRANCH   3   4
ENDBRANCH   2   3
TORSDOF 10
ENDMDL
MODEL      230
REMARK 921   NORMALIZED FREE ENERGY PREDICTED BY IDOCK:   -3.20 KCAL/MOL
REMARK 922        TOTAL FREE ENERGY PREDICTED BY IDOCK:   -6.12 KCAL/MOL
REMARK 923 INTER-LIGAND FREE ENERGY PREDICTED BY IDOCK:   -5.48 KCAL/MOL
REMARK 924 INTRA-LIGAND FREE ENERGY PREDICTED BY IDOCK:   -0.64 KCAL/MOL
REMARK 927      BINDING AFFINITY PREDICTED BY RF-SCORE:    0.00 PKD
ROOT
HETATM    1  C   UNL     1     -10.934   5.575  73.028  1.00  0.00    -0.336 C  
HETATM    2  C   UNL     1     -10.611   6.828  72.226  1.00  0.00    -0.241 C  
ENDROOT
BRANCH   2   3
HETATM    3  C   UNL     1     -11.525   7.977  72.633  1.00  0.00    -0.402 C  
BRANCH   3   4
HETATM    4  O   UNL     1     -12.273   8.421  71.498  1.00  0.00    -0.286 OA 
BRANCH   4   5
HETATM    5  C   UNL     1     -12.310   9.775  71.272  1.00  0.00    -0.371 A  
HETATM    6  C   UNL     1     -13.152  10.650  71.979  1.00  0.00    -0.501 A  
HETATM    7  C   UNL     1     -13.199  12.020  71.701  1.00  0.00    -0.260 A  
HETATM    8  C   UNL     1     -12.290  12.549  70.790  1.00  0.00    -0.376 A  
HETATM    9  N   UNL     1     -13.986  12.867  72.488  1.00  0.00    -0.668 NA 
HETATM   10  H1  UNL     1     -14.019  13.866  72.285  1.00  0.00     0.000 HD 
HETATM   11  C   UNL     1     -11.437  11.707  70.080  1.00  0.00    -0.266 A  
HETATM   12  H2  UNL     1     -13.715  12.745  73.463  1.00  0.00     0.000 HD 
HETATM   13  C   UNL     1     -11.455  10.320  70.297  1.00  0.00    -0.395 A  
BRANCH  13  14
HETATM   14  C   UNL     1     -10.601   9.525  69.373  1.00  0.00    -0.219 C  
HETATM   15  O   UNL     1     -10.909   8.414  68.964  1.00  0.00    -0.133 OA 
BRANCH  14  16
HETATM   16  O   UNL     1      -9.371  10.085  69.297  1.00  0.00    -0.188 OA 
BRANCH  16  17
HETATM   17  C   UNL     1      -8.302   9.175  68.992  1.00  0.00    -0.127 C  
BRANCH  17  18
HETATM   18  C   UNL     1      -7.739   9.624  67.632  1.00  0.00    -0.095 C  
BRANCH  18  19
HETATM   19  N   UNL     1      -7.696   8.624  66.545  1.00  0.00    -0.094 NA 
BRANCH  19  20
HETATM   20  C   UNL     1      -6.307   8.513  66.064  1.00  0.00    -0.053 C  
HETATM   21  C   UNL     1      -5.292   8.166  67.145  1.00  0.00    -0.036 C  
ENDBRANCH  19  20
BRANCH  19  22
HETATM   22  C   UNL     1      -8.686   8.872  65.491  1.00  0.00    -0.183 C  
HETATM   23  C   UNL     1      -9.361  10.241  65.504  1.00  0.00    -0.250 C  
ENDBRANCH  19  22
ENDBRANCH  18  19
ENDBRANCH  17  18
ENDBRANCH  16  17
ENDBRANCH  14  16
ENDBRANCH  13  14
ENDBRANCH   4   5
ENDBRANCH   3   4
ENDBRANCH   2   3
TORSDOF 10
ENDMDL
MODEL      231
REMARK 921   NORMALIZED FREE ENERGY PREDICTED BY IDOCK:   -3.18 KCAL/MOL
REMARK 922        TOTAL FREE ENERGY PREDICTED BY IDOCK:   -6.10 KCAL/MOL
REMARK 923 INTER-LIGAND FREE ENERGY PREDICTED BY IDOCK:   -5.40 KCAL/MOL
REMARK 924 INTRA-LIGAND FREE ENERGY PREDICTED BY IDOCK:   -0.70 KCAL/MOL
REMARK 927      BINDING AFFINITY PREDICTED BY RF-SCORE:    0.00 PKD
ROOT
HETATM    1  C   UNL     1     -12.074  10.761  70.807  1.00  0.00    -0.473 C  
HETATM    2  C   UNL     1     -11.200   9.570  71.176  1.00  0.00    -0.446 C  
ENDROOT
BRANCH   2   3
HETATM    3  C   UNL     1     -10.316   9.168  70.002  1.00  0.00    -0.207 C  
BRANCH   3   4
HETATM    4  O   UNL     1     -11.119   8.994  68.833  1.00  0.00    -0.021 OA 
BRANCH   4   5
HETATM    5  C   UNL     1     -10.484   9.120  67.621  1.00  0.00    -0.261 A  
HETATM    6  C   UNL     1      -9.915   8.035  66.934  1.00  0.00    -0.338 A  
HETATM    7  C   UNL     1      -9.239   8.198  65.720  1.00  0.00    -0.034 A  
HETATM    8  C   UNL     1      -9.246   9.449  65.114  1.00  0.00    -0.287 A  
HETATM    9  N   UNL     1      -8.766   7.078  65.028  1.00  0.00    -0.357 NA 
HETATM   10  H1  UNL     1      -8.273   7.197  64.143  1.00  0.00     0.000 HD 
HETATM   11  C   UNL     1      -9.810  10.543  65.767  1.00  0.00    -0.295 A  
HETATM   12  H2  UNL     1      -9.545   6.438  64.880  1.00  0.00     0.000 HD 
HETATM   13  C   UNL     1     -10.410  10.394  67.028  1.00  0.00    -0.295 A  
BRANCH  13  14
HETATM   14  C   UNL     1     -10.841  11.662  67.676  1.00  0.00    -0.225 C  
HETATM   15  O   UNL     1     -11.918  12.197  67.450  1.00  0.00    -0.563 OA 
BRANCH  14  16
HETATM   16  O   UNL     1      -9.786  12.236  68.300  1.00  0.00    -0.214 OA 
BRANCH  16  17
HETATM   17  C   UNL     1      -9.803  13.671  68.339  1.00  0.00    -0.223 C  
BRANCH  17  18
HETATM   18  C   UNL     1      -8.637  14.133  67.447  1.00  0.00    -0.210 C  
BRANCH  18  19
HETATM   19  N   UNL     1      -7.901  15.347  67.855  1.00  0.00    -0.127 NA 
BRANCH  19  20
HETATM   20  C   UNL     1      -8.589  16.524  67.294  1.00  0.00    -0.184 C  
HETATM   21  C   UNL     1      -9.392  16.241  66.031  1.00  0.00    -0.361 C  
ENDBRANCH  19  20
BRANCH  19  22
HETATM   22  C   UNL     1      -6.466  15.282  67.557  1.00  0.00    -0.129 C  
HETATM   23  C   UNL     1      -5.683  16.583  67.707  1.00  0.00    -0.151 C  
ENDBRANCH  19  22
ENDBRANCH  18  19
ENDBRANCH  17  18
ENDBRANCH  16  17
ENDBRANCH  14  16
ENDBRANCH  13  14
ENDBRANCH   4   5
ENDBRANCH   3   4
ENDBRANCH   2   3
TORSDOF 10
ENDMDL
MODEL      232
REMARK 921   NORMALIZED FREE ENERGY PREDICTED BY IDOCK:   -3.18 KCAL/MOL
REMARK 922        TOTAL FREE ENERGY PREDICTED BY IDOCK:   -6.09 KCAL/MOL
REMARK 923 INTER-LIGAND FREE ENERGY PREDICTED BY IDOCK:   -5.12 KCAL/MOL
REMARK 924 INTRA-LIGAND FREE ENERGY PREDICTED BY IDOCK:   -0.97 KCAL/MOL
REMARK 927      BINDING AFFINITY PREDICTED BY RF-SCORE:    0.00 PKD
ROOT
HETATM    1  C   UNL     1      -9.750   5.591  69.244  1.00  0.00    -0.214 C  
HETATM    2  C   UNL     1      -9.763   5.830  67.741  1.00  0.00    -0.130 C  
ENDROOT
BRANCH   2   3
HETATM    3  C   UNL     1     -10.836   6.845  67.366  1.00  0.00    -0.326 C  
BRANCH   3   4
HETATM    4  O   UNL     1     -10.794   7.946  68.277  1.00  0.00    -0.076 OA 
BRANCH   4   5
HETATM    5  C   UNL     1     -10.487   9.176  67.747  1.00  0.00    -0.247 A  
HETATM    6  C   UNL     1      -9.799   9.341  66.534  1.00  0.00    -0.331 A  
HETATM    7  C   UNL     1      -9.464  10.606  66.038  1.00  0.00    -0.193 A  
HETATM    8  C   UNL     1      -9.944  11.732  66.699  1.00  0.00    -0.224 A  
HETATM    9  N   UNL     1      -8.857  10.726  64.784  1.00  0.00    -0.269 NA 
HETATM   10  H1  UNL     1      -8.614  11.648  64.422  1.00  0.00     0.000 HD 
HETATM   11  C   UNL     1     -10.637  11.599  67.900  1.00  0.00    -0.225 A  
HETATM   12  H2  UNL     1      -9.442  10.254  64.095  1.00  0.00     0.000 HD 
HETATM   13  C   UNL     1     -10.893  10.329  68.443  1.00  0.00    -0.288 A  
BRANCH  13  14
HETATM   14  C   UNL     1     -11.512  10.335  69.797  1.00  0.00    -0.256 C  
HETATM   15  O   UNL     1     -12.668  10.680  70.004  1.00  0.00    -0.278 OA 
BRANCH  14  16
HETATM   16  O   UNL     1     -10.551  10.178  70.736  1.00  0.00    -0.241 OA 
BRANCH  16  17
HETATM   17  C   UNL     1     -10.831   9.189  71.739  1.00  0.00    -0.345 C  
BRANCH  17  18
HETATM   18  C   UNL     1      -9.610   8.251  71.761  1.00  0.00    -0.209 C  
BRANCH  18  19
HETATM   19  N   UNL     1      -9.442   7.373  72.937  1.00  0.00    -0.156 NA 
BRANCH  19  20
HETATM   20  C   UNL     1     -10.777   6.994  73.436  1.00  0.00    -0.345 C  
HETATM   21  C   UNL     1     -11.205   5.577  73.077  1.00  0.00    -0.346 C  
ENDBRANCH  19  20
BRANCH  19  22
HETATM   22  C   UNL     1      -8.550   7.937  73.957  1.00  0.00    -0.264 C  
HETATM   23  C   UNL     1      -7.134   8.280  73.503  1.00  0.00    -0.158 C  
ENDBRANCH  19  22
ENDBRANCH  18  19
ENDBRANCH  17  18
ENDBRANCH  16  17
ENDBRANCH  14  16
ENDBRANCH  13  14
ENDBRANCH   4   5
ENDBRANCH   3   4
ENDBRANCH   2   3
TORSDOF 10
ENDMDL
MODEL      233
REMARK 921   NORMALIZED FREE ENERGY PREDICTED BY IDOCK:   -3.17 KCAL/MOL
REMARK 922        TOTAL FREE ENERGY PREDICTED BY IDOCK:   -6.07 KCAL/MOL
REMARK 923 INTER-LIGAND FREE ENERGY PREDICTED BY IDOCK:   -5.12 KCAL/MOL
REMARK 924 INTRA-LIGAND FREE ENERGY PREDICTED BY IDOCK:   -0.95 KCAL/MOL
REMARK 927      BINDING AFFINITY PREDICTED BY RF-SCORE:    0.00 PKD
ROOT
HETATM    1  C   UNL     1      -7.974   4.401  66.166  1.00  0.00    -0.099 C  
HETATM    2  C   UNL     1      -8.935   5.293  65.393  1.00  0.00    -0.147 C  
ENDROOT
BRANCH   2   3
HETATM    3  C   UNL     1      -8.183   6.422  64.700  1.00  0.00    -0.069 C  
BRANCH   3   4
HETATM    4  O   UNL     1      -8.057   7.533  65.590  1.00  0.00    -0.113 OA 
BRANCH   4   5
HETATM    5  C   UNL     1      -8.756   8.670  65.264  1.00  0.00    -0.165 A  
HETATM    6  C   UNL     1      -8.726   9.252  63.986  1.00  0.00    -0.198 A  
HETATM    7  C   UNL     1      -9.416  10.433  63.692  1.00  0.00    -0.306 A  
HETATM    8  C   UNL     1     -10.261  10.971  64.658  1.00  0.00    -0.392 A  
HETATM    9  N   UNL     1      -9.430  10.927  62.384  1.00  0.00    -0.550 NA 
HETATM   10  H1  UNL     1      -9.934  11.788  62.171  1.00  0.00     0.000 HD 
HETATM   11  C   UNL     1     -10.318  10.411  65.932  1.00  0.00    -0.261 A  
HETATM   12  H2  UNL     1      -9.770  10.193  61.765  1.00  0.00     0.000 HD 
HETATM   13  C   UNL     1      -9.554   9.277  66.251  1.00  0.00    -0.313 A  
BRANCH  13  14
HETATM   14  C   UNL     1      -9.596   8.869  67.682  1.00  0.00    -0.148 C  
HETATM   15  O   UNL     1      -8.757   9.214  68.502  1.00  0.00    -0.128 OA 
BRANCH  14  16
HETATM   16  O   UNL     1     -10.505   7.880  67.846  1.00  0.00    -0.217 OA 
BRANCH  16  17
HETATM   17  C   UNL     1     -10.056   6.758  68.621  1.00  0.00    -0.159 C  
BRANCH  17  18
HETATM   18  C   UNL     1     -11.237   6.369  69.528  1.00  0.00    -0.412 C  
BRANCH  18  19
HETATM   19  N   UNL     1     -11.488   7.202  70.722  1.00  0.00    -0.293 NA 
BRANCH  19  20
HETATM   20  C   UNL     1     -10.448   6.911  71.726  1.00  0.00    -0.203 C  
HETATM   21  C   UNL     1     -10.431   5.469  72.214  1.00  0.00    -0.266 C  
ENDBRANCH  19  20
BRANCH  19  22
HETATM   22  C   UNL     1     -12.863   7.095  71.223  1.00  0.00    -0.349 C  
HETATM   23  C   UNL     1     -13.369   8.261  72.068  1.00  0.00    -0.336 C  
ENDBRANCH  19  22
ENDBRANCH  18  19
ENDBRANCH  17  18
ENDBRANCH  16  17
ENDBRANCH  14  16
ENDBRANCH  13  14
ENDBRANCH   4   5
ENDBRANCH   3   4
ENDBRANCH   2   3
TORSDOF 10
ENDMDL
MODEL      234
REMARK 921   NORMALIZED FREE ENERGY PREDICTED BY IDOCK:   -3.15 KCAL/MOL
REMARK 922        TOTAL FREE ENERGY PREDICTED BY IDOCK:   -6.04 KCAL/MOL
REMARK 923 INTER-LIGAND FREE ENERGY PREDICTED BY IDOCK:   -5.25 KCAL/MOL
REMARK 924 INTRA-LIGAND FREE ENERGY PREDICTED BY IDOCK:   -0.80 KCAL/MOL
REMARK 927      BINDING AFFINITY PREDICTED BY RF-SCORE:    0.00 PKD
ROOT
HETATM    1  C   UNL     1     -11.732  13.767  67.386  1.00  0.00    -0.417 C  
HETATM    2  C   UNL     1     -12.095  13.121  66.057  1.00  0.00    -0.495 C  
ENDROOT
BRANCH   2   3
HETATM    3  C   UNL     1     -11.121  11.999  65.719  1.00  0.00    -0.324 C  
BRANCH   3   4
HETATM    4  O   UNL     1     -10.887  11.200  66.881  1.00  0.00    -0.262 OA 
BRANCH   4   5
HETATM    5  C   UNL     1      -9.589  10.818  67.119  1.00  0.00    -0.161 A  
HETATM    6  C   UNL     1      -8.484  11.407  66.482  1.00  0.00    -0.170 A  
HETATM    7  C   UNL     1      -7.175  10.971  66.713  1.00  0.00    -0.139 A  
HETATM    8  C   UNL     1      -6.953  10.017  67.699  1.00  0.00    -0.085 A  
HETATM    9  N   UNL     1      -6.100  11.645  66.124  1.00  0.00    -0.479 NA 
HETATM   10  H1  UNL     1      -5.146  11.327  66.293  1.00  0.00     0.000 HD 
HETATM   11  C   UNL     1      -8.028   9.420  68.354  1.00  0.00    -0.094 A  
HETATM   12  H2  UNL     1      -6.161  12.631  66.376  1.00  0.00     0.000 HD 
HETATM   13  C   UNL     1      -9.348   9.796  68.055  1.00  0.00    -0.138 A  
BRANCH  13  14
HETATM   14  C   UNL     1     -10.403   8.982  68.718  1.00  0.00    -0.215 C  
HETATM   15  O   UNL     1     -10.689   7.844  68.370  1.00  0.00    -0.141 OA 
BRANCH  14  16
HETATM   16  O   UNL     1     -11.140   9.770  69.534  1.00  0.00    -0.232 OA 
BRANCH  16  17
HETATM   17  C   UNL     1     -10.706   9.812  70.902  1.00  0.00    -0.305 C  
BRANCH  17  18
HETATM   18  C   UNL     1     -11.523   8.735  71.639  1.00  0.00    -0.316 C  
BRANCH  18  19
HETATM   19  N   UNL     1     -10.787   7.786  72.499  1.00  0.00    -0.298 NA 
BRANCH  19  20
HETATM   20  C   UNL     1      -9.466   8.362  72.811  1.00  0.00    -0.242 C  
HETATM   21  C   UNL     1      -8.330   7.348  72.846  1.00  0.00    -0.140 C  
ENDBRANCH  19  20
BRANCH  19  22
HETATM   22  C   UNL     1     -10.743   6.425  71.953  1.00  0.00    -0.224 C  
HETATM   23  C   UNL     1     -11.316   5.321  72.837  1.00  0.00    -0.368 C  
ENDBRANCH  19  22
ENDBRANCH  18  19
ENDBRANCH  17  18
ENDBRANCH  16  17
ENDBRANCH  14  16
ENDBRANCH  13  14
ENDBRANCH   4   5
ENDBRANCH   3   4
ENDBRANCH   2   3
TORSDOF 10
ENDMDL
MODEL      235
REMARK 921   NORMALIZED FREE ENERGY PREDICTED BY IDOCK:   -3.15 KCAL/MOL
REMARK 922        TOTAL FREE ENERGY PREDICTED BY IDOCK:   -6.04 KCAL/MOL
REMARK 923 INTER-LIGAND FREE ENERGY PREDICTED BY IDOCK:   -5.35 KCAL/MOL
REMARK 924 INTRA-LIGAND FREE ENERGY PREDICTED BY IDOCK:   -0.69 KCAL/MOL
REMARK 927      BINDING AFFINITY PREDICTED BY RF-SCORE:    0.00 PKD
ROOT
HETATM    1  C   UNL     1      -6.858  14.474  69.432  1.00  0.00    -0.149 C  
HETATM    2  C   UNL     1      -6.978  15.714  68.558  1.00  0.00    -0.115 C  
ENDROOT
BRANCH   2   3
HETATM    3  C   UNL     1      -7.715  15.391  67.264  1.00  0.00    -0.213 C  
BRANCH   3   4
HETATM    4  O   UNL     1      -9.038  14.940  67.564  1.00  0.00    -0.176 OA 
BRANCH   4   5
HETATM    5  C   UNL     1      -9.806  14.523  66.504  1.00  0.00    -0.285 A  
HETATM    6  C   UNL     1     -10.405  15.409  65.593  1.00  0.00    -0.395 A  
HETATM    7  C   UNL     1     -11.216  14.959  64.546  1.00  0.00    -0.264 A  
HETATM    8  C   UNL     1     -11.321  13.591  64.323  1.00  0.00    -0.402 A  
HETATM    9  N   UNL     1     -11.719  15.870  63.611  1.00  0.00    -0.972 NA 
HETATM   10  H1  UNL     1     -12.310  15.542  62.847  1.00  0.00     0.000 HD 
HETATM   11  C   UNL     1     -10.731  12.688  65.204  1.00  0.00    -0.321 A  
HETATM   12  H2  UNL     1     -10.938  16.391  63.214  1.00  0.00     0.000 HD 
HETATM   13  C   UNL     1      -9.992  13.143  66.308  1.00  0.00    -0.285 A  
BRANCH  13  14
HETATM   14  C   UNL     1      -9.539  12.080  67.247  1.00  0.00    -0.183 C  
HETATM   15  O   UNL     1      -8.365  11.900  67.539  1.00  0.00    -0.143 OA 
BRANCH  14  16
HETATM   16  O   UNL     1     -10.556  11.218  67.481  1.00  0.00    -0.198 OA 
BRANCH  16  17
HETATM   17  C   UNL     1     -10.400  10.389  68.643  1.00  0.00    -0.184 C  
BRANCH  17  18
HETATM   18  C   UNL     1     -10.274   8.947  68.121  1.00  0.00    -0.201 C  
BRANCH  18  19
HETATM   19  N   UNL     1      -9.753   7.924  69.051  1.00  0.00    -0.159 NA 
BRANCH  19  20
HETATM   20  C   UNL     1      -8.741   7.119  68.345  1.00  0.00    -0.125 C  
HETATM   21  C   UNL     1      -7.477   6.848  69.151  1.00  0.00    -0.095 C  
ENDBRANCH  19  20
BRANCH  19  22
HETATM   22  C   UNL     1     -10.811   7.139  69.698  1.00  0.00    -0.234 C  
HETATM   23  C   UNL     1     -10.788   7.098  71.223  1.00  0.00    -0.254 C  
ENDBRANCH  19  22
ENDBRANCH  18  19
ENDBRANCH  17  18
ENDBRANCH  16  17
ENDBRANCH  14  16
ENDBRANCH  13  14
ENDBRANCH   4   5
ENDBRANCH   3   4
ENDBRANCH   2   3
TORSDOF 10
ENDMDL
MODEL      236
REMARK 921   NORMALIZED FREE ENERGY PREDICTED BY IDOCK:   -3.14 KCAL/MOL
REMARK 922        TOTAL FREE ENERGY PREDICTED BY IDOCK:   -6.04 KCAL/MOL
REMARK 923 INTER-LIGAND FREE ENERGY PREDICTED BY IDOCK:   -5.08 KCAL/MOL
REMARK 924 INTRA-LIGAND FREE ENERGY PREDICTED BY IDOCK:   -0.95 KCAL/MOL
REMARK 927      BINDING AFFINITY PREDICTED BY RF-SCORE:    0.00 PKD
ROOT
HETATM    1  C   UNL     1      -6.789   9.841  66.960  1.00  0.00    -0.083 C  
HETATM    2  C   UNL     1      -7.209  10.036  68.410  1.00  0.00    -0.073 C  
ENDROOT
BRANCH   2   3
HETATM    3  C   UNL     1      -7.985  11.336  68.576  1.00  0.00    -0.145 C  
BRANCH   3   4
HETATM    4  O   UNL     1      -9.371  11.048  68.768  1.00  0.00    -0.189 OA 
BRANCH   4   5
HETATM    5  C   UNL     1     -10.264  11.761  68.005  1.00  0.00    -0.193 A  
HETATM    6  C   UNL     1     -10.796  13.000  68.400  1.00  0.00    -0.280 A  
HETATM    7  C   UNL     1     -11.734  13.686  67.621  1.00  0.00    -0.363 A  
HETATM    8  C   UNL     1     -12.048  13.189  66.361  1.00  0.00    -0.447 A  
HETATM    9  N   UNL     1     -12.169  14.957  68.010  1.00  0.00    -0.547 NA 
HETATM   10  H1  UNL     1     -12.853  15.457  67.442  1.00  0.00     0.000 HD 
HETATM   11  C   UNL     1     -11.530  11.967  65.939  1.00  0.00    -0.340 A  
HETATM   12  H2  UNL     1     -11.352  15.554  68.132  1.00  0.00     0.000 HD 
HETATM   13  C   UNL     1     -10.657  11.236  66.761  1.00  0.00    -0.305 A  
BRANCH  13  14
HETATM   14  C   UNL     1     -10.294   9.885  66.252  1.00  0.00    -0.163 C  
HETATM   15  O   UNL     1      -9.671   9.704  65.215  1.00  0.00    -0.300 OA 
BRANCH  14  16
HETATM   16  O   UNL     1     -10.977   8.941  66.941  1.00  0.00    -0.056 OA 
BRANCH  16  17
HETATM   17  C   UNL     1     -10.312   7.675  67.071  1.00  0.00    -0.330 C  
BRANCH  17  18
HETATM   18  C   UNL     1     -10.066   7.477  68.577  1.00  0.00    -0.184 C  
BRANCH  18  19
HETATM   19  N   UNL     1     -10.317   6.135  69.142  1.00  0.00    -0.196 NA 
BRANCH  19  20
HETATM   20  C   UNL     1     -11.421   6.233  70.113  1.00  0.00    -0.382 C  
HETATM   21  C   UNL     1     -10.980   6.531  71.540  1.00  0.00    -0.298 C  
ENDBRANCH  19  20
BRANCH  19  22
HETATM   22  C   UNL     1      -9.105   5.491  69.661  1.00  0.00    -0.128 C  
HETATM   23  C   UNL     1      -8.246   4.745  68.645  1.00  0.00    -0.083 C  
ENDBRANCH  19  22
ENDBRANCH  18  19
ENDBRANCH  17  18
ENDBRANCH  16  17
ENDBRANCH  14  16
ENDBRANCH  13  14
ENDBRANCH   4   5
ENDBRANCH   3   4
ENDBRANCH   2   3
TORSDOF 10
ENDMDL
MODEL      237
REMARK 921   NORMALIZED FREE ENERGY PREDICTED BY IDOCK:   -3.13 KCAL/MOL
REMARK 922        TOTAL FREE ENERGY PREDICTED BY IDOCK:   -6.02 KCAL/MOL
REMARK 923 INTER-LIGAND FREE ENERGY PREDICTED BY IDOCK:   -5.40 KCAL/MOL
REMARK 924 INTRA-LIGAND FREE ENERGY PREDICTED BY IDOCK:   -0.63 KCAL/MOL
REMARK 927      BINDING AFFINITY PREDICTED BY RF-SCORE:    0.00 PKD
ROOT
HETATM    1  C   UNL     1      -9.840   4.596  66.907  1.00  0.00    -0.235 C  
HETATM    2  C   UNL     1     -10.297   6.037  67.087  1.00  0.00    -0.284 C  
ENDROOT
BRANCH   2   3
HETATM    3  C   UNL     1     -11.113   6.187  68.365  1.00  0.00    -0.248 C  
BRANCH   3   4
HETATM    4  O   UNL     1     -10.702   7.364  69.063  1.00  0.00    -0.209 OA 
BRANCH   4   5
HETATM    5  C   UNL     1     -10.758   7.321  70.435  1.00  0.00    -0.236 A  
HETATM    6  C   UNL     1     -10.484   6.163  71.181  1.00  0.00    -0.281 A  
HETATM    7  C   UNL     1     -10.587   6.137  72.576  1.00  0.00    -0.213 A  
HETATM    8  C   UNL     1     -10.840   7.328  73.249  1.00  0.00    -0.404 A  
HETATM    9  N   UNL     1     -10.220   4.988  73.283  1.00  0.00    -0.164 NA 
HETATM   10  H1  UNL     1     -10.295   4.970  74.300  1.00  0.00     0.000 HD 
HETATM   11  C   UNL     1     -11.108   8.494  72.537  1.00  0.00    -0.328 A  
HETATM   12  H2  UNL     1      -9.264   4.743  73.026  1.00  0.00     0.000 HD 
HETATM   13  C   UNL     1     -11.091   8.496  71.133  1.00  0.00    -0.312 A  
BRANCH  13  14
HETATM   14  C   UNL     1     -11.535   9.768  70.498  1.00  0.00    -0.300 C  
HETATM   15  O   UNL     1     -12.709  10.103  70.421  1.00  0.00    -0.238 OA 
BRANCH  14  16
HETATM   16  O   UNL     1     -10.507  10.316  69.810  1.00  0.00    -0.241 OA 
BRANCH  16  17
HETATM   17  C   UNL     1     -10.794  10.653  68.444  1.00  0.00    -0.237 C  
BRANCH  17  18
HETATM   18  C   UNL     1     -10.341  12.112  68.264  1.00  0.00    -0.212 C  
BRANCH  18  19
HETATM   19  N   UNL     1      -9.820  12.509  66.939  1.00  0.00    -0.223 NA 
BRANCH  19  20
HETATM   20  C   UNL     1      -8.365  12.716  67.048  1.00  0.00    -0.130 C  
HETATM   21  C   UNL     1      -7.926  13.451  68.307  1.00  0.00    -0.147 C  
ENDBRANCH  19  20
BRANCH  19  22
HETATM   22  C   UNL     1     -10.551  13.634  66.345  1.00  0.00    -0.284 C  
HETATM   23  C   UNL     1     -12.064  13.640  66.542  1.00  0.00    -0.469 C  
ENDBRANCH  19  22
ENDBRANCH  18  19
ENDBRANCH  17  18
ENDBRANCH  16  17
ENDBRANCH  14  16
ENDBRANCH  13  14
ENDBRANCH   4   5
ENDBRANCH   3   4
ENDBRANCH   2   3
TORSDOF 10
ENDMDL
MODEL      238
REMARK 921   NORMALIZED FREE ENERGY PREDICTED BY IDOCK:   -3.12 KCAL/MOL
REMARK 922        TOTAL FREE ENERGY PREDICTED BY IDOCK:   -6.01 KCAL/MOL
REMARK 923 INTER-LIGAND FREE ENERGY PREDICTED BY IDOCK:   -5.10 KCAL/MOL
REMARK 924 INTRA-LIGAND FREE ENERGY PREDICTED BY IDOCK:   -0.91 KCAL/MOL
REMARK 927      BINDING AFFINITY PREDICTED BY RF-SCORE:    0.00 PKD
ROOT
HETATM    1  C   UNL     1      -9.579   6.594  66.853  1.00  0.00    -0.194 C  
HETATM    2  C   UNL     1     -10.824   7.440  67.083  1.00  0.00    -0.340 C  
ENDROOT
BRANCH   2   3
HETATM    3  C   UNL     1     -10.475   8.923  67.080  1.00  0.00    -0.274 C  
BRANCH   3   4
HETATM    4  O   UNL     1     -11.077   9.561  68.209  1.00  0.00    -0.132 OA 
BRANCH   4   5
HETATM    5  C   UNL     1     -10.543   9.271  69.441  1.00  0.00    -0.223 A  
HETATM    6  C   UNL     1     -11.294   8.723  70.495  1.00  0.00    -0.255 A  
HETATM    7  C   UNL     1     -10.735   8.475  71.753  1.00  0.00    -0.303 A  
HETATM    8  C   UNL     1      -9.366   8.653  71.923  1.00  0.00    -0.357 A  
HETATM    9  N   UNL     1     -11.496   7.847  72.744  1.00  0.00    -0.504 NA 
HETATM   10  H1  UNL     1     -11.088   7.666  73.661  1.00  0.00     0.000 HD 
HETATM   11  C   UNL     1      -8.594   9.187  70.894  1.00  0.00    -0.259 A  
HETATM   12  H2  UNL     1     -11.851   6.968  72.370  1.00  0.00     0.000 HD 
HETATM   13  C   UNL     1      -9.176   9.520  69.660  1.00  0.00    -0.212 A  
BRANCH  13  14
HETATM   14  C   UNL     1      -8.273  10.214  68.702  1.00  0.00    -0.111 C  
HETATM   15  O   UNL     1      -7.306   9.673  68.182  1.00  0.00    -0.080 OA 
BRANCH  14  16
HETATM   16  O   UNL     1      -8.520  11.544  68.725  1.00  0.00    -0.137 OA 
BRANCH  16  17
HETATM   17  C   UNL     1      -8.497  12.194  67.445  1.00  0.00    -0.173 C  
BRANCH  17  18
HETATM   18  C   UNL     1      -9.936  12.676  67.189  1.00  0.00    -0.217 C  
BRANCH  18  19
HETATM   19  N   UNL     1     -10.253  14.084  67.501  1.00  0.00    -0.243 NA 
BRANCH  19  20
HETATM   20  C   UNL     1      -8.993  14.803  67.762  1.00  0.00    -0.182 C  
HETATM   21  C   UNL     1      -8.919  15.470  69.129  1.00  0.00    -0.256 C  
ENDBRANCH  19  20
BRANCH  19  22
HETATM   22  C   UNL     1     -11.264  14.229  68.555  1.00  0.00    -0.266 C  
HETATM   23  C   UNL     1     -11.753  12.939  69.207  1.00  0.00    -0.378 C  
ENDBRANCH  19  22
ENDBRANCH  18  19
ENDBRANCH  17  18
ENDBRANCH  16  17
ENDBRANCH  14  16
ENDBRANCH  13  14
ENDBRANCH   4   5
ENDBRANCH   3   4
ENDBRANCH   2   3
TORSDOF 10
ENDMDL
MODEL      239
REMARK 921   NORMALIZED FREE ENERGY PREDICTED BY IDOCK:   -3.11 KCAL/MOL
REMARK 922        TOTAL FREE ENERGY PREDICTED BY IDOCK:   -5.99 KCAL/MOL
REMARK 923 INTER-LIGAND FREE ENERGY PREDICTED BY IDOCK:   -6.02 KCAL/MOL
REMARK 924 INTRA-LIGAND FREE ENERGY PREDICTED BY IDOCK:    0.03 KCAL/MOL
REMARK 927      BINDING AFFINITY PREDICTED BY RF-SCORE:    0.00 PKD
ROOT
HETATM    1  C   UNL     1     -11.826  10.881  68.556  1.00  0.00    -0.236 C  
HETATM    2  C   UNL     1     -11.389  11.494  67.233  1.00  0.00    -0.359 C  
ENDROOT
BRANCH   2   3
HETATM    3  C   UNL     1     -12.028  12.863  67.037  1.00  0.00    -0.325 C  
BRANCH   3   4
HETATM    4  O   UNL     1     -11.043  13.792  66.579  1.00  0.00    -0.300 OA 
BRANCH   4   5
HETATM    5  C   UNL     1      -9.752  13.584  67.000  1.00  0.00    -0.251 A  
HETATM    6  C   UNL     1      -8.962  12.511  66.556  1.00  0.00    -0.133 A  
HETATM    7  C   UNL     1      -7.663  12.300  67.032  1.00  0.00    -0.089 A  
HETATM    8  C   UNL     1      -7.094  13.256  67.867  1.00  0.00    -0.133 A  
HETATM    9  N   UNL     1      -6.881  11.272  66.497  1.00  0.00    -0.259 NA 
HETATM   10  H1  UNL     1      -5.934  11.118  66.844  1.00  0.00     0.000 HD 
HETATM   11  C   UNL     1      -7.851  14.335  68.317  1.00  0.00    -0.141 A  
HETATM   12  H2  UNL     1      -6.838  11.391  65.485  1.00  0.00     0.000 HD 
HETATM   13  C   UNL     1      -9.185  14.496  67.908  1.00  0.00    -0.196 A  
BRANCH  13  14
HETATM   14  C   UNL     1      -9.921  15.605  68.575  1.00  0.00    -0.211 C  
HETATM   15  O   UNL     1      -9.727  16.786  68.319  1.00  0.00    -0.237 OA 
BRANCH  14  16
HETATM   16  O   UNL     1     -10.591  15.125  69.648  1.00  0.00    -0.248 OA 
BRANCH  16  17
HETATM   17  C   UNL     1     -11.289  16.111  70.424  1.00  0.00    -0.363 C  
BRANCH  17  18
HETATM   18  C   UNL     1     -12.720  15.574  70.604  1.00  0.00    -0.436 C  
BRANCH  18  19
HETATM   19  N   UNL     1     -12.936  14.527  71.625  1.00  0.00    -0.319 NA 
BRANCH  19  20
HETATM   20  C   UNL     1     -12.212  14.910  72.851  1.00  0.00    -0.295 C  
HETATM   21  C   UNL     1     -12.896  15.994  73.673  1.00  0.00    -0.708 C  
ENDBRANCH  19  20
BRANCH  19  22
HETATM   22  C   UNL     1     -12.636  13.175  71.139  1.00  0.00    -0.314 C  
HETATM   23  C   UNL     1     -13.271  12.022  71.910  1.00  0.00    -0.469 C  
ENDBRANCH  19  22
ENDBRANCH  18  19
ENDBRANCH  17  18
ENDBRANCH  16  17
ENDBRANCH  14  16
ENDBRANCH  13  14
ENDBRANCH   4   5
ENDBRANCH   3   4
ENDBRANCH   2   3
TORSDOF 10
ENDMDL
MODEL      240
REMARK 921   NORMALIZED FREE ENERGY PREDICTED BY IDOCK:   -3.10 KCAL/MOL
REMARK 922        TOTAL FREE ENERGY PREDICTED BY IDOCK:   -5.96 KCAL/MOL
REMARK 923 INTER-LIGAND FREE ENERGY PREDICTED BY IDOCK:   -4.87 KCAL/MOL
REMARK 924 INTRA-LIGAND FREE ENERGY PREDICTED BY IDOCK:   -1.09 KCAL/MOL
REMARK 927      BINDING AFFINITY PREDICTED BY RF-SCORE:    0.00 PKD
ROOT
HETATM    1  C   UNL     1      -6.463   9.451  69.055  1.00  0.00    -0.046 C  
HETATM    2  C   UNL     1      -6.813  10.744  69.778  1.00  0.00    -0.151 C  
ENDROOT
BRANCH   2   3
HETATM    3  C   UNL     1      -7.047  11.872  68.781  1.00  0.00    -0.111 C  
BRANCH   3   4
HETATM    4  O   UNL     1      -8.000  11.457  67.800  1.00  0.00    -0.111 OA 
BRANCH   4   5
HETATM    5  C   UNL     1      -9.247  12.029  67.868  1.00  0.00    -0.190 A  
HETATM    6  C   UNL     1      -9.462  13.416  67.808  1.00  0.00    -0.210 A  
HETATM    7  C   UNL     1     -10.740  13.974  67.919  1.00  0.00    -0.240 A  
HETATM    8  C   UNL     1     -11.839  13.123  67.957  1.00  0.00    -0.398 A  
HETATM    9  N   UNL     1     -10.916  15.352  67.766  1.00  0.00    -0.303 NA 
HETATM   10  H1  UNL     1     -11.848  15.759  67.846  1.00  0.00     0.000 HD 
HETATM   11  C   UNL     1     -11.658  11.743  68.009  1.00  0.00    -0.386 A  
HETATM   12  H2  UNL     1     -10.520  15.630  66.868  1.00  0.00     0.000 HD 
HETATM   13  C   UNL     1     -10.368  11.188  67.988  1.00  0.00    -0.208 A  
BRANCH  13  14
HETATM   14  C   UNL     1     -10.311   9.715  68.195  1.00  0.00    -0.209 C  
HETATM   15  O   UNL     1     -10.709   8.906  67.368  1.00  0.00    -0.272 OA 
BRANCH  14  16
HETATM   16  O   UNL     1     -10.027   9.449  69.491  1.00  0.00    -0.174 OA 
BRANCH  16  17
HETATM   17  C   UNL     1     -11.036   8.715  70.201  1.00  0.00    -0.226 C  
BRANCH  17  18
HETATM   18  C   UNL     1     -10.463   7.302  70.411  1.00  0.00    -0.220 C  
BRANCH  18  19
HETATM   19  N   UNL     1     -10.276   6.838  71.801  1.00  0.00    -0.191 NA 
BRANCH  19  20
HETATM   20  C   UNL     1     -11.493   6.122  72.225  1.00  0.00    -0.312 C  
HETATM   21  C   UNL     1     -11.246   4.994  73.219  1.00  0.00    -0.411 C  
ENDBRANCH  19  20
BRANCH  19  22
HETATM   22  C   UNL     1      -9.849   7.904  72.714  1.00  0.00    -0.270 C  
HETATM   23  C   UNL     1      -8.361   8.243  72.710  1.00  0.00    -0.235 C  
ENDBRANCH  19  22
ENDBRANCH  18  19
ENDBRANCH  17  18
ENDBRANCH  16  17
ENDBRANCH  14  16
ENDBRANCH  13  14
ENDBRANCH   4   5
ENDBRANCH   3   4
ENDBRANCH   2   3
TORSDOF 10
ENDMDL
MODEL      241
REMARK 921   NORMALIZED FREE ENERGY PREDICTED BY IDOCK:   -3.09 KCAL/MOL
REMARK 922        TOTAL FREE ENERGY PREDICTED BY IDOCK:   -5.96 KCAL/MOL
REMARK 923 INTER-LIGAND FREE ENERGY PREDICTED BY IDOCK:   -5.00 KCAL/MOL
REMARK 924 INTRA-LIGAND FREE ENERGY PREDICTED BY IDOCK:   -0.95 KCAL/MOL
REMARK 927      BINDING AFFINITY PREDICTED BY RF-SCORE:    0.00 PKD
ROOT
HETATM    1  C   UNL     1      -8.574   4.099  70.774  1.00  0.00    -0.107 C  
HETATM    2  C   UNL     1      -9.493   4.026  69.563  1.00  0.00    -0.257 C  
ENDROOT
BRANCH   2   3
HETATM    3  C   UNL     1     -10.407   5.243  69.506  1.00  0.00    -0.263 C  
BRANCH   3   4
HETATM    4  O   UNL     1      -9.934   6.243  70.411  1.00  0.00    -0.174 OA 
BRANCH   4   5
HETATM    5  C   UNL     1     -10.871   7.103  70.930  1.00  0.00    -0.244 A  
HETATM    6  C   UNL     1     -12.154   6.693  71.329  1.00  0.00    -0.395 A  
HETATM    7  C   UNL     1     -13.103   7.598  71.817  1.00  0.00    -0.323 A  
HETATM    8  C   UNL     1     -12.718   8.916  72.036  1.00  0.00    -0.456 A  
HETATM    9  N   UNL     1     -14.336   7.132  72.284  1.00  0.00    -0.633 NA 
HETATM   10  H1  UNL     1     -15.028   7.792  72.641  1.00  0.00     0.000 HD 
HETATM   11  C   UNL     1     -11.450   9.350  71.658  1.00  0.00    -0.463 A  
HETATM   12  H2  UNL     1     -14.164   6.427  73.000  1.00  0.00     0.000 HD 
HETATM   13  C   UNL     1     -10.529   8.458  71.085  1.00  0.00    -0.263 A  
BRANCH  13  14
HETATM   14  C   UNL     1      -9.268   9.081  70.596  1.00  0.00    -0.231 C  
HETATM   15  O   UNL     1      -8.200   8.982  71.184  1.00  0.00    -0.166 OA 
BRANCH  14  16
HETATM   16  O   UNL     1      -9.550   9.959  69.605  1.00  0.00    -0.203 OA 
BRANCH  16  17
HETATM   17  C   UNL     1      -8.420  10.392  68.832  1.00  0.00    -0.144 C  
BRANCH  17  18
HETATM   18  C   UNL     1      -8.904  10.457  67.373  1.00  0.00    -0.132 C  
BRANCH  18  19
HETATM   19  N   UNL     1      -8.193   9.628  66.377  1.00  0.00    -0.118 NA 
BRANCH  19  20
HETATM   20  C   UNL     1      -7.272   8.724  67.090  1.00  0.00    -0.080 C  
HETATM   21  C   UNL     1      -7.684   7.258  67.066  1.00  0.00    -0.111 C  
ENDBRANCH  19  20
BRANCH  19  22
HETATM   22  C   UNL     1      -7.567  10.417  65.310  1.00  0.00    -0.118 C  
HETATM   23  C   UNL     1      -6.094  10.129  65.031  1.00  0.00    -0.123 C  
ENDBRANCH  19  22
ENDBRANCH  18  19
ENDBRANCH  17  18
ENDBRANCH  16  17
ENDBRANCH  14  16
ENDBRANCH  13  14
ENDBRANCH   4   5
ENDBRANCH   3   4
ENDBRANCH   2   3
TORSDOF 10
ENDMDL
MODEL      242
REMARK 921   NORMALIZED FREE ENERGY PREDICTED BY IDOCK:   -3.08 KCAL/MOL
REMARK 922        TOTAL FREE ENERGY PREDICTED BY IDOCK:   -5.94 KCAL/MOL
REMARK 923 INTER-LIGAND FREE ENERGY PREDICTED BY IDOCK:   -4.56 KCAL/MOL
REMARK 924 INTRA-LIGAND FREE ENERGY PREDICTED BY IDOCK:   -1.39 KCAL/MOL
REMARK 927      BINDING AFFINITY PREDICTED BY RF-SCORE:    0.00 PKD
ROOT
HETATM    1  C   UNL     1      -9.246   8.005  66.180  1.00  0.00    -0.219 C  
HETATM    2  C   UNL     1     -10.344   7.965  67.233  1.00  0.00    -0.377 C  
ENDROOT
BRANCH   2   3
HETATM    3  C   UNL     1     -11.064   6.623  67.209  1.00  0.00    -0.345 C  
BRANCH   3   4
HETATM    4  O   UNL     1     -10.521   5.767  68.217  1.00  0.00    -0.197 OA 
BRANCH   4   5
HETATM    5  C   UNL     1     -10.959   5.970  69.503  1.00  0.00    -0.397 A  
HETATM    6  C   UNL     1     -12.032   6.818  69.825  1.00  0.00    -0.000 A  
HETATM    7  C   UNL     1     -12.432   7.037  71.148  1.00  0.00    -0.362 A  
HETATM    8  C   UNL     1     -11.835   6.291  72.159  1.00  0.00    -0.365 A  
HETATM    9  N   UNL     1     -13.560   7.819  71.416  1.00  0.00    -0.533 NA 
HETATM   10  H1  UNL     1     -13.852   7.978  72.381  1.00  0.00     0.000 HD 
HETATM   11  C   UNL     1     -10.775   5.436  71.869  1.00  0.00    -0.275 A  
HETATM   12  H2  UNL     1     -14.350   7.434  70.900  1.00  0.00     0.000 HD 
HETATM   13  C   UNL     1     -10.316   5.286  70.550  1.00  0.00    -0.336 A  
BRANCH  13  14
HETATM   14  C   UNL     1      -9.088   4.457  70.399  1.00  0.00    -0.106 C  
HETATM   15  O   UNL     1      -9.059   3.414  69.761  1.00  0.00    -0.099 OA 
BRANCH  14  16
HETATM   16  O   UNL     1      -8.145   4.880  71.272  1.00  0.00    -0.100 OA 
BRANCH  16  17
HETATM   17  C   UNL     1      -7.022   5.552  70.682  1.00  0.00    -0.057 C  
BRANCH  17  18
HETATM   18  C   UNL     1      -6.796   6.820  71.526  1.00  0.00    -0.066 C  
BRANCH  18  19
HETATM   19  N   UNL     1      -7.267   8.105  70.971  1.00  0.00    -0.054 NA 
BRANCH  19  20
HETATM   20  C   UNL     1      -8.412   8.573  71.774  1.00  0.00    -0.175 C  
HETATM   21  C   UNL     1      -9.541   9.191  70.960  1.00  0.00    -0.350 C  
ENDBRANCH  19  20
BRANCH  19  22
HETATM   22  C   UNL     1      -7.519   8.054  69.526  1.00  0.00    -0.092 C  
HETATM   23  C   UNL     1      -6.425   8.623  68.627  1.00  0.00    -0.054 C  
ENDBRANCH  19  22
ENDBRANCH  18  19
ENDBRANCH  17  18
ENDBRANCH  16  17
ENDBRANCH  14  16
ENDBRANCH  13  14
ENDBRANCH   4   5
ENDBRANCH   3   4
ENDBRANCH   2   3
TORSDOF 10
ENDMDL
MODEL      243
REMARK 921   NORMALIZED FREE ENERGY PREDICTED BY IDOCK:   -3.06 KCAL/MOL
REMARK 922        TOTAL FREE ENERGY PREDICTED BY IDOCK:   -5.91 KCAL/MOL
REMARK 923 INTER-LIGAND FREE ENERGY PREDICTED BY IDOCK:   -5.46 KCAL/MOL
REMARK 924 INTRA-LIGAND FREE ENERGY PREDICTED BY IDOCK:   -0.44 KCAL/MOL
REMARK 927      BINDING AFFINITY PREDICTED BY RF-SCORE:    0.00 PKD
ROOT
HETATM    1  C   UNL     1     -10.471  19.976  65.974  1.00  0.00    -0.523 C  
HETATM    2  C   UNL     1     -10.925  19.525  67.355  1.00  0.00    -0.427 C  
ENDROOT
BRANCH   2   3
HETATM    3  C   UNL     1      -9.959  18.497  67.930  1.00  0.00    -0.346 C  
BRANCH   3   4
HETATM    4  O   UNL     1      -9.484  17.646  66.884  1.00  0.00    -0.259 OA 
BRANCH   4   5
HETATM    5  C   UNL     1      -8.123  17.475  66.795  1.00  0.00    -0.244 A  
HETATM    6  C   UNL     1      -7.304  18.251  65.959  1.00  0.00    -0.281 A  
HETATM    7  C   UNL     1      -5.926  18.028  65.857  1.00  0.00    -0.221 A  
HETATM    8  C   UNL     1      -5.334  17.101  66.709  1.00  0.00    -0.205 A  
HETATM    9  N   UNL     1      -5.136  18.881  65.080  1.00  0.00    -0.148 NA 
HETATM   10  H1  UNL     1      -4.132  18.719  65.007  1.00  0.00     0.000 HD 
HETATM   11  C   UNL     1      -6.121  16.323  67.555  1.00  0.00    -0.189 A  
HETATM   12  H2  UNL     1      -5.286  19.838  65.397  1.00  0.00     0.000 HD 
HETATM   13  C   UNL     1      -7.515  16.486  67.590  1.00  0.00    -0.163 A  
BRANCH  13  14
HETATM   14  C   UNL     1      -8.246  15.497  68.427  1.00  0.00    -0.145 C  
HETATM   15  O   UNL     1      -7.794  15.033  69.465  1.00  0.00    -0.195 OA 
BRANCH  14  16
HETATM   16  O   UNL     1      -9.306  15.013  67.738  1.00  0.00    -0.184 OA 
BRANCH  16  17
HETATM   17  C   UNL     1     -10.504  14.829  68.507  1.00  0.00    -0.249 C  
BRANCH  17  18
HETATM   18  C   UNL     1     -10.671  13.309  68.675  1.00  0.00    -0.259 C  
BRANCH  18  19
HETATM   19  N   UNL     1     -10.506  12.464  67.474  1.00  0.00    -0.213 NA 
BRANCH  19  20
HETATM   20  C   UNL     1     -11.798  12.393  66.768  1.00  0.00    -0.315 C  
HETATM   21  C   UNL     1     -11.879  13.255  65.515  1.00  0.00    -0.405 C  
ENDBRANCH  19  20
BRANCH  19  22
HETATM   22  C   UNL     1      -9.899  11.160  67.764  1.00  0.00    -0.171 C  
HETATM   23  C   UNL     1     -10.820   9.947  67.665  1.00  0.00    -0.318 C  
ENDBRANCH  19  22
ENDBRANCH  18  19
ENDBRANCH  17  18
ENDBRANCH  16  17
ENDBRANCH  14  16
ENDBRANCH  13  14
ENDBRANCH   4   5
ENDBRANCH   3   4
ENDBRANCH   2   3
TORSDOF 10
ENDMDL
MODEL      244
REMARK 921   NORMALIZED FREE ENERGY PREDICTED BY IDOCK:   -3.05 KCAL/MOL
REMARK 922        TOTAL FREE ENERGY PREDICTED BY IDOCK:   -5.90 KCAL/MOL
REMARK 923 INTER-LIGAND FREE ENERGY PREDICTED BY IDOCK:   -4.90 KCAL/MOL
REMARK 924 INTRA-LIGAND FREE ENERGY PREDICTED BY IDOCK:   -1.00 KCAL/MOL
REMARK 927      BINDING AFFINITY PREDICTED BY RF-SCORE:    0.00 PKD
ROOT
HETATM    1  C   UNL     1     -10.562   4.691  73.947  1.00  0.00    -0.337 C  
HETATM    2  C   UNL     1     -10.341   5.792  72.919  1.00  0.00    -0.226 C  
ENDROOT
BRANCH   2   3
HETATM    3  C   UNL     1     -11.263   6.974  73.189  1.00  0.00    -0.154 C  
BRANCH   3   4
HETATM    4  O   UNL     1     -12.110   7.191  72.059  1.00  0.00    -0.299 OA 
BRANCH   4   5
HETATM    5  C   UNL     1     -12.038   8.426  71.460  1.00  0.00    -0.301 A  
HETATM    6  C   UNL     1     -12.721   9.555  71.941  1.00  0.00    -0.496 A  
HETATM    7  C   UNL     1     -12.662  10.791  71.288  1.00  0.00    -0.441 A  
HETATM    8  C   UNL     1     -11.798  10.936  70.208  1.00  0.00    -0.450 A  
HETATM    9  N   UNL     1     -13.285  11.909  71.852  1.00  0.00    -0.449 NA 
HETATM   10  H1  UNL     1     -13.242  12.810  71.376  1.00  0.00     0.000 HD 
HETATM   11  C   UNL     1     -11.102   9.836  69.713  1.00  0.00    -0.272 A  
HETATM   12  H2  UNL     1     -12.935  12.029  72.802  1.00  0.00     0.000 HD 
HETATM   13  C   UNL     1     -11.232   8.574  70.317  1.00  0.00    -0.185 A  
BRANCH  13  14
HETATM   14  C   UNL     1     -10.550   7.460  69.604  1.00  0.00    -0.236 C  
HETATM   15  O   UNL     1     -11.120   6.430  69.270  1.00  0.00    -0.320 OA 
BRANCH  14  16
HETATM   16  O   UNL     1      -9.211   7.648  69.641  1.00  0.00    -0.147 OA 
BRANCH  16  17
HETATM   17  C   UNL     1      -8.436   6.479  69.948  1.00  0.00    -0.135 C  
BRANCH  17  18
HETATM   18  C   UNL     1      -7.103   6.992  70.522  1.00  0.00    -0.064 C  
BRANCH  18  19
HETATM   19  N   UNL     1      -7.118   8.283  71.241  1.00  0.00    -0.057 NA 
BRANCH  19  20
HETATM   20  C   UNL     1      -5.808   8.935  71.062  1.00  0.00    -0.042 C  
HETATM   21  C   UNL     1      -5.883  10.427  70.766  1.00  0.00    -0.093 C  
ENDBRANCH  19  20
BRANCH  19  22
HETATM   22  C   UNL     1      -7.552   8.162  72.638  1.00  0.00    -0.125 C  
HETATM   23  C   UNL     1      -6.802   7.145  73.494  1.00  0.00    -0.069 C  
ENDBRANCH  19  22
ENDBRANCH  18  19
ENDBRANCH  17  18
ENDBRANCH  16  17
ENDBRANCH  14  16
ENDBRANCH  13  14
ENDBRANCH   4   5
ENDBRANCH   3   4
ENDBRANCH   2   3
TORSDOF 10
ENDMDL
MODEL      245
REMARK 921   NORMALIZED FREE ENERGY PREDICTED BY IDOCK:   -3.04 KCAL/MOL
REMARK 922        TOTAL FREE ENERGY PREDICTED BY IDOCK:   -5.87 KCAL/MOL
REMARK 923 INTER-LIGAND FREE ENERGY PREDICTED BY IDOCK:   -4.96 KCAL/MOL
REMARK 924 INTRA-LIGAND FREE ENERGY PREDICTED BY IDOCK:   -0.91 KCAL/MOL
REMARK 927      BINDING AFFINITY PREDICTED BY RF-SCORE:    0.00 PKD
ROOT
HETATM    1  C   UNL     1     -12.520  10.687  70.683  1.00  0.00    -0.462 C  
HETATM    2  C   UNL     1     -13.225  10.120  71.907  1.00  0.00    -0.557 C  
ENDROOT
BRANCH   2   3
HETATM    3  C   UNL     1     -13.171   8.597  71.903  1.00  0.00    -0.375 C  
BRANCH   3   4
HETATM    4  O   UNL     1     -12.202   8.153  70.951  1.00  0.00    -0.233 OA 
BRANCH   4   5
HETATM    5  C   UNL     1     -11.356   7.148  71.351  1.00  0.00    -0.259 A  
HETATM    6  C   UNL     1     -11.749   6.108  72.210  1.00  0.00    -0.352 A  
HETATM    7  C   UNL     1     -10.855   5.119  72.634  1.00  0.00    -0.247 A  
HETATM    8  C   UNL     1      -9.578   5.092  72.084  1.00  0.00    -0.191 A  
HETATM    9  N   UNL     1     -11.311   4.054  73.417  1.00  0.00    -0.230 NA 
HETATM   10  H1  UNL     1     -10.660   3.333  73.726  1.00  0.00     0.000 HD 
HETATM   11  C   UNL     1      -9.162   6.105  71.223  1.00  0.00    -0.157 A  
HETATM   12  H2  UNL     1     -12.084   3.602  72.929  1.00  0.00     0.000 HD 
HETATM   13  C   UNL     1     -10.034   7.147  70.869  1.00  0.00    -0.193 A  
BRANCH  13  14
HETATM   14  C   UNL     1      -9.421   8.238  70.062  1.00  0.00    -0.167 C  
HETATM   15  O   UNL     1      -8.973   9.264  70.554  1.00  0.00    -0.214 OA 
BRANCH  14  16
HETATM   16  O   UNL     1      -9.687   8.037  68.751  1.00  0.00    -0.151 OA 
BRANCH  16  17
HETATM   17  C   UNL     1      -8.546   7.731  67.934  1.00  0.00    -0.122 C  
BRANCH  17  18
HETATM   18  C   UNL     1      -8.830   8.358  66.558  1.00  0.00    -0.147 C  
BRANCH  18  19
HETATM   19  N   UNL     1      -8.858   9.832  66.468  1.00  0.00    -0.137 NA 
BRANCH  19  20
HETATM   20  C   UNL     1     -10.208  10.252  66.049  1.00  0.00    -0.228 C  
HETATM   21  C   UNL     1     -10.557  11.691  66.402  1.00  0.00    -0.299 C  
ENDBRANCH  19  20
BRANCH  19  22
HETATM   22  C   UNL     1      -7.770  10.382  65.651  1.00  0.00    -0.150 C  
HETATM   23  C   UNL     1      -6.905   9.371  64.904  1.00  0.00    -0.093 C  
ENDBRANCH  19  22
ENDBRANCH  18  19
ENDBRANCH  17  18
ENDBRANCH  16  17
ENDBRANCH  14  16
ENDBRANCH  13  14
ENDBRANCH   4   5
ENDBRANCH   3   4
ENDBRANCH   2   3
TORSDOF 10
ENDMDL
MODEL      246
REMARK 921   NORMALIZED FREE ENERGY PREDICTED BY IDOCK:   -3.04 KCAL/MOL
REMARK 922        TOTAL FREE ENERGY PREDICTED BY IDOCK:   -5.87 KCAL/MOL
REMARK 923 INTER-LIGAND FREE ENERGY PREDICTED BY IDOCK:   -4.90 KCAL/MOL
REMARK 924 INTRA-LIGAND FREE ENERGY PREDICTED BY IDOCK:   -0.97 KCAL/MOL
REMARK 927      BINDING AFFINITY PREDICTED BY RF-SCORE:    0.00 PKD
ROOT
HETATM    1  C   UNL     1      -6.274  11.299  67.804  1.00  0.00    -0.052 C  
HETATM    2  C   UNL     1      -6.417  12.799  68.019  1.00  0.00    -0.099 C  
ENDROOT
BRANCH   2   3
HETATM    3  C   UNL     1      -7.723  13.307  67.420  1.00  0.00    -0.140 C  
BRANCH   3   4
HETATM    4  O   UNL     1      -8.601  13.725  68.466  1.00  0.00    -0.171 OA 
BRANCH   4   5
HETATM    5  C   UNL     1      -9.757  13.001  68.631  1.00  0.00    -0.045 A  
HETATM    6  C   UNL     1      -9.895  11.667  68.214  1.00  0.00    -0.199 A  
HETATM    7  C   UNL     1     -11.096  10.965  68.358  1.00  0.00    -0.262 A  
HETATM    8  C   UNL     1     -12.141  11.564  69.054  1.00  0.00    -0.303 A  
HETATM    9  N   UNL     1     -11.162   9.612  68.009  1.00  0.00    -0.513 NA 
HETATM   10  H1  UNL     1     -12.038   9.101  68.115  1.00  0.00     0.000 HD 
HETATM   11  C   UNL     1     -12.031  12.883  69.487  1.00  0.00    -0.346 A  
HETATM   12  H2  UNL     1     -10.433   9.112  68.518  1.00  0.00     0.000 HD 
HETATM   13  C   UNL     1     -10.854  13.616  69.262  1.00  0.00    -0.123 A  
BRANCH  13  14
HETATM   14  C   UNL     1     -10.921  15.053  69.645  1.00  0.00    -0.279 C  
HETATM   15  O   UNL     1     -10.843  15.442  70.802  1.00  0.00    -0.323 OA 
BRANCH  14  16
HETATM   16  O   UNL     1     -11.346  15.785  68.589  1.00  0.00    -0.328 OA 
BRANCH  16  17
HETATM   17  C   UNL     1     -10.365  16.667  68.022  1.00  0.00    -0.303 C  
BRANCH  17  18
HETATM   18  C   UNL     1     -10.779  16.875  66.554  1.00  0.00    -0.087 C  
BRANCH  18  19
HETATM   19  N   UNL     1      -9.770  16.597  65.512  1.00  0.00    -0.520 NA 
BRANCH  19  20
HETATM   20  C   UNL     1     -10.069  15.287  64.905  1.00  0.00    -0.079 C  
HETATM   21  C   UNL     1     -11.312  14.604  65.462  1.00  0.00    -0.341 C  
ENDBRANCH  19  20
BRANCH  19  22
HETATM   22  C   UNL     1      -8.390  16.745  65.989  1.00  0.00    -0.152 C  
HETATM   23  C   UNL     1      -7.869  18.173  66.122  1.00  0.00    -0.239 C  
ENDBRANCH  19  22
ENDBRANCH  18  19
ENDBRANCH  17  18
ENDBRANCH  16  17
ENDBRANCH  14  16
ENDBRANCH  13  14
ENDBRANCH   4   5
ENDBRANCH   3   4
ENDBRANCH   2   3
TORSDOF 10
ENDMDL
MODEL      247
REMARK 921   NORMALIZED FREE ENERGY PREDICTED BY IDOCK:   -3.04 KCAL/MOL
REMARK 922        TOTAL FREE ENERGY PREDICTED BY IDOCK:   -5.87 KCAL/MOL
REMARK 923 INTER-LIGAND FREE ENERGY PREDICTED BY IDOCK:   -4.94 KCAL/MOL
REMARK 924 INTRA-LIGAND FREE ENERGY PREDICTED BY IDOCK:   -0.93 KCAL/MOL
REMARK 927      BINDING AFFINITY PREDICTED BY RF-SCORE:    0.00 PKD
ROOT
HETATM    1  C   UNL     1     -12.600  11.130  70.515  1.00  0.00    -0.360 C  
HETATM    2  C   UNL     1     -11.697  11.994  69.646  1.00  0.00    -0.405 C  
ENDROOT
BRANCH   2   3
HETATM    3  C   UNL     1     -11.100  11.174  68.508  1.00  0.00    -0.244 C  
BRANCH   3   4
HETATM    4  O   UNL     1      -9.678  11.127  68.644  1.00  0.00    -0.190 OA 
BRANCH   4   5
HETATM    5  C   UNL     1      -9.038  10.047  68.087  1.00  0.00    -0.121 A  
HETATM    6  C   UNL     1      -9.162   9.694  66.732  1.00  0.00    -0.181 A  
HETATM    7  C   UNL     1      -8.530   8.565  66.200  1.00  0.00    -0.132 A  
HETATM    8  C   UNL     1      -7.650   7.850  67.005  1.00  0.00    -0.100 A  
HETATM    9  N   UNL     1      -8.609   8.302  64.828  1.00  0.00    -0.386 NA 
HETATM   10  H1  UNL     1      -8.148   7.480  64.440  1.00  0.00     0.000 HD 
HETATM   11  C   UNL     1      -7.501   8.181  68.349  1.00  0.00    -0.100 A  
HETATM   12  H2  UNL     1      -8.280   9.124  64.323  1.00  0.00     0.000 HD 
HETATM   13  C   UNL     1      -8.206   9.261  68.904  1.00  0.00    -0.111 A  
BRANCH  13  14
HETATM   14  C   UNL     1      -8.067   9.416  70.378  1.00  0.00    -0.175 C  
HETATM   15  O   UNL     1      -7.023   9.749  70.921  1.00  0.00    -0.277 OA 
BRANCH  14  16
HETATM   16  O   UNL     1      -9.146   8.880  70.995  1.00  0.00    -0.201 OA 
BRANCH  16  17
HETATM   17  C   UNL     1      -8.858   7.822  71.923  1.00  0.00    -0.121 C  
BRANCH  17  18
HETATM   18  C   UNL     1     -10.213   7.396  72.514  1.00  0.00    -0.216 C  
BRANCH  18  19
HETATM   19  N   UNL     1     -10.841   6.171  71.977  1.00  0.00    -0.236 NA 
BRANCH  19  20
HETATM   20  C   UNL     1     -11.816   6.558  70.941  1.00  0.00    -0.331 C  
HETATM   21  C   UNL     1     -11.368   6.267  69.515  1.00  0.00    -0.475 C  
ENDBRANCH  19  20
BRANCH  19  22
HETATM   22  C   UNL     1     -11.380   5.292  73.021  1.00  0.00    -0.309 C  
HETATM   23  C   UNL     1     -10.412   4.272  73.613  1.00  0.00    -0.273 C  
ENDBRANCH  19  22
ENDBRANCH  18  19
ENDBRANCH  17  18
ENDBRANCH  16  17
ENDBRANCH  14  16
ENDBRANCH  13  14
ENDBRANCH   4   5
ENDBRANCH   3   4
ENDBRANCH   2   3
TORSDOF 10
ENDMDL
MODEL      248
REMARK 921   NORMALIZED FREE ENERGY PREDICTED BY IDOCK:   -3.03 KCAL/MOL
REMARK 922        TOTAL FREE ENERGY PREDICTED BY IDOCK:   -5.86 KCAL/MOL
REMARK 923 INTER-LIGAND FREE ENERGY PREDICTED BY IDOCK:   -5.13 KCAL/MOL
REMARK 924 INTRA-LIGAND FREE ENERGY PREDICTED BY IDOCK:   -0.73 KCAL/MOL
REMARK 927      BINDING AFFINITY PREDICTED BY RF-SCORE:    0.00 PKD
ROOT
HETATM    1  C   UNL     1      -9.701   4.425  67.055  1.00  0.00    -0.232 C  
HETATM    2  C   UNL     1      -9.995   5.917  66.979  1.00  0.00    -0.195 C  
ENDROOT
BRANCH   2   3
HETATM    3  C   UNL     1     -11.018   6.318  68.033  1.00  0.00    -0.327 C  
BRANCH   3   4
HETATM    4  O   UNL     1     -10.555   7.472  68.738  1.00  0.00    -0.206 OA 
BRANCH   4   5
HETATM    5  C   UNL     1     -10.936   7.589  70.053  1.00  0.00    -0.240 A  
HETATM    6  C   UNL     1     -11.089   6.488  70.911  1.00  0.00    -0.345 A  
HETATM    7  C   UNL     1     -11.518   6.633  72.235  1.00  0.00    -0.283 A  
HETATM    8  C   UNL     1     -11.668   7.915  72.752  1.00  0.00    -0.338 A  
HETATM    9  N   UNL     1     -11.571   5.518  73.078  1.00  0.00    -0.524 NA 
HETATM   10  H1  UNL     1     -11.883   5.625  74.043  1.00  0.00     0.000 HD 
HETATM   11  C   UNL     1     -11.515   9.027  71.927  1.00  0.00    -0.440 A  
HETATM   12  H2  UNL     1     -10.653   5.073  73.083  1.00  0.00     0.000 HD 
HETATM   13  C   UNL     1     -11.172   8.874  70.574  1.00  0.00    -0.287 A  
BRANCH  13  14
HETATM   14  C   UNL     1     -11.183  10.130  69.774  1.00  0.00    -0.272 C  
HETATM   15  O   UNL     1     -12.197  10.594  69.269  1.00  0.00    -0.280 OA 
BRANCH  14  16
HETATM   16  O   UNL     1      -9.913  10.491  69.478  1.00  0.00    -0.217 OA 
BRANCH  16  17
HETATM   17  C   UNL     1      -9.755  11.229  68.257  1.00  0.00    -0.198 C  
BRANCH  17  18
HETATM   18  C   UNL     1      -8.298  11.725  68.246  1.00  0.00    -0.159 C  
BRANCH  18  19
HETATM   19  N   UNL     1      -7.305  10.920  67.505  1.00  0.00    -0.094 NA 
BRANCH  19  20
HETATM   20  C   UNL     1      -6.210  11.807  67.072  1.00  0.00    -0.152 C  
HETATM   21  C   UNL     1      -5.966  12.999  67.988  1.00  0.00    -0.112 C  
ENDBRANCH  19  20
BRANCH  19  22
HETATM   22  C   UNL     1      -7.899  10.117  66.429  1.00  0.00    -0.114 C  
HETATM   23  C   UNL     1      -6.978   9.754  65.268  1.00  0.00    -0.111 C  
ENDBRANCH  19  22
ENDBRANCH  18  19
ENDBRANCH  17  18
ENDBRANCH  16  17
ENDBRANCH  14  16
ENDBRANCH  13  14
ENDBRANCH   4   5
ENDBRANCH   3   4
ENDBRANCH   2   3
TORSDOF 10
ENDMDL
MODEL      249
REMARK 921   NORMALIZED FREE ENERGY PREDICTED BY IDOCK:   -3.03 KCAL/MOL
REMARK 922        TOTAL FREE ENERGY PREDICTED BY IDOCK:   -5.86 KCAL/MOL
REMARK 923 INTER-LIGAND FREE ENERGY PREDICTED BY IDOCK:   -5.14 KCAL/MOL
REMARK 924 INTRA-LIGAND FREE ENERGY PREDICTED BY IDOCK:   -0.72 KCAL/MOL
REMARK 927      BINDING AFFINITY PREDICTED BY RF-SCORE:    0.00 PKD
ROOT
HETATM    1  C   UNL     1     -12.248  11.759  69.305  1.00  0.00    -0.202 C  
HETATM    2  C   UNL     1     -10.979  10.966  69.584  1.00  0.00    -0.311 C  
ENDROOT
BRANCH   2   3
HETATM    3  C   UNL     1     -10.110  10.885  68.335  1.00  0.00    -0.183 C  
BRANCH   3   4
HETATM    4  O   UNL     1     -10.711  10.000  67.387  1.00  0.00    -0.268 OA 
BRANCH   4   5
HETATM    5  C   UNL     1     -10.099   9.897  66.162  1.00  0.00    -0.245 A  
HETATM    6  C   UNL     1     -10.193  10.886  65.169  1.00  0.00    -0.360 A  
HETATM    7  C   UNL     1      -9.592  10.737  63.914  1.00  0.00    -0.293 A  
HETATM    8  C   UNL     1      -8.769   9.637  63.694  1.00  0.00    -0.240 A  
HETATM    9  N   UNL     1      -9.637  11.784  62.989  1.00  0.00    -0.584 NA 
HETATM   10  H1  UNL     1      -9.198  11.675  62.074  1.00  0.00     0.000 HD 
HETATM   11  C   UNL     1      -8.650   8.644  64.663  1.00  0.00    -0.116 A  
HETATM   12  H2  UNL     1      -9.258  12.622  63.430  1.00  0.00     0.000 HD 
HETATM   13  C   UNL     1      -9.327   8.753  65.888  1.00  0.00    -0.284 A  
BRANCH  13  14
HETATM   14  C   UNL     1      -9.230   7.559  66.772  1.00  0.00    -0.156 C  
HETATM   15  O   UNL     1      -9.791   6.500  66.531  1.00  0.00    -0.167 OA 
BRANCH  14  16
HETATM   16  O   UNL     1      -8.683   7.915  67.958  1.00  0.00    -0.126 OA 
BRANCH  16  17
HETATM   17  C   UNL     1      -8.664   6.884  68.957  1.00  0.00    -0.131 C  
BRANCH  17  18
HETATM   18  C   UNL     1      -9.853   7.176  69.890  1.00  0.00    -0.174 C  
BRANCH  18  19
HETATM   19  N   UNL     1      -9.953   6.395  71.140  1.00  0.00    -0.179 NA 
BRANCH  19  20
HETATM   20  C   UNL     1     -11.365   6.032  71.356  1.00  0.00    -0.236 C  
HETATM   21  C   UNL     1     -12.350   7.169  71.122  1.00  0.00    -0.404 C  
ENDBRANCH  19  20
BRANCH  19  22
HETATM   22  C   UNL     1      -9.311   7.052  72.285  1.00  0.00    -0.136 C  
HETATM   23  C   UNL     1      -9.179   8.570  72.208  1.00  0.00    -0.343 C  
ENDBRANCH  19  22
ENDBRANCH  18  19
ENDBRANCH  17  18
ENDBRANCH  16  17
ENDBRANCH  14  16
ENDBRANCH  13  14
ENDBRANCH   4   5
ENDBRANCH   3   4
ENDBRANCH   2   3
TORSDOF 10
ENDMDL
MODEL      250
REMARK 921   NORMALIZED FREE ENERGY PREDICTED BY IDOCK:   -3.00 KCAL/MOL
REMARK 922        TOTAL FREE ENERGY PREDICTED BY IDOCK:   -5.82 KCAL/MOL
REMARK 923 INTER-LIGAND FREE ENERGY PREDICTED BY IDOCK:   -5.23 KCAL/MOL
REMARK 924 INTRA-LIGAND FREE ENERGY PREDICTED BY IDOCK:   -0.58 KCAL/MOL
REMARK 927      BINDING AFFINITY PREDICTED BY RF-SCORE:    0.00 PKD
ROOT
HETATM    1  C   UNL     1     -11.632  14.180  67.124  1.00  0.00    -0.400 C  
HETATM    2  C   UNL     1     -11.899  12.836  66.461  1.00  0.00    -0.471 C  
ENDROOT
BRANCH   2   3
HETATM    3  C   UNL     1     -10.624  12.004  66.398  1.00  0.00    -0.243 C  
BRANCH   3   4
HETATM    4  O   UNL     1     -10.928  10.636  66.677  1.00  0.00    -0.190 OA 
BRANCH   4   5
HETATM    5  C   UNL     1     -11.087  10.294  67.998  1.00  0.00    -0.274 A  
HETATM    6  C   UNL     1     -11.742  11.114  68.932  1.00  0.00    -0.406 A  
HETATM    7  C   UNL     1     -11.855  10.759  70.280  1.00  0.00    -0.349 A  
HETATM    8  C   UNL     1     -11.422   9.499  70.678  1.00  0.00    -0.362 A  
HETATM    9  N   UNL     1     -12.592  11.564  71.155  1.00  0.00    -0.390 NA 
HETATM   10  H1  UNL     1     -12.674  11.304  72.138  1.00  0.00     0.000 HD 
HETATM   11  C   UNL     1     -10.776   8.660  69.773  1.00  0.00    -0.215 A  
HETATM   12  H2  UNL     1     -13.529  11.681  70.773  1.00  0.00     0.000 HD 
HETATM   13  C   UNL     1     -10.584   9.057  68.439  1.00  0.00    -0.200 A  
BRANCH  13  14
HETATM   14  C   UNL     1      -9.755   8.132  67.619  1.00  0.00    -0.159 C  
HETATM   15  O   UNL     1      -8.531   8.139  67.632  1.00  0.00    -0.129 OA 
BRANCH  14  16
HETATM   16  O   UNL     1     -10.534   7.518  66.699  1.00  0.00    -0.269 OA 
BRANCH  16  17
HETATM   17  C   UNL     1     -11.149   6.296  67.136  1.00  0.00    -0.303 C  
BRANCH  17  18
HETATM   18  C   UNL     1     -10.156   5.173  66.786  1.00  0.00    -0.232 C  
BRANCH  18  19
HETATM   19  N   UNL     1      -9.513   4.453  67.905  1.00  0.00    -0.153 NA 
BRANCH  19  20
HETATM   20  C   UNL     1     -10.158   4.869  69.164  1.00  0.00    -0.159 C  
HETATM   21  C   UNL     1      -9.189   5.317  70.249  1.00  0.00    -0.185 C  
ENDBRANCH  19  20
BRANCH  19  22
HETATM   22  C   UNL     1      -8.050   4.570  67.904  1.00  0.00    -0.092 C  
HETATM   23  C   UNL     1      -7.268   3.277  67.695  1.00  0.00    -0.054 C  
ENDBRANCH  19  22
ENDBRANCH  18  19
ENDBRANCH  17  18
ENDBRANCH  16  17
ENDBRANCH  14  16
ENDBRANCH  13  14
ENDBRANCH   4   5
ENDBRANCH   3   4
ENDBRANCH   2   3
TORSDOF 10
ENDMDL
MODEL      251
REMARK 921   NORMALIZED FREE ENERGY PREDICTED BY IDOCK:   -2.99 KCAL/MOL
REMARK 922        TOTAL FREE ENERGY PREDICTED BY IDOCK:   -5.79 KCAL/MOL
REMARK 923 INTER-LIGAND FREE ENERGY PREDICTED BY IDOCK:   -4.98 KCAL/MOL
REMARK 924 INTRA-LIGAND FREE ENERGY PREDICTED BY IDOCK:   -0.81 KCAL/MOL
REMARK 927      BINDING AFFINITY PREDICTED BY RF-SCORE:    0.00 PKD
ROOT
HETATM    1  C   UNL     1     -11.867  10.717  69.231  1.00  0.00    -0.359 C  
HETATM    2  C   UNL     1     -10.726  11.373  68.466  1.00  0.00    -0.235 C  
ENDROOT
BRANCH   2   3
HETATM    3  C   UNL     1     -10.671  10.857  67.033  1.00  0.00    -0.271 C  
BRANCH   3   4
HETATM    4  O   UNL     1     -10.015  11.817  66.202  1.00  0.00    -0.214 OA 
BRANCH   4   5
HETATM    5  C   UNL     1      -8.864  12.381  66.697  1.00  0.00    -0.156 A  
HETATM    6  C   UNL     1      -7.680  11.656  66.906  1.00  0.00    -0.147 A  
HETATM    7  C   UNL     1      -6.534  12.247  67.449  1.00  0.00    -0.157 A  
HETATM    8  C   UNL     1      -6.529  13.622  67.664  1.00  0.00    -0.164 A  
HETATM    9  N   UNL     1      -5.351  11.510  67.557  1.00  0.00    -0.053 NA 
HETATM   10  H1  UNL     1      -4.516  11.941  67.953  1.00  0.00     0.000 HD 
HETATM   11  C   UNL     1      -7.687  14.369  67.458  1.00  0.00    -0.210 A  
HETATM   12  H2  UNL     1      -5.117  11.139  66.637  1.00  0.00     0.000 HD 
HETATM   13  C   UNL     1      -8.863  13.755  66.997  1.00  0.00    -0.230 A  
BRANCH  13  14
HETATM   14  C   UNL     1     -10.062  14.637  66.959  1.00  0.00    -0.249 C  
HETATM   15  O   UNL     1     -10.684  14.878  65.933  1.00  0.00    -0.300 OA 
BRANCH  14  16
HETATM   16  O   UNL     1     -10.166  15.313  68.127  1.00  0.00    -0.226 OA 
BRANCH  16  17
HETATM   17  C   UNL     1     -10.732  16.628  68.025  1.00  0.00    -0.350 C  
BRANCH  17  18
HETATM   18  C   UNL     1      -9.548  17.608  68.110  1.00  0.00    -0.297 C  
BRANCH  18  19
HETATM   19  N   UNL     1      -9.365  18.561  66.996  1.00  0.00    -0.281 NA 
BRANCH  19  20
HETATM   20  C   UNL     1      -8.038  18.332  66.396  1.00  0.00    -0.258 C  
HETATM   21  C   UNL     1      -6.955  17.939  67.392  1.00  0.00    -0.200 C  
ENDBRANCH  19  20
BRANCH  19  22
HETATM   22  C   UNL     1      -9.628  19.953  67.378  1.00  0.00    -0.374 C  
HETATM   23  C   UNL     1     -10.331  20.168  68.715  1.00  0.00    -0.249 C  
ENDBRANCH  19  22
ENDBRANCH  18  19
ENDBRANCH  17  18
ENDBRANCH  16  17
ENDBRANCH  14  16
ENDBRANCH  13  14
ENDBRANCH   4   5
ENDBRANCH   3   4
ENDBRANCH   2   3
TORSDOF 10
ENDMDL
MODEL      252
REMARK 921   NORMALIZED FREE ENERGY PREDICTED BY IDOCK:   -2.98 KCAL/MOL
REMARK 922        TOTAL FREE ENERGY PREDICTED BY IDOCK:   -5.78 KCAL/MOL
REMARK 923 INTER-LIGAND FREE ENERGY PREDICTED BY IDOCK:   -5.35 KCAL/MOL
REMARK 924 INTRA-LIGAND FREE ENERGY PREDICTED BY IDOCK:   -0.43 KCAL/MOL
REMARK 927      BINDING AFFINITY PREDICTED BY RF-SCORE:    0.00 PKD
ROOT
HETATM    1  C   UNL     1      -5.146  14.450  72.882  1.00  0.00    -0.288 C  
HETATM    2  C   UNL     1      -5.282  13.689  71.571  1.00  0.00    -0.190 C  
ENDROOT
BRANCH   2   3
HETATM    3  C   UNL     1      -5.499  14.652  70.410  1.00  0.00    -0.126 C  
BRANCH   3   4
HETATM    4  O   UNL     1      -6.899  14.841  70.197  1.00  0.00    -0.178 OA 
BRANCH   4   5
HETATM    5  C   UNL     1      -7.265  15.563  69.087  1.00  0.00    -0.174 A  
HETATM    6  C   UNL     1      -7.142  16.960  69.003  1.00  0.00    -0.232 A  
HETATM    7  C   UNL     1      -7.560  17.674  67.875  1.00  0.00    -0.210 A  
HETATM    8  C   UNL     1      -7.986  16.967  66.756  1.00  0.00    -0.274 A  
HETATM    9  N   UNL     1      -7.337  19.053  67.799  1.00  0.00    -0.235 NA 
HETATM   10  H1  UNL     1      -7.641  19.574  66.976  1.00  0.00     0.000 HD 
HETATM   11  C   UNL     1      -8.111  15.581  66.807  1.00  0.00    -0.247 A  
HETATM   12  H2  UNL     1      -6.343  19.227  67.941  1.00  0.00     0.000 HD 
HETATM   13  C   UNL     1      -7.775  14.873  67.972  1.00  0.00    -0.128 A  
BRANCH  13  14
HETATM   14  C   UNL     1      -8.092  13.419  67.942  1.00  0.00    -0.162 C  
HETATM   15  O   UNL     1      -7.599  12.610  68.715  1.00  0.00    -0.102 OA 
BRANCH  14  16
HETATM   16  O   UNL     1      -8.754  13.122  66.799  1.00  0.00    -0.182 OA 
BRANCH  16  17
HETATM   17  C   UNL     1      -9.705  12.052  66.904  1.00  0.00    -0.203 C  
BRANCH  17  18
HETATM   18  C   UNL     1     -10.678  12.233  65.725  1.00  0.00    -0.263 C  
BRANCH  18  19
HETATM   19  N   UNL     1     -11.884  13.056  65.952  1.00  0.00    -0.394 NA 
BRANCH  19  20
HETATM   20  C   UNL     1     -12.774  12.917  64.785  1.00  0.00    -0.370 C  
HETATM   21  C   UNL     1     -12.066  12.521  63.496  1.00  0.00    -0.653 C  
ENDBRANCH  19  20
BRANCH  19  22
HETATM   22  C   UNL     1     -11.576  14.443  66.320  1.00  0.00    -0.372 C  
HETATM   23  C   UNL     1     -11.729  14.803  67.795  1.00  0.00    -0.368 C  
ENDBRANCH  19  22
ENDBRANCH  18  19
ENDBRANCH  17  18
ENDBRANCH  16  17
ENDBRANCH  14  16
ENDBRANCH  13  14
ENDBRANCH   4   5
ENDBRANCH   3   4
ENDBRANCH   2   3
TORSDOF 10
ENDMDL
MODEL      253
REMARK 921   NORMALIZED FREE ENERGY PREDICTED BY IDOCK:   -2.98 KCAL/MOL
REMARK 922        TOTAL FREE ENERGY PREDICTED BY IDOCK:   -5.77 KCAL/MOL
REMARK 923 INTER-LIGAND FREE ENERGY PREDICTED BY IDOCK:   -5.06 KCAL/MOL
REMARK 924 INTRA-LIGAND FREE ENERGY PREDICTED BY IDOCK:   -0.71 KCAL/MOL
REMARK 927      BINDING AFFINITY PREDICTED BY RF-SCORE:    0.00 PKD
ROOT
HETATM    1  C   UNL     1      -6.761  10.053  70.070  1.00  0.00    -0.112 C  
HETATM    2  C   UNL     1      -7.351   9.061  71.063  1.00  0.00    -0.125 C  
ENDROOT
BRANCH   2   3
HETATM    3  C   UNL     1      -8.868   9.194  71.120  1.00  0.00    -0.164 C  
BRANCH   3   4
HETATM    4  O   UNL     1      -9.434   8.007  71.679  1.00  0.00    -0.149 OA 
BRANCH   4   5
HETATM    5  C   UNL     1     -10.800   7.878  71.605  1.00  0.00    -0.232 A  
HETATM    6  C   UNL     1     -11.686   8.590  72.430  1.00  0.00    -0.429 A  
HETATM    7  C   UNL     1     -13.072   8.409  72.360  1.00  0.00    -0.234 A  
HETATM    8  C   UNL     1     -13.590   7.600  71.355  1.00  0.00    -0.368 A  
HETATM    9  N   UNL     1     -13.920   9.203  73.138  1.00  0.00    -1.161 NA 
HETATM   10  H1  UNL     1     -14.930   9.071  73.087  1.00  0.00     0.000 HD 
HETATM   11  C   UNL     1     -12.736   6.887  70.516  1.00  0.00     0.115 A  
HETATM   12  H2  UNL     1     -13.713  10.182  72.945  1.00  0.00     0.000 HD 
HETATM   13  C   UNL     1     -11.343   7.002  70.647  1.00  0.00    -0.349 A  
BRANCH  13  14
HETATM   14  C   UNL     1     -10.550   6.080  69.789  1.00  0.00    -0.289 C  
HETATM   15  O   UNL     1     -10.431   4.885  70.021  1.00  0.00    -0.244 OA 
BRANCH  14  16
HETATM   16  O   UNL     1      -9.795   6.799  68.926  1.00  0.00    -0.143 OA 
BRANCH  16  17
HETATM   17  C   UNL     1     -10.532   7.593  67.983  1.00  0.00    -0.189 C  
BRANCH  17  18
HETATM   18  C   UNL     1      -9.558   8.676  67.488  1.00  0.00    -0.157 C  
BRANCH  18  19
HETATM   19  N   UNL     1      -8.799   8.401  66.251  1.00  0.00    -0.150 NA 
BRANCH  19  20
HETATM   20  C   UNL     1      -7.359   8.428  66.567  1.00  0.00    -0.081 C  
HETATM   21  C   UNL     1      -6.448   8.161  65.376  1.00  0.00    -0.048 C  
ENDBRANCH  19  20
BRANCH  19  22
HETATM   22  C   UNL     1      -9.191   9.262  65.129  1.00  0.00    -0.200 C  
HETATM   23  C   UNL     1     -10.147  10.406  65.454  1.00  0.00    -0.354 C  
ENDBRANCH  19  22
ENDBRANCH  18  19
ENDBRANCH  17  18
ENDBRANCH  16  17
ENDBRANCH  14  16
ENDBRANCH  13  14
ENDBRANCH   4   5
ENDBRANCH   3   4
ENDBRANCH   2   3
TORSDOF 10
ENDMDL
MODEL      254
REMARK 921   NORMALIZED FREE ENERGY PREDICTED BY IDOCK:   -2.96 KCAL/MOL
REMARK 922        TOTAL FREE ENERGY PREDICTED BY IDOCK:   -5.74 KCAL/MOL
REMARK 923 INTER-LIGAND FREE ENERGY PREDICTED BY IDOCK:   -5.05 KCAL/MOL
REMARK 924 INTRA-LIGAND FREE ENERGY PREDICTED BY IDOCK:   -0.69 KCAL/MOL
REMARK 927      BINDING AFFINITY PREDICTED BY RF-SCORE:    0.00 PKD
ROOT
HETATM    1  C   UNL     1      -8.696   7.994  72.923  1.00  0.00    -0.275 C  
HETATM    2  C   UNL     1      -7.536   8.140  71.948  1.00  0.00    -0.115 C  
ENDROOT
BRANCH   2   3
HETATM    3  C   UNL     1      -7.763   7.282  70.710  1.00  0.00    -0.092 C  
BRANCH   3   4
HETATM    4  O   UNL     1      -8.639   7.961  69.807  1.00  0.00    -0.130 OA 
BRANCH   4   5
HETATM    5  C   UNL     1      -9.247   7.197  68.841  1.00  0.00    -0.137 A  
HETATM    6  C   UNL     1      -9.012   5.820  68.688  1.00  0.00    -0.112 A  
HETATM    7  C   UNL     1      -9.615   5.074  67.670  1.00  0.00    -0.146 A  
HETATM    8  C   UNL     1     -10.575   5.686  66.871  1.00  0.00    -0.367 A  
HETATM    9  N   UNL     1      -9.420   3.691  67.608  1.00  0.00    -0.198 NA 
HETATM   10  H1  UNL     1      -9.860   3.147  66.866  1.00  0.00     0.000 HD 
HETATM   11  C   UNL     1     -10.836   7.048  67.006  1.00  0.00    -0.413 A  
HETATM   12  H2  UNL     1      -9.688   3.287  68.506  1.00  0.00     0.000 HD 
HETATM   13  C   UNL     1     -10.163   7.815  67.971  1.00  0.00    -0.249 A  
BRANCH  13  14
HETATM   14  C   UNL     1     -10.428   9.278  67.911  1.00  0.00    -0.236 C  
HETATM   15  O   UNL     1     -10.748   9.941  68.888  1.00  0.00    -0.210 OA 
BRANCH  14  16
HETATM   16  O   UNL     1     -10.529   9.670  66.620  1.00  0.00    -0.221 OA 
BRANCH  16  17
HETATM   17  C   UNL     1      -9.282   9.952  65.967  1.00  0.00    -0.170 C  
BRANCH  17  18
HETATM   18  C   UNL     1      -9.190  11.485  65.872  1.00  0.00    -0.210 C  
BRANCH  18  19
HETATM   19  N   UNL     1     -10.451  12.240  65.722  1.00  0.00    -0.248 NA 
BRANCH  19  20
HETATM   20  C   UNL     1     -10.515  12.780  64.352  1.00  0.00    -0.386 C  
HETATM   21  C   UNL     1     -11.538  12.099  63.453  1.00  0.00    -0.508 C  
ENDBRANCH  19  20
BRANCH  19  22
HETATM   22  C   UNL     1     -10.659  13.236  66.779  1.00  0.00    -0.276 C  
HETATM   23  C   UNL     1     -11.296  14.555  66.351  1.00  0.00    -0.349 C  
ENDBRANCH  19  22
ENDBRANCH  18  19
ENDBRANCH  17  18
ENDBRANCH  16  17
ENDBRANCH  14  16
ENDBRANCH  13  14
ENDBRANCH   4   5
ENDBRANCH   3   4
ENDBRANCH   2   3
TORSDOF 10
ENDMDL
MODEL      255
REMARK 921   NORMALIZED FREE ENERGY PREDICTED BY IDOCK:   -2.96 KCAL/MOL
REMARK 922        TOTAL FREE ENERGY PREDICTED BY IDOCK:   -5.74 KCAL/MOL
REMARK 923 INTER-LIGAND FREE ENERGY PREDICTED BY IDOCK:   -4.63 KCAL/MOL
REMARK 924 INTRA-LIGAND FREE ENERGY PREDICTED BY IDOCK:   -1.11 KCAL/MOL
REMARK 927      BINDING AFFINITY PREDICTED BY RF-SCORE:    0.00 PKD
ROOT
HETATM    1  C   UNL     1      -6.413  10.860  68.377  1.00  0.00    -0.057 C  
HETATM    2  C   UNL     1      -6.525  12.091  69.266  1.00  0.00    -0.111 C  
ENDROOT
BRANCH   2   3
HETATM    3  C   UNL     1      -7.082  13.273  68.481  1.00  0.00    -0.105 C  
BRANCH   3   4
HETATM    4  O   UNL     1      -8.177  12.839  67.672  1.00  0.00    -0.150 OA 
BRANCH   4   5
HETATM    5  C   UNL     1      -9.426  13.289  68.028  1.00  0.00    -0.219 A  
HETATM    6  C   UNL     1      -9.642  14.492  68.719  1.00  0.00    -0.193 A  
HETATM    7  C   UNL     1     -10.922  14.906  69.104  1.00  0.00    -0.260 A  
HETATM    8  C   UNL     1     -12.020  14.170  68.674  1.00  0.00    -0.373 A  
HETATM    9  N   UNL     1     -11.099  16.154  69.712  1.00  0.00    -0.334 NA 
HETATM   10  H1  UNL     1     -12.032  16.456  69.992  1.00  0.00     0.000 HD 
HETATM   11  C   UNL     1     -11.837  12.976  67.981  1.00  0.00    -0.391 A  
HETATM   12  H2  UNL     1     -10.698  16.868  69.105  1.00  0.00     0.000 HD 
HETATM   13  C   UNL     1     -10.546  12.516  67.673  1.00  0.00    -0.234 A  
BRANCH  13  14
HETATM   14  C   UNL     1     -10.488  11.161  67.059  1.00  0.00    -0.235 C  
HETATM   15  O   UNL     1     -10.418  10.975  65.852  1.00  0.00    -0.254 OA 
BRANCH  14  16
HETATM   16  O   UNL     1     -10.797  10.228  67.989  1.00  0.00    -0.236 OA 
BRANCH  16  17
HETATM   17  C   UNL     1      -9.677   9.511  68.532  1.00  0.00    -0.151 C  
BRANCH  17  18
HETATM   18  C   UNL     1     -10.269   8.465  69.493  1.00  0.00    -0.207 C  
BRANCH  18  19
HETATM   19  N   UNL     1      -9.752   8.435  70.877  1.00  0.00    -0.168 NA 
BRANCH  19  20
HETATM   20  C   UNL     1     -10.763   9.031  71.769  1.00  0.00    -0.367 C  
HETATM   21  C   UNL     1     -12.167   9.090  71.180  1.00  0.00    -0.331 C  
ENDBRANCH  19  20
BRANCH  19  22
HETATM   22  C   UNL     1      -8.410   9.016  71.006  1.00  0.00    -0.189 C  
HETATM   23  C   UNL     1      -7.268   8.033  71.246  1.00  0.00    -0.062 C  
ENDBRANCH  19  22
ENDBRANCH  18  19
ENDBRANCH  17  18
ENDBRANCH  16  17
ENDBRANCH  14  16
ENDBRANCH  13  14
ENDBRANCH   4   5
ENDBRANCH   3   4
ENDBRANCH   2   3
TORSDOF 10
ENDMDL
MODEL      256
REMARK 921   NORMALIZED FREE ENERGY PREDICTED BY IDOCK:   -2.95 KCAL/MOL
REMARK 922        TOTAL FREE ENERGY PREDICTED BY IDOCK:   -5.73 KCAL/MOL
REMARK 923 INTER-LIGAND FREE ENERGY PREDICTED BY IDOCK:   -5.20 KCAL/MOL
REMARK 924 INTRA-LIGAND FREE ENERGY PREDICTED BY IDOCK:   -0.53 KCAL/MOL
REMARK 927      BINDING AFFINITY PREDICTED BY RF-SCORE:    0.00 PKD
ROOT
HETATM    1  C   UNL     1      -6.692  11.104  69.353  1.00  0.00    -0.120 C  
HETATM    2  C   UNL     1      -7.614   9.894  69.395  1.00  0.00    -0.113 C  
ENDROOT
BRANCH   2   3
HETATM    3  C   UNL     1      -9.058  10.324  69.618  1.00  0.00    -0.125 C  
BRANCH   3   4
HETATM    4  O   UNL     1      -9.911   9.178  69.588  1.00  0.00    -0.178 OA 
BRANCH   4   5
HETATM    5  C   UNL     1     -10.978   9.178  70.455  1.00  0.00    -0.248 A  
HETATM    6  C   UNL     1     -11.614  10.351  70.892  1.00  0.00    -0.428 A  
HETATM    7  C   UNL     1     -12.673  10.323  71.806  1.00  0.00    -0.433 A  
HETATM    8  C   UNL     1     -13.193   9.091  72.189  1.00  0.00    -0.504 A  
HETATM    9  N   UNL     1     -13.334  11.508  72.146  1.00  0.00    -0.562 NA 
HETATM   10  H1  UNL     1     -14.106  11.487  72.812  1.00  0.00     0.000 HD 
HETATM   11  C   UNL     1     -12.588   7.911  71.766  1.00  0.00    -0.353 A  
HETATM   12  H2  UNL     1     -13.660  11.952  71.288  1.00  0.00     0.000 HD 
HETATM   13  C   UNL     1     -11.468   7.943  70.918  1.00  0.00    -0.294 A  
BRANCH  13  14
HETATM   14  C   UNL     1     -10.833   6.622  70.659  1.00  0.00    -0.253 C  
HETATM   15  O   UNL     1      -9.730   6.314  71.088  1.00  0.00    -0.174 OA 
BRANCH  14  16
HETATM   16  O   UNL     1     -11.518   5.971  69.691  1.00  0.00    -0.394 OA 
BRANCH  16  17
HETATM   17  C   UNL     1     -11.285   6.440  68.354  1.00  0.00    -0.200 C  
BRANCH  17  18
HETATM   18  C   UNL     1      -9.859   5.991  67.990  1.00  0.00    -0.124 C  
BRANCH  18  19
HETATM   19  N   UNL     1      -9.667   5.297  66.700  1.00  0.00    -0.150 NA 
BRANCH  19  20
HETATM   20  C   UNL     1      -9.140   3.946  66.968  1.00  0.00    -0.152 C  
HETATM   21  C   UNL     1      -7.643   3.797  66.735  1.00  0.00    -0.080 C  
ENDBRANCH  19  20
BRANCH  19  22
HETATM   22  C   UNL     1      -8.881   6.076  65.736  1.00  0.00    -0.135 C  
HETATM   23  C   UNL     1      -8.769   7.574  66.006  1.00  0.00    -0.178 C  
ENDBRANCH  19  22
ENDBRANCH  18  19
ENDBRANCH  17  18
ENDBRANCH  16  17
ENDBRANCH  14  16
ENDBRANCH  13  14
ENDBRANCH   4   5
ENDBRANCH   3   4
ENDBRANCH   2   3
TORSDOF 10
ENDMDL
MODEL      257
REMARK 921   NORMALIZED FREE ENERGY PREDICTED BY IDOCK:   -2.87 KCAL/MOL
REMARK 922        TOTAL FREE ENERGY PREDICTED BY IDOCK:   -5.60 KCAL/MOL
REMARK 923 INTER-LIGAND FREE ENERGY PREDICTED BY IDOCK:   -4.71 KCAL/MOL
REMARK 924 INTRA-LIGAND FREE ENERGY PREDICTED BY IDOCK:   -0.90 KCAL/MOL
REMARK 927      BINDING AFFINITY PREDICTED BY RF-SCORE:    0.00 PKD
ROOT
HETATM    1  C   UNL     1     -12.632  10.556  70.767  1.00  0.00    -0.474 C  
HETATM    2  C   UNL     1     -13.223   9.861  71.985  1.00  0.00    -0.555 C  
ENDROOT
BRANCH   2   3
HETATM    3  C   UNL     1     -13.044   8.351  71.883  1.00  0.00    -0.358 C  
BRANCH   3   4
HETATM    4  O   UNL     1     -12.119   8.047  70.838  1.00  0.00    -0.263 OA 
BRANCH   4   5
HETATM    5  C   UNL     1     -11.155   7.108  71.118  1.00  0.00    -0.254 A  
HETATM    6  C   UNL     1     -11.390   5.982  71.925  1.00  0.00    -0.335 A  
HETATM    7  C   UNL     1     -10.379   5.063  72.227  1.00  0.00    -0.209 A  
HETATM    8  C   UNL     1      -9.144   5.198  71.602  1.00  0.00    -0.163 A  
HETATM    9  N   UNL     1     -10.679   3.910  72.961  1.00  0.00    -0.170 NA 
HETATM   10  H1  UNL     1      -9.943   3.240  73.180  1.00  0.00     0.000 HD 
HETATM   11  C   UNL     1      -8.885   6.300  70.790  1.00  0.00    -0.144 A  
HETATM   12  H2  UNL     1     -11.436   3.415  72.489  1.00  0.00     0.000 HD 
HETATM   13  C   UNL     1      -9.874   7.270  70.561  1.00  0.00    -0.183 A  
BRANCH  13  14
HETATM   14  C   UNL     1      -9.422   8.464  69.796  1.00  0.00    -0.162 C  
HETATM   15  O   UNL     1      -9.441   9.599  70.253  1.00  0.00    -0.242 OA 
BRANCH  14  16
HETATM   16  O   UNL     1      -9.267   8.137  68.492  1.00  0.00    -0.137 OA 
BRANCH  16  17
HETATM   17  C   UNL     1     -10.387   7.468  67.892  1.00  0.00    -0.210 C  
BRANCH  17  18
HETATM   18  C   UNL     1      -9.800   6.556  66.800  1.00  0.00    -0.162 C  
BRANCH  18  19
HETATM   19  N   UNL     1      -8.916   5.453  67.231  1.00  0.00    -0.112 NA 
BRANCH  19  20
HETATM   20  C   UNL     1      -7.647   5.550  66.486  1.00  0.00    -0.088 C  
HETATM   21  C   UNL     1      -6.443   4.971  67.217  1.00  0.00    -0.049 C  
ENDBRANCH  19  20
BRANCH  19  22
HETATM   22  C   UNL     1      -9.560   4.136  67.164  1.00  0.00    -0.197 C  
HETATM   23  C   UNL     1      -9.380   3.232  68.381  1.00  0.00    -0.241 C  
ENDBRANCH  19  22
ENDBRANCH  18  19
ENDBRANCH  17  18
ENDBRANCH  16  17
ENDBRANCH  14  16
ENDBRANCH  13  14
ENDBRANCH   4   5
ENDBRANCH   3   4
ENDBRANCH   2   3
TORSDOF 10
ENDMDL
MODEL      258
REMARK 921   NORMALIZED FREE ENERGY PREDICTED BY IDOCK:   -2.87 KCAL/MOL
REMARK 922        TOTAL FREE ENERGY PREDICTED BY IDOCK:   -5.60 KCAL/MOL
REMARK 923 INTER-LIGAND FREE ENERGY PREDICTED BY IDOCK:   -4.73 KCAL/MOL
REMARK 924 INTRA-LIGAND FREE ENERGY PREDICTED BY IDOCK:   -0.87 KCAL/MOL
REMARK 927      BINDING AFFINITY PREDICTED BY RF-SCORE:    0.00 PKD
ROOT
HETATM    1  C   UNL     1     -12.295  13.328  63.401  1.00  0.00    -0.402 C  
HETATM    2  C   UNL     1     -11.748  12.030  63.980  1.00  0.00    -0.498 C  
ENDROOT
BRANCH   2   3
HETATM    3  C   UNL     1     -10.643  12.313  64.989  1.00  0.00    -0.287 C  
BRANCH   3   4
HETATM    4  O   UNL     1     -10.188  11.086  65.561  1.00  0.00    -0.248 OA 
BRANCH   4   5
HETATM    5  C   UNL     1      -8.876  10.744  65.334  1.00  0.00    -0.189 A  
HETATM    6  C   UNL     1      -8.433  10.144  64.144  1.00  0.00    -0.182 A  
HETATM    7  C   UNL     1      -7.098   9.770  63.955  1.00  0.00    -0.122 A  
HETATM    8  C   UNL     1      -6.162  10.124  64.920  1.00  0.00    -0.125 A  
HETATM    9  N   UNL     1      -6.684   9.257  62.722  1.00  0.00    -0.093 NA 
HETATM   10  H1  UNL     1      -5.711   8.985  62.584  1.00  0.00     0.000 HD 
HETATM   11  C   UNL     1      -6.570  10.728  66.107  1.00  0.00    -0.127 A  
HETATM   12  H2  UNL     1      -6.939   9.923  61.993  1.00  0.00     0.000 HD 
HETATM   13  C   UNL     1      -7.925  11.021  66.333  1.00  0.00    -0.161 A  
BRANCH  13  14
HETATM   14  C   UNL     1      -8.243  11.530  67.695  1.00  0.00    -0.131 C  
HETATM   15  O   UNL     1      -8.372  10.801  68.669  1.00  0.00    -0.126 OA 
BRANCH  14  16
HETATM   16  O   UNL     1      -8.624  12.827  67.618  1.00  0.00    -0.158 OA 
BRANCH  16  17
HETATM   17  C   UNL     1      -7.923  13.723  68.494  1.00  0.00    -0.131 C  
BRANCH  17  18
HETATM   18  C   UNL     1      -8.476  15.127  68.194  1.00  0.00    -0.152 C  
BRANCH  18  19
HETATM   19  N   UNL     1      -9.587  15.234  67.225  1.00  0.00    -0.210 NA 
BRANCH  19  20
HETATM   20  C   UNL     1      -9.241  16.261  66.225  1.00  0.00    -0.328 C  
HETATM   21  C   UNL     1      -7.833  16.824  66.362  1.00  0.00    -0.353 C  
ENDBRANCH  19  20
BRANCH  19  22
HETATM   22  C   UNL     1     -10.894  15.423  67.864  1.00  0.00    -0.300 C  
HETATM   23  C   UNL     1     -11.998  14.455  67.448  1.00  0.00    -0.407 C  
ENDBRANCH  19  22
ENDBRANCH  18  19
ENDBRANCH  17  18
ENDBRANCH  16  17
ENDBRANCH  14  16
ENDBRANCH  13  14
ENDBRANCH   4   5
ENDBRANCH   3   4
ENDBRANCH   2   3
TORSDOF 10
ENDMDL
MODEL      259
REMARK 921   NORMALIZED FREE ENERGY PREDICTED BY IDOCK:   -2.86 KCAL/MOL
REMARK 922        TOTAL FREE ENERGY PREDICTED BY IDOCK:   -5.59 KCAL/MOL
REMARK 923 INTER-LIGAND FREE ENERGY PREDICTED BY IDOCK:   -5.10 KCAL/MOL
REMARK 924 INTRA-LIGAND FREE ENERGY PREDICTED BY IDOCK:   -0.49 KCAL/MOL
REMARK 927      BINDING AFFINITY PREDICTED BY RF-SCORE:    0.00 PKD
ROOT
HETATM    1  C   UNL     1     -10.367  18.606  66.318  1.00  0.00    -0.483 C  
HETATM    2  C   UNL     1     -10.686  17.791  67.564  1.00  0.00    -0.315 C  
ENDROOT
BRANCH   2   3
HETATM    3  C   UNL     1      -9.414  17.210  68.168  1.00  0.00    -0.269 C  
BRANCH   3   4
HETATM    4  O   UNL     1      -9.293  15.834  67.803  1.00  0.00    -0.204 OA 
BRANCH   4   5
HETATM    5  C   UNL     1     -10.230  14.972  68.320  1.00  0.00    -0.222 A  
HETATM    6  C   UNL     1     -10.767  15.103  69.612  1.00  0.00    -0.289 A  
HETATM    7  C   UNL     1     -11.690  14.188  70.128  1.00  0.00    -0.280 A  
HETATM    8  C   UNL     1     -12.188  13.196  69.289  1.00  0.00    -0.165 A  
HETATM    9  N   UNL     1     -12.264  14.407  71.384  1.00  0.00    -0.350 NA 
HETATM   10  H1  UNL     1     -12.938  13.740  71.760  1.00  0.00     0.000 HD 
HETATM   11  C   UNL     1     -11.681  13.046  68.001  1.00  0.00    -0.397 A  
HETATM   12  H2  UNL     1     -12.692  15.333  71.386  1.00  0.00     0.000 HD 
HETATM   13  C   UNL     1     -10.687  13.913  67.516  1.00  0.00    -0.271 A  
BRANCH  13  14
HETATM   14  C   UNL     1     -10.132  13.553  66.182  1.00  0.00    -0.304 C  
HETATM   15  O   UNL     1     -10.204  14.288  65.207  1.00  0.00    -0.353 OA 
BRANCH  14  16
HETATM   16  O   UNL     1      -9.810  12.239  66.163  1.00  0.00    -0.235 OA 
BRANCH  16  17
HETATM   17  C   UNL     1      -8.548  11.909  66.764  1.00  0.00    -0.181 C  
BRANCH  17  18
HETATM   18  C   UNL     1      -8.875  11.011  67.970  1.00  0.00    -0.138 C  
BRANCH  18  19
HETATM   19  N   UNL     1      -8.432   9.603  67.916  1.00  0.00    -0.121 NA 
BRANCH  19  20
HETATM   20  C   UNL     1      -9.325   8.864  67.004  1.00  0.00    -0.152 C  
HETATM   21  C   UNL     1      -8.664   8.407  65.710  1.00  0.00    -0.199 C  
ENDBRANCH  19  20
BRANCH  19  22
HETATM   22  C   UNL     1      -8.279   8.993  69.242  1.00  0.00    -0.117 C  
HETATM   23  C   UNL     1      -6.926   9.183  69.923  1.00  0.00    -0.054 C  
ENDBRANCH  19  22
ENDBRANCH  18  19
ENDBRANCH  17  18
ENDBRANCH  16  17
ENDBRANCH  14  16
ENDBRANCH  13  14
ENDBRANCH   4   5
ENDBRANCH   3   4
ENDBRANCH   2   3
TORSDOF 10
ENDMDL
MODEL      260
REMARK 921   NORMALIZED FREE ENERGY PREDICTED BY IDOCK:   -2.86 KCAL/MOL
REMARK 922        TOTAL FREE ENERGY PREDICTED BY IDOCK:   -5.59 KCAL/MOL
REMARK 923 INTER-LIGAND FREE ENERGY PREDICTED BY IDOCK:   -4.64 KCAL/MOL
REMARK 924 INTRA-LIGAND FREE ENERGY PREDICTED BY IDOCK:   -0.95 KCAL/MOL
REMARK 927      BINDING AFFINITY PREDICTED BY RF-SCORE:    0.00 PKD
ROOT
HETATM    1  C   UNL     1      -9.822   9.126  65.927  1.00  0.00    -0.305 C  
HETATM    2  C   UNL     1     -10.136   8.783  67.377  1.00  0.00    -0.289 C  
ENDROOT
BRANCH   2   3
HETATM    3  C   UNL     1      -9.931   7.296  67.635  1.00  0.00    -0.162 C  
BRANCH   3   4
HETATM    4  O   UNL     1      -9.457   7.100  68.969  1.00  0.00    -0.144 OA 
BRANCH   4   5
HETATM    5  C   UNL     1     -10.294   7.487  69.987  1.00  0.00    -0.221 A  
HETATM    6  C   UNL     1     -11.627   7.055  70.093  1.00  0.00    -0.273 A  
HETATM    7  C   UNL     1     -12.470   7.497  71.118  1.00  0.00    -0.275 A  
HETATM    8  C   UNL     1     -11.933   8.280  72.134  1.00  0.00    -0.429 A  
HETATM    9  N   UNL     1     -13.762   6.973  71.235  1.00  0.00    -0.389 NA 
HETATM   10  H1  UNL     1     -14.376   7.295  71.983  1.00  0.00     0.000 HD 
HETATM   11  C   UNL     1     -10.613   8.717  72.061  1.00  0.00    -0.421 A  
HETATM   12  H2  UNL     1     -13.694   5.957  71.288  1.00  0.00     0.000 HD 
HETATM   13  C   UNL     1      -9.793   8.345  70.982  1.00  0.00    -0.232 A  
BRANCH  13  14
HETATM   14  C   UNL     1      -8.455   8.996  70.952  1.00  0.00    -0.208 C  
HETATM   15  O   UNL     1      -7.602   8.814  71.811  1.00  0.00    -0.220 OA 
BRANCH  14  16
HETATM   16  O   UNL     1      -8.450   9.983  70.026  1.00  0.00    -0.187 OA 
BRANCH  16  17
HETATM   17  C   UNL     1      -7.282  10.034  69.193  1.00  0.00    -0.076 C  
BRANCH  17  18
HETATM   18  C   UNL     1      -7.553  11.134  68.151  1.00  0.00    -0.103 C  
BRANCH  18  19
HETATM   19  N   UNL     1      -7.974  12.460  68.648  1.00  0.00    -0.090 NA 
BRANCH  19  20
HETATM   20  C   UNL     1      -9.146  12.902  67.871  1.00  0.00    -0.201 C  
HETATM   21  C   UNL     1      -9.510  14.369  68.059  1.00  0.00    -0.209 C  
ENDBRANCH  19  20
BRANCH  19  22
HETATM   22  C   UNL     1      -6.876  13.433  68.699  1.00  0.00    -0.098 C  
HETATM   23  C   UNL     1      -6.185  13.604  70.049  1.00  0.00    -0.109 C  
ENDBRANCH  19  22
ENDBRANCH  18  19
ENDBRANCH  17  18
ENDBRANCH  16  17
ENDBRANCH  14  16
ENDBRANCH  13  14
ENDBRANCH   4   5
ENDBRANCH   3   4
ENDBRANCH   2   3
TORSDOF 10
ENDMDL
MODEL      261
REMARK 921   NORMALIZED FREE ENERGY PREDICTED BY IDOCK:   -2.80 KCAL/MOL
REMARK 922        TOTAL FREE ENERGY PREDICTED BY IDOCK:   -5.49 KCAL/MOL
REMARK 923 INTER-LIGAND FREE ENERGY PREDICTED BY IDOCK:   -4.69 KCAL/MOL
REMARK 924 INTRA-LIGAND FREE ENERGY PREDICTED BY IDOCK:   -0.81 KCAL/MOL
REMARK 927      BINDING AFFINITY PREDICTED BY RF-SCORE:    0.00 PKD
ROOT
HETATM    1  C   UNL     1      -9.177   2.144  70.320  1.00  0.00    -0.187 C  
HETATM    2  C   UNL     1      -9.088   3.348  69.393  1.00  0.00    -0.199 C  
ENDROOT
BRANCH   2   3
HETATM    3  C   UNL     1      -8.012   4.317  69.869  1.00  0.00    -0.056 C  
BRANCH   3   4
HETATM    4  O   UNL     1      -8.537   5.646  69.889  1.00  0.00    -0.121 OA 
BRANCH   4   5
HETATM    5  C   UNL     1      -9.692   5.845  70.606  1.00  0.00    -0.176 A  
HETATM    6  C   UNL     1      -9.861   5.407  71.930  1.00  0.00    -0.218 A  
HETATM    7  C   UNL     1     -11.063   5.588  72.623  1.00  0.00    -0.282 A  
HETATM    8  C   UNL     1     -12.071   6.339  72.028  1.00  0.00    -0.321 A  
HETATM    9  N   UNL     1     -11.157   5.215  73.968  1.00  0.00    -0.424 NA 
HETATM   10  H1  UNL     1     -12.033   5.348  74.473  1.00  0.00     0.000 HD 
HETATM   11  C   UNL     1     -11.929   6.794  70.719  1.00  0.00    -0.433 A  
HETATM   12  H2  UNL     1     -10.413   5.683  74.485  1.00  0.00     0.000 HD 
HETATM   13  C   UNL     1     -10.755   6.533  69.993  1.00  0.00    -0.302 A  
BRANCH  13  14
HETATM   14  C   UNL     1     -10.791   6.947  68.564  1.00  0.00    -0.180 C  
HETATM   15  O   UNL     1     -10.580   6.177  67.638  1.00  0.00    -0.206 OA 
BRANCH  14  16
HETATM   16  O   UNL     1     -10.814   8.298  68.483  1.00  0.00    -0.069 OA 
BRANCH  16  17
HETATM   17  C   UNL     1      -9.537   8.940  68.614  1.00  0.00    -0.153 C  
BRANCH  17  18
HETATM   18  C   UNL     1      -9.833  10.439  68.797  1.00  0.00    -0.185 C  
BRANCH  18  19
HETATM   19  N   UNL     1      -9.632  11.325  67.632  1.00  0.00    -0.169 NA 
BRANCH  19  20
HETATM   20  C   UNL     1     -10.948  11.640  67.048  1.00  0.00    -0.288 C  
HETATM   21  C   UNL     1     -11.330  13.113  67.114  1.00  0.00    -0.354 C  
ENDBRANCH  19  20
BRANCH  19  22
HETATM   22  C   UNL     1      -8.650  10.806  66.674  1.00  0.00    -0.143 C  
HETATM   23  C   UNL     1      -9.155  10.552  65.256  1.00  0.00    -0.220 C  
ENDBRANCH  19  22
ENDBRANCH  18  19
ENDBRANCH  17  18
ENDBRANCH  16  17
ENDBRANCH  14  16
ENDBRANCH  13  14
ENDBRANCH   4   5
ENDBRANCH   3   4
ENDBRANCH   2   3
TORSDOF 10
ENDMDL
MODEL      262
REMARK 921   NORMALIZED FREE ENERGY PREDICTED BY IDOCK:   -2.79 KCAL/MOL
REMARK 922        TOTAL FREE ENERGY PREDICTED BY IDOCK:   -5.48 KCAL/MOL
REMARK 923 INTER-LIGAND FREE ENERGY PREDICTED BY IDOCK:   -4.69 KCAL/MOL
REMARK 924 INTRA-LIGAND FREE ENERGY PREDICTED BY IDOCK:   -0.79 KCAL/MOL
REMARK 927      BINDING AFFINITY PREDICTED BY RF-SCORE:    0.00 PKD
ROOT
HETATM    1  C   UNL     1     -12.778  14.177  65.046  1.00  0.00    -0.336 C  
HETATM    2  C   UNL     1     -11.876  14.032  66.264  1.00  0.00    -0.428 C  
ENDROOT
BRANCH   2   3
HETATM    3  C   UNL     1     -10.410  14.016  65.850  1.00  0.00    -0.318 C  
BRANCH   3   4
HETATM    4  O   UNL     1      -9.742  12.927  66.490  1.00  0.00    -0.246 OA 
BRANCH   4   5
HETATM    5  C   UNL     1      -9.528  11.800  65.734  1.00  0.00    -0.216 A  
HETATM    6  C   UNL     1      -9.981  11.664  64.411  1.00  0.00    -0.298 A  
HETATM    7  C   UNL     1      -9.785  10.489  63.677  1.00  0.00    -0.318 A  
HETATM    8  C   UNL     1      -9.004   9.479  64.228  1.00  0.00    -0.248 A  
HETATM    9  N   UNL     1     -10.175  10.431  62.335  1.00  0.00    -0.657 NA 
HETATM   10  H1  UNL     1     -10.031   9.574  61.800  1.00  0.00     0.000 HD 
HETATM   11  C   UNL     1      -8.534   9.589  65.535  1.00  0.00    -0.150 A  
HETATM   12  H2  UNL     1      -9.731  11.201  61.836  1.00  0.00     0.000 HD 
HETATM   13  C   UNL     1      -8.809  10.733  66.302  1.00  0.00    -0.182 A  
BRANCH  13  14
HETATM   14  C   UNL     1      -8.374  10.660  67.723  1.00  0.00    -0.115 C  
HETATM   15  O   UNL     1      -9.141  10.797  68.667  1.00  0.00    -0.158 OA 
BRANCH  14  16
HETATM   16  O   UNL     1      -7.023  10.700  67.788  1.00  0.00    -0.076 OA 
BRANCH  16  17
HETATM   17  C   UNL     1      -6.429  11.952  67.411  1.00  0.00    -0.126 C  
BRANCH  17  18
HETATM   18  C   UNL     1      -5.952  12.605  68.720  1.00  0.00    -0.067 C  
BRANCH  18  19
HETATM   19  N   UNL     1      -6.095  14.070  68.847  1.00  0.00    -0.082 NA 
BRANCH  19  20
HETATM   20  C   UNL     1      -6.298  14.402  70.269  1.00  0.00    -0.158 C  
HETATM   21  C   UNL     1      -5.511  13.529  71.237  1.00  0.00    -0.207 C  
ENDBRANCH  19  20
BRANCH  19  22
HETATM   22  C   UNL     1      -7.103  14.633  67.941  1.00  0.00    -0.158 C  
HETATM   23  C   UNL     1      -7.256  16.152  67.958  1.00  0.00    -0.139 C  
ENDBRANCH  19  22
ENDBRANCH  18  19
ENDBRANCH  17  18
ENDBRANCH  16  17
ENDBRANCH  14  16
ENDBRANCH  13  14
ENDBRANCH   4   5
ENDBRANCH   3   4
ENDBRANCH   2   3
TORSDOF 10
ENDMDL
MODEL      263
REMARK 921   NORMALIZED FREE ENERGY PREDICTED BY IDOCK:   -2.79 KCAL/MOL
REMARK 922        TOTAL FREE ENERGY PREDICTED BY IDOCK:   -5.47 KCAL/MOL
REMARK 923 INTER-LIGAND FREE ENERGY PREDICTED BY IDOCK:   -4.90 KCAL/MOL
REMARK 924 INTRA-LIGAND FREE ENERGY PREDICTED BY IDOCK:   -0.57 KCAL/MOL
REMARK 927      BINDING AFFINITY PREDICTED BY RF-SCORE:    0.00 PKD
ROOT
HETATM    1  C   UNL     1      -8.954   4.812  71.019  1.00  0.00    -0.163 C  
HETATM    2  C   UNL     1      -8.885   5.510  72.370  1.00  0.00    -0.135 C  
ENDROOT
BRANCH   2   3
HETATM    3  C   UNL     1      -7.860   6.638  72.342  1.00  0.00    -0.099 C  
BRANCH   3   4
HETATM    4  O   UNL     1      -8.421   7.812  72.932  1.00  0.00    -0.127 OA 
BRANCH   4   5
HETATM    5  C   UNL     1      -9.560   8.314  72.351  1.00  0.00    -0.294 A  
HETATM    6  C   UNL     1     -10.847   8.111  72.877  1.00  0.00    -0.310 A  
HETATM    7  C   UNL     1     -11.993   8.600  72.243  1.00  0.00    -0.368 A  
HETATM    8  C   UNL     1     -11.843   9.422  71.131  1.00  0.00    -0.413 A  
HETATM    9  N   UNL     1     -13.245   8.450  72.848  1.00  0.00    -0.625 NA 
HETATM   10  H1  UNL     1     -14.081   8.807  72.386  1.00  0.00     0.000 HD 
HETATM   11  C   UNL     1     -10.579   9.648  70.591  1.00  0.00    -0.386 A  
HETATM   12  H2  UNL     1     -13.200   8.849  73.785  1.00  0.00     0.000 HD 
HETATM   13  C   UNL     1      -9.436   9.082  71.179  1.00  0.00    -0.348 A  
BRANCH  13  14
HETATM   14  C   UNL     1      -8.171   9.283  70.421  1.00  0.00    -0.178 C  
HETATM   15  O   UNL     1      -7.407  10.216  70.628  1.00  0.00    -0.306 OA 
BRANCH  14  16
HETATM   16  O   UNL     1      -8.155   8.469  69.339  1.00  0.00    -0.108 OA 
BRANCH  16  17
HETATM   17  C   UNL     1      -7.980   9.132  68.078  1.00  0.00    -0.101 C  
BRANCH  17  18
HETATM   18  C   UNL     1      -9.143   8.662  67.186  1.00  0.00    -0.133 C  
BRANCH  18  19
HETATM   19  N   UNL     1      -8.924   7.464  66.349  1.00  0.00    -0.157 NA 
BRANCH  19  20
HETATM   20  C   UNL     1      -9.136   6.265  67.180  1.00  0.00    -0.119 C  
HETATM   21  C   UNL     1     -10.368   5.451  66.809  1.00  0.00    -0.321 C  
ENDBRANCH  19  20
BRANCH  19  22
HETATM   22  C   UNL     1      -7.645   7.487  65.630  1.00  0.00    -0.091 C  
HETATM   23  C   UNL     1      -7.723   7.419  64.108  1.00  0.00    -0.121 C  
ENDBRANCH  19  22
ENDBRANCH  18  19
ENDBRANCH  17  18
ENDBRANCH  16  17
ENDBRANCH  14  16
ENDBRANCH  13  14
ENDBRANCH   4   5
ENDBRANCH   3   4
ENDBRANCH   2   3
TORSDOF 10
ENDMDL
MODEL      264
REMARK 921   NORMALIZED FREE ENERGY PREDICTED BY IDOCK:   -2.78 KCAL/MOL
REMARK 922        TOTAL FREE ENERGY PREDICTED BY IDOCK:   -5.47 KCAL/MOL
REMARK 923 INTER-LIGAND FREE ENERGY PREDICTED BY IDOCK:   -6.20 KCAL/MOL
REMARK 924 INTRA-LIGAND FREE ENERGY PREDICTED BY IDOCK:    0.73 KCAL/MOL
REMARK 927      BINDING AFFINITY PREDICTED BY RF-SCORE:    0.00 PKD
ROOT
HETATM    1  C   UNL     1      -8.055   8.313  72.490  1.00  0.00    -0.209 C  
HETATM    2  C   UNL     1      -8.265   7.322  71.353  1.00  0.00    -0.106 C  
ENDROOT
BRANCH   2   3
HETATM    3  C   UNL     1      -9.698   6.804  71.349  1.00  0.00    -0.171 C  
BRANCH   3   4
HETATM    4  O   UNL     1     -10.460   7.506  70.365  1.00  0.00    -0.215 OA 
BRANCH   4   5
HETATM    5  C   UNL     1     -11.344   8.453  70.825  1.00  0.00    -0.265 A  
HETATM    6  C   UNL     1     -12.342   8.176  71.775  1.00  0.00    -0.357 A  
HETATM    7  C   UNL     1     -13.254   9.150  72.196  1.00  0.00    -0.458 A  
HETATM    8  C   UNL     1     -13.082  10.459  71.761  1.00  0.00    -0.567 A  
HETATM    9  N   UNL     1     -14.174   8.854  73.207  1.00  0.00    -1.237 NA 
HETATM   10  H1  UNL     1     -14.839   9.564  73.514  1.00  0.00     0.000 HD 
HETATM   11  C   UNL     1     -12.096  10.765  70.826  1.00  0.00    -0.473 A  
HETATM   12  H2  UNL     1     -13.661   8.518  74.022  1.00  0.00     0.000 HD 
HETATM   13  C   UNL     1     -11.238   9.767  70.336  1.00  0.00    -0.362 A  
BRANCH  13  14
HETATM   14  C   UNL     1     -10.329  10.198  69.239  1.00  0.00    -0.223 C  
HETATM   15  O   UNL     1      -9.139  10.427  69.406  1.00  0.00    -0.196 OA 
BRANCH  14  16
HETATM   16  O   UNL     1     -11.060  10.549  68.155  1.00  0.00    -0.253 OA 
BRANCH  16  17
HETATM   17  C   UNL     1     -10.724  11.818  67.575  1.00  0.00    -0.221 C  
BRANCH  17  18
HETATM   18  C   UNL     1      -9.295  12.137  68.051  1.00  0.00    -0.197 C  
BRANCH  18  19
HETATM   19  N   UNL     1      -8.238  12.244  67.024  1.00  0.00    -0.175 NA 
BRANCH  19  20
HETATM   20  C   UNL     1      -8.062  10.924  66.391  1.00  0.00    -0.164 C  
HETATM   21  C   UNL     1      -6.655  10.658  65.872  1.00  0.00    -0.118 C  
ENDBRANCH  19  20
BRANCH  19  22
HETATM   22  C   UNL     1      -6.999  12.846  67.530  1.00  0.00    -0.149 C  
HETATM   23  C   UNL     1      -6.800  12.815  69.043  1.00  0.00    -0.081 C  
ENDBRANCH  19  22
ENDBRANCH  18  19
ENDBRANCH  17  18
ENDBRANCH  16  17
ENDBRANCH  14  16
ENDBRANCH  13  14
ENDBRANCH   4   5
ENDBRANCH   3   4
ENDBRANCH   2   3
TORSDOF 10
ENDMDL
MODEL      265
REMARK 921   NORMALIZED FREE ENERGY PREDICTED BY IDOCK:   -2.77 KCAL/MOL
REMARK 922        TOTAL FREE ENERGY PREDICTED BY IDOCK:   -5.44 KCAL/MOL
REMARK 923 INTER-LIGAND FREE ENERGY PREDICTED BY IDOCK:   -4.33 KCAL/MOL
REMARK 924 INTRA-LIGAND FREE ENERGY PREDICTED BY IDOCK:   -1.11 KCAL/MOL
REMARK 927      BINDING AFFINITY PREDICTED BY RF-SCORE:    0.00 PKD
ROOT
HETATM    1  C   UNL     1     -12.881   7.333  71.500  1.00  0.00    -0.430 C  
HETATM    2  C   UNL     1     -12.160   8.344  72.381  1.00  0.00    -0.443 C  
ENDROOT
BRANCH   2   3
HETATM    3  C   UNL     1     -11.551   9.456  71.537  1.00  0.00    -0.397 C  
BRANCH   3   4
HETATM    4  O   UNL     1     -11.612   9.099  70.154  1.00  0.00    -0.165 OA 
BRANCH   4   5
HETATM    5  C   UNL     1     -10.696   9.693  69.320  1.00  0.00    -0.226 A  
HETATM    6  C   UNL     1     -10.347  11.051  69.404  1.00  0.00    -0.134 A  
HETATM    7  C   UNL     1      -9.440  11.640  68.515  1.00  0.00    -0.173 A  
HETATM    8  C   UNL     1      -8.768  10.826  67.609  1.00  0.00    -0.126 A  
HETATM    9  N   UNL     1      -9.055  12.972  68.690  1.00  0.00    -0.389 NA 
HETATM   10  H1  UNL     1      -8.394  13.401  68.043  1.00  0.00     0.000 HD 
HETATM   11  C   UNL     1      -9.088   9.474  67.509  1.00  0.00    -0.142 A  
HETATM   12  H2  UNL     1      -8.696  13.082  69.638  1.00  0.00     0.000 HD 
HETATM   13  C   UNL     1     -10.064   8.904  68.342  1.00  0.00    -0.215 A  
BRANCH  13  14
HETATM   14  C   UNL     1     -10.410   7.489  68.034  1.00  0.00    -0.204 C  
HETATM   15  O   UNL     1     -11.006   7.152  67.020  1.00  0.00    -0.369 OA 
BRANCH  14  16
HETATM   16  O   UNL     1     -10.220   6.724  69.134  1.00  0.00    -0.168 OA 
BRANCH  16  17
HETATM   17  C   UNL     1      -9.310   5.627  68.966  1.00  0.00    -0.124 C  
BRANCH  17  18
HETATM   18  C   UNL     1      -8.945   5.158  70.385  1.00  0.00    -0.126 C  
BRANCH  18  19
HETATM   19  N   UNL     1      -7.919   5.926  71.119  1.00  0.00    -0.111 NA 
BRANCH  19  20
HETATM   20  C   UNL     1      -8.596   6.852  72.044  1.00  0.00    -0.121 C  
HETATM   21  C   UNL     1      -8.208   8.314  71.868  1.00  0.00    -0.195 C  
ENDBRANCH  19  20
BRANCH  19  22
HETATM   22  C   UNL     1      -6.932   6.562  70.237  1.00  0.00    -0.066 C  
HETATM   23  C   UNL     1      -5.633   5.794  70.010  1.00  0.00    -0.012 C  
ENDBRANCH  19  22
ENDBRANCH  18  19
ENDBRANCH  17  18
ENDBRANCH  16  17
ENDBRANCH  14  16
ENDBRANCH  13  14
ENDBRANCH   4   5
ENDBRANCH   3   4
ENDBRANCH   2   3
TORSDOF 10
ENDMDL
MODEL      266
REMARK 921   NORMALIZED FREE ENERGY PREDICTED BY IDOCK:   -2.76 KCAL/MOL
REMARK 922        TOTAL FREE ENERGY PREDICTED BY IDOCK:   -5.43 KCAL/MOL
REMARK 923 INTER-LIGAND FREE ENERGY PREDICTED BY IDOCK:   -4.67 KCAL/MOL
REMARK 924 INTRA-LIGAND FREE ENERGY PREDICTED BY IDOCK:   -0.76 KCAL/MOL
REMARK 927      BINDING AFFINITY PREDICTED BY RF-SCORE:    0.00 PKD
ROOT
HETATM    1  C   UNL     1      -5.418  15.929  70.369  1.00  0.00    -0.158 C  
HETATM    2  C   UNL     1      -6.339  14.729  70.200  1.00  0.00    -0.169 C  
ENDROOT
BRANCH   2   3
HETATM    3  C   UNL     1      -6.969  14.725  68.813  1.00  0.00    -0.103 C  
BRANCH   3   4
HETATM    4  O   UNL     1      -8.394  14.729  68.932  1.00  0.00    -0.162 OA 
BRANCH   4   5
HETATM    5  C   UNL     1      -9.044  15.875  68.542  1.00  0.00    -0.200 A  
HETATM    6  C   UNL     1      -8.564  17.165  68.822  1.00  0.00    -0.236 A  
HETATM    7  C   UNL     1      -9.268  18.315  68.447  1.00  0.00    -0.317 A  
HETATM    8  C   UNL     1     -10.406  18.176  67.661  1.00  0.00    -0.411 A  
HETATM    9  N   UNL     1      -8.710  19.578  68.668  1.00  0.00    -0.360 NA 
HETATM   10  H1  UNL     1      -9.223  20.417  68.394  1.00  0.00     0.000 HD 
HETATM   11  C   UNL     1     -10.901  16.909  67.360  1.00  0.00    -0.166 A  
HETATM   12  H2  UNL     1      -7.790  19.606  68.229  1.00  0.00     0.000 HD 
HETATM   13  C   UNL     1     -10.242  15.755  67.814  1.00  0.00    -0.251 A  
BRANCH  13  14
HETATM   14  C   UNL     1     -10.953  14.475  67.548  1.00  0.00    -0.293 C  
HETATM   15  O   UNL     1     -11.925  14.102  68.190  1.00  0.00    -0.351 OA 
BRANCH  14  16
HETATM   16  O   UNL     1     -10.211  13.708  66.714  1.00  0.00    -0.260 OA 
BRANCH  16  17
HETATM   17  C   UNL     1     -10.961  12.931  65.768  1.00  0.00    -0.278 C  
BRANCH  17  18
HETATM   18  C   UNL     1     -10.783  11.462  66.190  1.00  0.00    -0.267 C  
BRANCH  18  19
HETATM   19  N   UNL     1      -9.566  11.110  66.951  1.00  0.00    -0.184 NA 
BRANCH  19  20
HETATM   20  C   UNL     1      -8.903   9.978  66.279  1.00  0.00    -0.143 C  
HETATM   21  C   UNL     1      -7.467  10.253  65.852  1.00  0.00    -0.135 C  
ENDBRANCH  19  20
BRANCH  19  22
HETATM   22  C   UNL     1      -9.819  10.904  68.382  1.00  0.00    -0.177 C  
HETATM   23  C   UNL     1      -8.590  10.729  69.268  1.00  0.00    -0.047 C  
ENDBRANCH  19  22
ENDBRANCH  18  19
ENDBRANCH  17  18
ENDBRANCH  16  17
ENDBRANCH  14  16
ENDBRANCH  13  14
ENDBRANCH   4   5
ENDBRANCH   3   4
ENDBRANCH   2   3
TORSDOF 10
ENDMDL
MODEL      267
REMARK 921   NORMALIZED FREE ENERGY PREDICTED BY IDOCK:   -2.74 KCAL/MOL
REMARK 922        TOTAL FREE ENERGY PREDICTED BY IDOCK:   -5.39 KCAL/MOL
REMARK 923 INTER-LIGAND FREE ENERGY PREDICTED BY IDOCK:   -4.37 KCAL/MOL
REMARK 924 INTRA-LIGAND FREE ENERGY PREDICTED BY IDOCK:   -1.02 KCAL/MOL
REMARK 927      BINDING AFFINITY PREDICTED BY RF-SCORE:    0.00 PKD
ROOT
HETATM    1  C   UNL     1     -12.577  11.048  70.762  1.00  0.00    -0.463 C  
HETATM    2  C   UNL     1     -12.070  12.300  70.059  1.00  0.00    -0.346 C  
ENDROOT
BRANCH   2   3
HETATM    3  C   UNL     1     -11.537  11.960  68.672  1.00  0.00    -0.310 C  
BRANCH   3   4
HETATM    4  O   UNL     1     -10.148  12.288  68.597  1.00  0.00    -0.212 OA 
BRANCH   4   5
HETATM    5  C   UNL     1      -9.417  11.665  67.614  1.00  0.00    -0.177 A  
HETATM    6  C   UNL     1      -9.668  11.837  66.243  1.00  0.00    -0.242 A  
HETATM    7  C   UNL     1      -8.933  11.159  65.264  1.00  0.00    -0.121 A  
HETATM    8  C   UNL     1      -7.838  10.398  65.658  1.00  0.00    -0.154 A  
HETATM    9  N   UNL     1      -9.159  11.428  63.910  1.00  0.00    -0.422 NA 
HETATM   10  H1  UNL     1      -8.623  10.934  63.197  1.00  0.00     0.000 HD 
HETATM   11  C   UNL     1      -7.560  10.216  67.011  1.00  0.00    -0.092 A  
HETATM   12  H2  UNL     1      -9.052  12.430  63.758  1.00  0.00     0.000 HD 
HETATM   13  C   UNL     1      -8.355  10.826  67.995  1.00  0.00    -0.120 A  
BRANCH  13  14
HETATM   14  C   UNL     1      -8.037  10.434  69.395  1.00  0.00    -0.155 C  
HETATM   15  O   UNL     1      -7.025  10.796  69.979  1.00  0.00    -0.157 OA 
BRANCH  14  16
HETATM   16  O   UNL     1      -8.866   9.438  69.788  1.00  0.00    -0.152 OA 
BRANCH  16  17
HETATM   17  C   UNL     1      -8.229   8.178  70.048  1.00  0.00    -0.120 C  
BRANCH  17  18
HETATM   18  C   UNL     1      -9.343   7.119  69.984  1.00  0.00    -0.154 C  
BRANCH  18  19
HETATM   19  N   UNL     1      -9.566   6.435  68.693  1.00  0.00    -0.121 NA 
BRANCH  19  20
HETATM   20  C   UNL     1     -10.701   7.080  68.009  1.00  0.00    -0.194 C  
HETATM   21  C   UNL     1     -10.301   8.048  66.903  1.00  0.00    -0.408 C  
ENDBRANCH  19  20
BRANCH  19  22
HETATM   22  C   UNL     1      -9.684   4.978  68.824  1.00  0.00    -0.161 C  
HETATM   23  C   UNL     1      -8.385   4.182  68.734  1.00  0.00    -0.093 C  
ENDBRANCH  19  22
ENDBRANCH  18  19
ENDBRANCH  17  18
ENDBRANCH  16  17
ENDBRANCH  14  16
ENDBRANCH  13  14
ENDBRANCH   4   5
ENDBRANCH   3   4
ENDBRANCH   2   3
TORSDOF 10
ENDMDL
MODEL      268
REMARK 921   NORMALIZED FREE ENERGY PREDICTED BY IDOCK:   -2.73 KCAL/MOL
REMARK 922        TOTAL FREE ENERGY PREDICTED BY IDOCK:   -5.38 KCAL/MOL
REMARK 923 INTER-LIGAND FREE ENERGY PREDICTED BY IDOCK:   -4.59 KCAL/MOL
REMARK 924 INTRA-LIGAND FREE ENERGY PREDICTED BY IDOCK:   -0.79 KCAL/MOL
REMARK 927      BINDING AFFINITY PREDICTED BY RF-SCORE:    0.00 PKD
ROOT
HETATM    1  C   UNL     1      -7.186  11.188  69.193  1.00  0.00    -0.123 C  
HETATM    2  C   UNL     1      -8.265  10.187  68.803  1.00  0.00    -0.113 C  
ENDROOT
BRANCH   2   3
HETATM    3  C   UNL     1      -9.631  10.860  68.758  1.00  0.00    -0.189 C  
BRANCH   3   4
HETATM    4  O   UNL     1     -10.657   9.866  68.801  1.00  0.00    -0.206 OA 
BRANCH   4   5
HETATM    5  C   UNL     1     -11.412   9.804  69.948  1.00  0.00    -0.140 A  
HETATM    6  C   UNL     1     -12.070  10.917  70.497  1.00  0.00    -0.464 A  
HETATM    7  C   UNL     1     -12.799  10.834  71.688  1.00  0.00    -0.457 A  
HETATM    8  C   UNL     1     -12.986   9.585  72.272  1.00  0.00    -0.466 A  
HETATM    9  N   UNL     1     -13.510  11.945  72.151  1.00  0.00    -0.515 NA 
HETATM   10  H1  UNL     1     -14.042  11.885  73.019  1.00  0.00     0.000 HD 
HETATM   11  C   UNL     1     -12.353   8.462  71.745  1.00  0.00    -0.375 A  
HETATM   12  H2  UNL     1     -14.136  12.259  71.411  1.00  0.00     0.000 HD 
HETATM   13  C   UNL     1     -11.547   8.564  70.599  1.00  0.00    -0.214 A  
BRANCH  13  14
HETATM   14  C   UNL     1     -10.816   7.322  70.228  1.00  0.00    -0.245 C  
HETATM   15  O   UNL     1     -11.379   6.295  69.873  1.00  0.00    -0.397 OA 
BRANCH  14  16
HETATM   16  O   UNL     1      -9.520   7.428  70.603  1.00  0.00    -0.164 OA 
BRANCH  16  17
HETATM   17  C   UNL     1      -9.250   7.096  71.973  1.00  0.00    -0.134 C  
BRANCH  17  18
HETATM   18  C   UNL     1      -8.543   5.729  71.946  1.00  0.00    -0.134 C  
BRANCH  18  19
HETATM   19  N   UNL     1      -7.156   5.685  71.442  1.00  0.00    -0.070 NA 
BRANCH  19  20
HETATM   20  C   UNL     1      -7.118   4.824  70.245  1.00  0.00    -0.049 C  
HETATM   21  C   UNL     1      -6.938   3.341  70.542  1.00  0.00    -0.034 C  
ENDBRANCH  19  20
BRANCH  19  22
HETATM   22  C   UNL     1      -6.175   5.332  72.476  1.00  0.00    -0.032 C  
HETATM   23  C   UNL     1      -6.734   5.029  73.863  1.00  0.00    -0.070 C  
ENDBRANCH  19  22
ENDBRANCH  18  19
ENDBRANCH  17  18
ENDBRANCH  16  17
ENDBRANCH  14  16
ENDBRANCH  13  14
ENDBRANCH   4   5
ENDBRANCH   3   4
ENDBRANCH   2   3
TORSDOF 10
ENDMDL
MODEL      269
REMARK 921   NORMALIZED FREE ENERGY PREDICTED BY IDOCK:   -2.72 KCAL/MOL
REMARK 922        TOTAL FREE ENERGY PREDICTED BY IDOCK:   -5.37 KCAL/MOL
REMARK 923 INTER-LIGAND FREE ENERGY PREDICTED BY IDOCK:   -5.25 KCAL/MOL
REMARK 924 INTRA-LIGAND FREE ENERGY PREDICTED BY IDOCK:   -0.12 KCAL/MOL
REMARK 927      BINDING AFFINITY PREDICTED BY RF-SCORE:    0.00 PKD
ROOT
HETATM    1  C   UNL     1      -6.066  17.567  66.206  1.00  0.00    -0.257 C  
HETATM    2  C   UNL     1      -6.729  18.555  67.156  1.00  0.00    -0.207 C  
ENDROOT
BRANCH   2   3
HETATM    3  C   UNL     1      -8.017  17.974  67.724  1.00  0.00    -0.235 C  
BRANCH   3   4
HETATM    4  O   UNL     1      -7.738  17.296  68.952  1.00  0.00    -0.258 OA 
BRANCH   4   5
HETATM    5  C   UNL     1      -7.754  15.923  68.919  1.00  0.00    -0.194 A  
HETATM    6  C   UNL     1      -6.736  15.128  69.472  1.00  0.00    -0.171 A  
HETATM    7  C   UNL     1      -6.758  13.732  69.389  1.00  0.00    -0.079 A  
HETATM    8  C   UNL     1      -7.885  13.111  68.861  1.00  0.00     0.118 A  
HETATM    9  N   UNL     1      -5.770  12.978  70.030  1.00  0.00    -0.122 NA 
HETATM   10  H1  UNL     1      -5.787  11.960  69.970  1.00  0.00     0.000 HD 
HETATM   11  C   UNL     1      -8.914  13.873  68.312  1.00  0.00    -0.187 A  
HETATM   12  H2  UNL     1      -5.751  13.243  71.015  1.00  0.00     0.000 HD 
HETATM   13  C   UNL     1      -8.848  15.276  68.316  1.00  0.00    -0.171 A  
BRANCH  13  14
HETATM   14  C   UNL     1      -9.939  15.962  67.572  1.00  0.00    -0.238 C  
HETATM   15  O   UNL     1     -10.942  16.407  68.113  1.00  0.00    -0.337 OA 
BRANCH  14  16
HETATM   16  O   UNL     1      -9.777  15.765  66.242  1.00  0.00    -0.258 OA 
BRANCH  16  17
HETATM   17  C   UNL     1     -10.836  16.269  65.415  1.00  0.00    -0.273 C  
BRANCH  17  18
HETATM   18  C   UNL     1     -11.557  15.032  64.850  1.00  0.00    -0.374 C  
BRANCH  18  19
HETATM   19  N   UNL     1     -11.157  13.708  65.370  1.00  0.00    -0.294 NA 
BRANCH  19  20
HETATM   20  C   UNL     1     -10.814  12.839  64.231  1.00  0.00    -0.390 C  
HETATM   21  C   UNL     1     -12.014  12.215  63.531  1.00  0.00    -0.619 C  
ENDBRANCH  19  20
BRANCH  19  22
HETATM   22  C   UNL     1     -12.136  13.133  66.300  1.00  0.00    -0.397 C  
HETATM   23  C   UNL     1     -11.712  11.862  67.031  1.00  0.00    -0.304 C  
ENDBRANCH  19  22
ENDBRANCH  18  19
ENDBRANCH  17  18
ENDBRANCH  16  17
ENDBRANCH  14  16
ENDBRANCH  13  14
ENDBRANCH   4   5
ENDBRANCH   3   4
ENDBRANCH   2   3
TORSDOF 10
ENDMDL
MODEL      270
REMARK 921   NORMALIZED FREE ENERGY PREDICTED BY IDOCK:   -2.72 KCAL/MOL
REMARK 922        TOTAL FREE ENERGY PREDICTED BY IDOCK:   -5.36 KCAL/MOL
REMARK 923 INTER-LIGAND FREE ENERGY PREDICTED BY IDOCK:   -4.64 KCAL/MOL
REMARK 924 INTRA-LIGAND FREE ENERGY PREDICTED BY IDOCK:   -0.72 KCAL/MOL
REMARK 927      BINDING AFFINITY PREDICTED BY RF-SCORE:    0.00 PKD
ROOT
HETATM    1  C   UNL     1     -11.364  11.056  68.485  1.00  0.00    -0.355 C  
HETATM    2  C   UNL     1     -11.651  11.610  67.096  1.00  0.00    -0.291 C  
ENDROOT
BRANCH   2   3
HETATM    3  C   UNL     1     -10.504  12.493  66.621  1.00  0.00    -0.233 C  
BRANCH   3   4
HETATM    4  O   UNL     1     -10.935  13.855  66.572  1.00  0.00    -0.296 OA 
BRANCH   4   5
HETATM    5  C   UNL     1     -10.950  14.543  67.760  1.00  0.00    -0.275 A  
HETATM    6  C   UNL     1     -12.099  14.676  68.558  1.00  0.00    -0.229 A  
HETATM    7  C   UNL     1     -12.096  15.417  69.744  1.00  0.00    -0.347 A  
HETATM    8  C   UNL     1     -10.888  15.924  70.213  1.00  0.00    -0.349 A  
HETATM    9  N   UNL     1     -13.238  15.450  70.551  1.00  0.00    -0.707 NA 
HETATM   10  H1  UNL     1     -13.235  15.989  71.417  1.00  0.00     0.000 HD 
HETATM   11  C   UNL     1      -9.731  15.801  69.448  1.00  0.00    -0.286 A  
HETATM   12  H2  UNL     1     -13.505  14.490  70.770  1.00  0.00     0.000 HD 
HETATM   13  C   UNL     1      -9.756  15.133  68.212  1.00  0.00    -0.219 A  
BRANCH  13  14
HETATM   14  C   UNL     1      -8.489  15.199  67.433  1.00  0.00    -0.183 C  
HETATM   15  O   UNL     1      -8.448  15.486  66.245  1.00  0.00    -0.262 OA 
BRANCH  14  16
HETATM   16  O   UNL     1      -7.485  14.642  68.150  1.00  0.00    -0.106 OA 
BRANCH  16  17
HETATM   17  C   UNL     1      -6.670  13.702  67.433  1.00  0.00    -0.004 C  
BRANCH  17  18
HETATM   18  C   UNL     1      -6.418  12.534  68.403  1.00  0.00    -0.066 C  
BRANCH  18  19
HETATM   19  N   UNL     1      -7.490  11.529  68.559  1.00  0.00    -0.108 NA 
BRANCH  19  20
HETATM   20  C   UNL     1      -7.194  10.706  69.746  1.00  0.00    -0.131 C  
HETATM   21  C   UNL     1      -6.114  11.278  70.655  1.00  0.00     0.009 C  
ENDBRANCH  19  20
BRANCH  19  22
HETATM   22  C   UNL     1      -7.746  10.761  67.335  1.00  0.00    -0.107 C  
HETATM   23  C   UNL     1      -7.961   9.261  67.510  1.00  0.00    -0.099 C  
ENDBRANCH  19  22
ENDBRANCH  18  19
ENDBRANCH  17  18
ENDBRANCH  16  17
ENDBRANCH  14  16
ENDBRANCH  13  14
ENDBRANCH   4   5
ENDBRANCH   3   4
ENDBRANCH   2   3
TORSDOF 10
ENDMDL
MODEL      271
REMARK 921   NORMALIZED FREE ENERGY PREDICTED BY IDOCK:   -2.70 KCAL/MOL
REMARK 922        TOTAL FREE ENERGY PREDICTED BY IDOCK:   -5.34 KCAL/MOL
REMARK 923 INTER-LIGAND FREE ENERGY PREDICTED BY IDOCK:   -5.03 KCAL/MOL
REMARK 924 INTRA-LIGAND FREE ENERGY PREDICTED BY IDOCK:   -0.31 KCAL/MOL
REMARK 927      BINDING AFFINITY PREDICTED BY RF-SCORE:    0.00 PKD
ROOT
HETATM    1  C   UNL     1      -5.184  18.780  65.154  1.00  0.00    -0.208 C  
HETATM    2  C   UNL     1      -5.964  18.589  66.447  1.00  0.00    -0.188 C  
ENDROOT
BRANCH   2   3
HETATM    3  C   UNL     1      -6.232  17.111  66.701  1.00  0.00    -0.214 C  
BRANCH   3   4
HETATM    4  O   UNL     1      -7.602  16.815  66.425  1.00  0.00    -0.270 OA 
BRANCH   4   5
HETATM    5  C   UNL     1      -8.531  17.736  66.846  1.00  0.00    -0.243 A  
HETATM    6  C   UNL     1      -8.904  18.856  66.085  1.00  0.00    -0.165 A  
HETATM    7  C   UNL     1      -9.824  19.799  66.555  1.00  0.00    -0.436 A  
HETATM    8  C   UNL     1     -10.484  19.549  67.753  1.00  0.00    -0.574 A  
HETATM    9  N   UNL     1     -10.232  20.850  65.728  1.00  0.00     0.186 NA 
HETATM   10  H1  UNL     1     -10.902  21.538  66.071  1.00  0.00     0.000 HD 
HETATM   11  C   UNL     1     -10.142  18.442  68.526  1.00  0.00    -0.413 A  
HETATM   12  H2  UNL     1     -10.590  20.456  64.858  1.00  0.00     0.000 HD 
HETATM   13  C   UNL     1      -9.153  17.544  68.093  1.00  0.00    -0.277 A  
BRANCH  13  14
HETATM   14  C   UNL     1      -8.783  16.490  69.077  1.00  0.00    -0.215 C  
HETATM   15  O   UNL     1      -7.671  16.403  69.580  1.00  0.00    -0.154 OA 
BRANCH  14  16
HETATM   16  O   UNL     1      -9.740  15.534  69.100  1.00  0.00    -0.217 OA 
BRANCH  16  17
HETATM   17  C   UNL     1      -9.260  14.184  68.996  1.00  0.00     0.098 C  
BRANCH  17  18
HETATM   18  C   UNL     1      -9.567  13.735  67.557  1.00  0.00    -0.219 C  
BRANCH  18  19
HETATM   19  N   UNL     1     -10.385  12.519  67.378  1.00  0.00    -0.215 NA 
BRANCH  19  20
HETATM   20  C   UNL     1     -11.753  12.923  67.005  1.00  0.00    -0.385 C  
HETATM   21  C   UNL     1     -11.880  13.489  65.597  1.00  0.00    -0.397 C  
ENDBRANCH  19  20
BRANCH  19  22
HETATM   22  C   UNL     1     -10.313  11.600  68.520  1.00  0.00    -0.212 C  
HETATM   23  C   UNL     1     -11.246  10.393  68.478  1.00  0.00    -0.308 C  
ENDBRANCH  19  22
ENDBRANCH  18  19
ENDBRANCH  17  18
ENDBRANCH  16  17
ENDBRANCH  14  16
ENDBRANCH  13  14
ENDBRANCH   4   5
ENDBRANCH   3   4
ENDBRANCH   2   3
TORSDOF 10
ENDMDL
MODEL      272
REMARK 921   NORMALIZED FREE ENERGY PREDICTED BY IDOCK:   -2.70 KCAL/MOL
REMARK 922        TOTAL FREE ENERGY PREDICTED BY IDOCK:   -5.33 KCAL/MOL
REMARK 923 INTER-LIGAND FREE ENERGY PREDICTED BY IDOCK:   -4.64 KCAL/MOL
REMARK 924 INTRA-LIGAND FREE ENERGY PREDICTED BY IDOCK:   -0.70 KCAL/MOL
REMARK 927      BINDING AFFINITY PREDICTED BY RF-SCORE:    0.00 PKD
ROOT
HETATM    1  C   UNL     1     -13.220  14.716  72.758  1.00  0.00    -0.591 C  
HETATM    2  C   UNL     1     -13.128  15.084  71.284  1.00  0.00    -0.472 C  
ENDROOT
BRANCH   2   3
HETATM    3  C   UNL     1     -11.673  15.238  70.857  1.00  0.00    -0.344 C  
BRANCH   3   4
HETATM    4  O   UNL     1     -11.531  14.852  69.489  1.00  0.00    -0.264 OA 
BRANCH   4   5
HETATM    5  C   UNL     1     -11.015  13.601  69.248  1.00  0.00    -0.144 A  
HETATM    6  C   UNL     1     -11.370  12.466  69.996  1.00  0.00     0.024 A  
HETATM    7  C   UNL     1     -10.799  11.212  69.756  1.00  0.00    -0.090 A  
HETATM    8  C   UNL     1      -9.957  11.060  68.659  1.00  0.00    -0.205 A  
HETATM    9  N   UNL     1     -11.246  10.093  70.466  1.00  0.00    -0.317 NA 
HETATM   10  H1  UNL     1     -10.830   9.178  70.290  1.00  0.00     0.000 HD 
HETATM   11  C   UNL     1      -9.594  12.165  67.894  1.00  0.00    -0.198 A  
HETATM   12  H2  UNL     1     -12.256  10.016  70.345  1.00  0.00     0.000 HD 
HETATM   13  C   UNL     1     -10.099  13.441  68.193  1.00  0.00    -0.244 A  
BRANCH  13  14
HETATM   14  C   UNL     1      -9.520  14.554  67.391  1.00  0.00    -0.202 C  
HETATM   15  O   UNL     1      -9.908  14.842  66.267  1.00  0.00    -0.265 OA 
BRANCH  14  16
HETATM   16  O   UNL     1      -8.371  14.979  67.967  1.00  0.00    -0.141 OA 
BRANCH  16  17
HETATM   17  C   UNL     1      -8.250  16.402  68.114  1.00  0.00    -0.170 C  
BRANCH  17  18
HETATM   18  C   UNL     1      -6.742  16.691  68.214  1.00  0.00    -0.142 C  
BRANCH  18  19
HETATM   19  N   UNL     1      -6.328  18.085  68.476  1.00  0.00    -0.192 NA 
BRANCH  19  20
HETATM   20  C   UNL     1      -7.529  18.884  68.777  1.00  0.00    -0.325 C  
HETATM   21  C   UNL     1      -7.254  20.169  69.546  1.00  0.00     0.017 C  
ENDBRANCH  19  20
BRANCH  19  22
HETATM   22  C   UNL     1      -5.476  18.643  67.419  1.00  0.00    -0.146 C  
HETATM   23  C   UNL     1      -6.038  18.597  66.001  1.00  0.00    -0.225 C  
ENDBRANCH  19  22
ENDBRANCH  18  19
ENDBRANCH  17  18
ENDBRANCH  16  17
ENDBRANCH  14  16
ENDBRANCH  13  14
ENDBRANCH   4   5
ENDBRANCH   3   4
ENDBRANCH   2   3
TORSDOF 10
ENDMDL
MODEL      273
REMARK 921   NORMALIZED FREE ENERGY PREDICTED BY IDOCK:   -2.66 KCAL/MOL
REMARK 922        TOTAL FREE ENERGY PREDICTED BY IDOCK:   -5.27 KCAL/MOL
REMARK 923 INTER-LIGAND FREE ENERGY PREDICTED BY IDOCK:   -3.98 KCAL/MOL
REMARK 924 INTRA-LIGAND FREE ENERGY PREDICTED BY IDOCK:   -1.29 KCAL/MOL
REMARK 927      BINDING AFFINITY PREDICTED BY RF-SCORE:    0.00 PKD
ROOT
HETATM    1  C   UNL     1     -11.750   6.742  71.114  1.00  0.00    -0.394 C  
HETATM    2  C   UNL     1     -10.961   7.818  70.382  1.00  0.00    -0.255 C  
ENDROOT
BRANCH   2   3
HETATM    3  C   UNL     1     -10.603   7.359  68.974  1.00  0.00    -0.192 C  
BRANCH   3   4
HETATM    4  O   UNL     1     -11.115   6.044  68.752  1.00  0.00    -0.336 OA 
BRANCH   4   5
HETATM    5  C   UNL     1     -10.420   5.249  67.873  1.00  0.00    -0.085 A  
HETATM    6  C   UNL     1     -10.643   5.259  66.486  1.00  0.00    -0.348 A  
HETATM    7  C   UNL     1      -9.949   4.410  65.617  1.00  0.00    -0.236 A  
HETATM    8  C   UNL     1      -8.917   3.630  66.128  1.00  0.00    -0.142 A  
HETATM    9  N   UNL     1     -10.140   4.516  64.236  1.00  0.00    -0.388 NA 
HETATM   10  H1  UNL     1      -9.633   3.898  63.603  1.00  0.00     0.000 HD 
HETATM   11  C   UNL     1      -8.667   3.605  67.498  1.00  0.00    -0.123 A  
HETATM   12  H2  UNL     1      -9.958   5.480  63.958  1.00  0.00     0.000 HD 
HETATM   13  C   UNL     1      -9.426   4.392  68.379  1.00  0.00    -0.213 A  
BRANCH  13  14
HETATM   14  C   UNL     1      -9.154   4.163  69.825  1.00  0.00    -0.111 C  
HETATM   15  O   UNL     1      -9.778   3.360  70.505  1.00  0.00    -0.177 OA 
BRANCH  14  16
HETATM   16  O   UNL     1      -8.343   5.139  70.295  1.00  0.00    -0.094 OA 
BRANCH  16  17
HETATM   17  C   UNL     1      -7.793   4.902  71.600  1.00  0.00    -0.106 C  
BRANCH  17  18
HETATM   18  C   UNL     1      -6.958   6.149  71.940  1.00  0.00    -0.077 C  
BRANCH  18  19
HETATM   19  N   UNL     1      -7.605   7.469  71.793  1.00  0.00    -0.082 NA 
BRANCH  19  20
HETATM   20  C   UNL     1      -6.763   8.312  70.926  1.00  0.00    -0.040 C  
HETATM   21  C   UNL     1      -7.534   9.334  70.101  1.00  0.00    -0.098 C  
ENDBRANCH  19  20
BRANCH  19  22
HETATM   22  C   UNL     1      -7.961   8.084  73.078  1.00  0.00    -0.155 C  
HETATM   23  C   UNL     1      -9.216   7.547  73.761  1.00  0.00    -0.327 C  
ENDBRANCH  19  22
ENDBRANCH  18  19
ENDBRANCH  17  18
ENDBRANCH  16  17
ENDBRANCH  14  16
ENDBRANCH  13  14
ENDBRANCH   4   5
ENDBRANCH   3   4
ENDBRANCH   2   3
TORSDOF 10
ENDMDL
MODEL      274
REMARK 921   NORMALIZED FREE ENERGY PREDICTED BY IDOCK:   -2.63 KCAL/MOL
REMARK 922        TOTAL FREE ENERGY PREDICTED BY IDOCK:   -5.23 KCAL/MOL
REMARK 923 INTER-LIGAND FREE ENERGY PREDICTED BY IDOCK:   -4.64 KCAL/MOL
REMARK 924 INTRA-LIGAND FREE ENERGY PREDICTED BY IDOCK:   -0.59 KCAL/MOL
REMARK 927      BINDING AFFINITY PREDICTED BY RF-SCORE:    0.00 PKD
ROOT
HETATM    1  C   UNL     1      -5.564   7.894  67.396  1.00  0.00    -0.037 C  
HETATM    2  C   UNL     1      -6.076   8.243  66.005  1.00  0.00    -0.045 C  
ENDROOT
BRANCH   2   3
HETATM    3  C   UNL     1      -6.539   9.693  65.951  1.00  0.00    -0.080 C  
BRANCH   3   4
HETATM    4  O   UNL     1      -7.906   9.747  65.536  1.00  0.00    -0.112 OA 
BRANCH   4   5
HETATM    5  C   UNL     1      -8.824   9.123  66.345  1.00  0.00    -0.141 A  
HETATM    6  C   UNL     1      -9.453   7.913  66.005  1.00  0.00    -0.086 A  
HETATM    7  C   UNL     1     -10.414   7.320  66.830  1.00  0.00    -0.299 A  
HETATM    8  C   UNL     1     -10.655   7.876  68.082  1.00  0.00    -0.179 A  
HETATM    9  N   UNL     1     -10.949   6.072  66.495  1.00  0.00    -0.724 NA 
HETATM   10  H1  UNL     1     -11.649   5.640  67.097  1.00  0.00     0.000 HD 
HETATM   11  C   UNL     1     -10.040   9.070  68.450  1.00  0.00    -0.216 A  
HETATM   12  H2  UNL     1     -10.180   5.414  66.371  1.00  0.00     0.000 HD 
HETATM   13  C   UNL     1      -9.142   9.712  67.582  1.00  0.00    -0.141 A  
BRANCH  13  14
HETATM   14  C   UNL     1      -8.670  11.049  68.036  1.00  0.00    -0.138 C  
HETATM   15  O   UNL     1      -7.845  11.201  68.926  1.00  0.00    -0.135 OA 
BRANCH  14  16
HETATM   16  O   UNL     1      -9.472  12.012  67.525  1.00  0.00    -0.173 OA 
BRANCH  16  17
HETATM   17  C   UNL     1      -8.819  13.252  67.217  1.00  0.00    -0.216 C  
BRANCH  17  18
HETATM   18  C   UNL     1      -9.514  14.322  68.078  1.00  0.00    -0.204 C  
BRANCH  18  19
HETATM   19  N   UNL     1     -10.569  15.136  67.440  1.00  0.00    -0.266 NA 
BRANCH  19  20
HETATM   20  C   UNL     1     -10.040  15.687  66.179  1.00  0.00    -0.313 C  
HETATM   21  C   UNL     1     -10.822  15.279  64.937  1.00  0.00    -0.444 C  
ENDBRANCH  19  20
BRANCH  19  22
HETATM   22  C   UNL     1     -11.153  16.135  68.342  1.00  0.00    -0.359 C  
HETATM   23  C   UNL     1     -10.678  16.099  69.792  1.00  0.00    -0.336 C  
ENDBRANCH  19  22
ENDBRANCH  18  19
ENDBRANCH  17  18
ENDBRANCH  16  17
ENDBRANCH  14  16
ENDBRANCH  13  14
ENDBRANCH   4   5
ENDBRANCH   3   4
ENDBRANCH   2   3
TORSDOF 10
ENDMDL
MODEL      275
REMARK 921   NORMALIZED FREE ENERGY PREDICTED BY IDOCK:   -2.60 KCAL/MOL
REMARK 922        TOTAL FREE ENERGY PREDICTED BY IDOCK:   -5.18 KCAL/MOL
REMARK 923 INTER-LIGAND FREE ENERGY PREDICTED BY IDOCK:   -4.83 KCAL/MOL
REMARK 924 INTRA-LIGAND FREE ENERGY PREDICTED BY IDOCK:   -0.35 KCAL/MOL
REMARK 927      BINDING AFFINITY PREDICTED BY RF-SCORE:    0.00 PKD
ROOT
HETATM    1  C   UNL     1      -5.198  18.354  65.294  1.00  0.00    -0.206 C  
HETATM    2  C   UNL     1      -5.775  18.163  66.690  1.00  0.00    -0.178 C  
ENDROOT
BRANCH   2   3
HETATM    3  C   UNL     1      -6.098  16.696  66.943  1.00  0.00    -0.134 C  
BRANCH   3   4
HETATM    4  O   UNL     1      -7.397  16.394  66.432  1.00  0.00    -0.203 OA 
BRANCH   4   5
HETATM    5  C   UNL     1      -8.470  16.773  67.202  1.00  0.00    -0.186 A  
HETATM    6  C   UNL     1      -9.000  18.074  67.196  1.00  0.00    -0.255 A  
HETATM    7  C   UNL     1     -10.068  18.444  68.021  1.00  0.00    -0.368 A  
HETATM    8  C   UNL     1     -10.705  17.460  68.770  1.00  0.00    -0.197 A  
HETATM    9  N   UNL     1     -10.620  19.724  67.917  1.00  0.00    -0.389 NA 
HETATM   10  H1  UNL     1     -11.399  19.993  68.519  1.00  0.00     0.000 HD 
HETATM   11  C   UNL     1     -10.207  16.160  68.790  1.00  0.00    -0.238 A  
HETATM   12  H2  UNL     1     -10.893  19.880  66.947  1.00  0.00     0.000 HD 
HETATM   13  C   UNL     1      -9.079  15.812  68.029  1.00  0.00    -0.187 A  
BRANCH  13  14
HETATM   14  C   UNL     1      -8.566  14.433  68.253  1.00  0.00    -0.170 C  
HETATM   15  O   UNL     1      -7.386  14.181  68.454  1.00  0.00    -0.098 OA 
BRANCH  14  16
HETATM   16  O   UNL     1      -9.526  13.534  67.932  1.00  0.00    -0.200 OA 
BRANCH  16  17
HETATM   17  C   UNL     1      -9.282  12.781  66.734  1.00  0.00    -0.225 C  
BRANCH  17  18
HETATM   18  C   UNL     1     -10.668  12.450  66.153  1.00  0.00    -0.260 C  
BRANCH  18  19
HETATM   19  N   UNL     1     -11.196  13.334  65.093  1.00  0.00    -0.297 NA 
BRANCH  19  20
HETATM   20  C   UNL     1     -10.650  12.892  63.797  1.00  0.00    -0.251 C  
HETATM   21  C   UNL     1     -11.430  11.763  63.137  1.00  0.00    -0.191 C  
ENDBRANCH  19  20
BRANCH  19  22
HETATM   22  C   UNL     1     -11.001  14.760  65.380  1.00  0.00    -0.359 C  
HETATM   23  C   UNL     1     -11.649  15.741  64.407  1.00  0.00    -0.240 C  
ENDBRANCH  19  22
ENDBRANCH  18  19
ENDBRANCH  17  18
ENDBRANCH  16  17
ENDBRANCH  14  16
ENDBRANCH  13  14
ENDBRANCH   4   5
ENDBRANCH   3   4
ENDBRANCH   2   3
TORSDOF 10
ENDMDL
MODEL      276
REMARK 921   NORMALIZED FREE ENERGY PREDICTED BY IDOCK:   -2.60 KCAL/MOL
REMARK 922        TOTAL FREE ENERGY PREDICTED BY IDOCK:   -5.18 KCAL/MOL
REMARK 923 INTER-LIGAND FREE ENERGY PREDICTED BY IDOCK:   -5.18 KCAL/MOL
REMARK 924 INTRA-LIGAND FREE ENERGY PREDICTED BY IDOCK:   -0.00 KCAL/MOL
REMARK 927      BINDING AFFINITY PREDICTED BY RF-SCORE:    0.00 PKD
ROOT
HETATM    1  C   UNL     1      -6.514   8.282  66.810  1.00  0.00    -0.056 C  
HETATM    2  C   UNL     1      -7.559   8.234  65.704  1.00  0.00    -0.083 C  
ENDROOT
BRANCH   2   3
HETATM    3  C   UNL     1      -8.437   9.479  65.739  1.00  0.00    -0.134 C  
BRANCH   3   4
HETATM    4  O   UNL     1      -9.745   9.131  66.200  1.00  0.00    -0.248 OA 
BRANCH   4   5
HETATM    5  C   UNL     1      -9.875   8.855  67.540  1.00  0.00    -0.184 A  
HETATM    6  C   UNL     1     -10.186   7.578  68.035  1.00  0.00    -0.239 A  
HETATM    7  C   UNL     1     -10.353   7.333  69.403  1.00  0.00    -0.208 A  
HETATM    8  C   UNL     1     -10.072   8.355  70.303  1.00  0.00    -0.196 A  
HETATM    9  N   UNL     1     -10.574   6.030  69.857  1.00  0.00    -0.249 NA 
HETATM   10  H1  UNL     1     -10.695   5.851  70.854  1.00  0.00     0.000 HD 
HETATM   11  C   UNL     1      -9.754   9.630  69.842  1.00  0.00    -0.262 A  
HETATM   12  H2  UNL     1      -9.821   5.435  69.513  1.00  0.00     0.000 HD 
HETATM   13  C   UNL     1      -9.675   9.896  68.465  1.00  0.00    -0.163 A  
BRANCH  13  14
HETATM   14  C   UNL     1      -9.470  11.326  68.108  1.00  0.00    -0.184 C  
HETATM   15  O   UNL     1      -8.385  11.785  67.776  1.00  0.00    -0.132 OA 
BRANCH  14  16
HETATM   16  O   UNL     1     -10.558  12.045  68.469  1.00  0.00    -0.218 OA 
BRANCH  16  17
HETATM   17  C   UNL     1     -11.448  12.389  67.396  1.00  0.00    -0.352 C  
BRANCH  17  18
HETATM   18  C   UNL     1     -10.580  12.439  66.126  1.00  0.00    -0.254 C  
BRANCH  18  19
HETATM   19  N   UNL     1     -10.718  13.619  65.247  1.00  0.00    -0.320 NA 
BRANCH  19  20
HETATM   20  C   UNL     1     -10.771  14.828  66.088  1.00  0.00    -0.314 C  
HETATM   21  C   UNL     1      -9.410  15.430  66.411  1.00  0.00    -0.331 C  
ENDBRANCH  19  20
BRANCH  19  22
HETATM   22  C   UNL     1     -11.821  13.498  64.286  1.00  0.00    -0.428 C  
HETATM   23  C   UNL     1     -12.112  12.095  63.761  1.00  0.00    -0.620 C  
ENDBRANCH  19  22
ENDBRANCH  18  19
ENDBRANCH  17  18
ENDBRANCH  16  17
ENDBRANCH  14  16
ENDBRANCH  13  14
ENDBRANCH   4   5
ENDBRANCH   3   4
ENDBRANCH   2   3
TORSDOF 10
ENDMDL
MODEL      277
REMARK 921   NORMALIZED FREE ENERGY PREDICTED BY IDOCK:   -2.59 KCAL/MOL
REMARK 922        TOTAL FREE ENERGY PREDICTED BY IDOCK:   -5.16 KCAL/MOL
REMARK 923 INTER-LIGAND FREE ENERGY PREDICTED BY IDOCK:   -4.49 KCAL/MOL
REMARK 924 INTRA-LIGAND FREE ENERGY PREDICTED BY IDOCK:   -0.67 KCAL/MOL
REMARK 927      BINDING AFFINITY PREDICTED BY RF-SCORE:    0.00 PKD
ROOT
HETATM    1  C   UNL     1      -9.486   8.843  66.183  1.00  0.00    -0.318 C  
HETATM    2  C   UNL     1     -10.404   8.675  67.386  1.00  0.00    -0.353 C  
ENDROOT
BRANCH   2   3
HETATM    3  C   UNL     1     -10.687   7.201  67.647  1.00  0.00    -0.244 C  
BRANCH   3   4
HETATM    4  O   UNL     1     -10.019   6.788  68.841  1.00  0.00    -0.149 OA 
BRANCH   4   5
HETATM    5  C   UNL     1     -10.587   7.171  70.032  1.00  0.00    -0.232 A  
HETATM    6  C   UNL     1     -11.878   6.783  70.429  1.00  0.00    -0.395 A  
HETATM    7  C   UNL     1     -12.446   7.221  71.630  1.00  0.00    -0.359 A  
HETATM    8  C   UNL     1     -11.660   7.951  72.514  1.00  0.00    -0.443 A  
HETATM    9  N   UNL     1     -13.698   6.740  72.026  1.00  0.00    -0.486 NA 
HETATM   10  H1  UNL     1     -14.113   7.058  72.902  1.00  0.00     0.000 HD 
HETATM   11  C   UNL     1     -10.374   8.343  72.152  1.00  0.00    -0.397 A  
HETATM   12  H2  UNL     1     -13.663   5.721  72.038  1.00  0.00     0.000 HD 
HETATM   13  C   UNL     1      -9.837   7.978  70.907  1.00  0.00    -0.195 A  
BRANCH  13  14
HETATM   14  C   UNL     1      -8.515   8.582  70.587  1.00  0.00    -0.146 C  
HETATM   15  O   UNL     1      -8.271   9.773  70.726  1.00  0.00    -0.251 OA 
BRANCH  14  16
HETATM   16  O   UNL     1      -7.767   7.695  69.890  1.00  0.00    -0.093 OA 
BRANCH  16  17
HETATM   17  C   UNL     1      -6.726   7.050  70.640  1.00  0.00    -0.053 C  
BRANCH  17  18
HETATM   18  C   UNL     1      -6.175   5.938  69.730  1.00  0.00    -0.027 C  
BRANCH  18  19
HETATM   19  N   UNL     1      -7.148   5.145  68.951  1.00  0.00    -0.056 NA 
BRANCH  19  20
HETATM   20  C   UNL     1      -7.847   4.226  69.867  1.00  0.00    -0.052 C  
HETATM   21  C   UNL     1      -8.686   3.161  69.172  1.00  0.00    -0.136 C  
ENDBRANCH  19  20
BRANCH  19  22
HETATM   22  C   UNL     1      -6.555   4.497  67.775  1.00  0.00    -0.046 C  
HETATM   23  C   UNL     1      -6.669   5.254  66.455  1.00  0.00    -0.057 C  
ENDBRANCH  19  22
ENDBRANCH  18  19
ENDBRANCH  17  18
ENDBRANCH  16  17
ENDBRANCH  14  16
ENDBRANCH  13  14
ENDBRANCH   4   5
ENDBRANCH   3   4
ENDBRANCH   2   3
TORSDOF 10
ENDMDL
MODEL      278
REMARK 921   NORMALIZED FREE ENERGY PREDICTED BY IDOCK:   -2.59 KCAL/MOL
REMARK 922        TOTAL FREE ENERGY PREDICTED BY IDOCK:   -5.16 KCAL/MOL
REMARK 923 INTER-LIGAND FREE ENERGY PREDICTED BY IDOCK:   -4.32 KCAL/MOL
REMARK 924 INTRA-LIGAND FREE ENERGY PREDICTED BY IDOCK:   -0.84 KCAL/MOL
REMARK 927      BINDING AFFINITY PREDICTED BY RF-SCORE:    0.00 PKD
ROOT
HETATM    1  C   UNL     1      -6.397   3.606  65.427  1.00  0.00    -0.032 C  
HETATM    2  C   UNL     1      -7.362   4.629  64.845  1.00  0.00    -0.071 C  
ENDROOT
BRANCH   2   3
HETATM    3  C   UNL     1      -6.960   6.041  65.254  1.00  0.00    -0.060 C  
BRANCH   3   4
HETATM    4  O   UNL     1      -7.622   6.396  66.470  1.00  0.00    -0.091 OA 
BRANCH   4   5
HETATM    5  C   UNL     1      -8.278   7.603  66.488  1.00  0.00    -0.125 A  
HETATM    6  C   UNL     1      -7.639   8.830  66.242  1.00  0.00    -0.091 A  
HETATM    7  C   UNL     1      -8.324  10.048  66.306  1.00  0.00    -0.127 A  
HETATM    8  C   UNL     1      -9.703  10.031  66.488  1.00  0.00    -0.254 A  
HETATM    9  N   UNL     1      -7.669  11.237  65.968  1.00  0.00    -0.367 NA 
HETATM   10  H1  UNL     1      -8.168  12.125  66.014  1.00  0.00     0.000 HD 
HETATM   11  C   UNL     1     -10.365   8.830  66.727  1.00  0.00    -0.328 A  
HETATM   12  H2  UNL     1      -7.279  11.135  65.031  1.00  0.00     0.000 HD 
HETATM   13  C   UNL     1      -9.660   7.615  66.750  1.00  0.00    -0.269 A  
BRANCH  13  14
HETATM   14  C   UNL     1     -10.461   6.428  67.158  1.00  0.00    -0.277 C  
HETATM   15  O   UNL     1     -10.944   5.639  66.357  1.00  0.00    -0.218 OA 
BRANCH  14  16
HETATM   16  O   UNL     1     -10.784   6.526  68.469  1.00  0.00    -0.220 OA 
BRANCH  16  17
HETATM   17  C   UNL     1      -9.746   6.145  69.385  1.00  0.00    -0.145 C  
BRANCH  17  18
HETATM   18  C   UNL     1     -10.461   5.578  70.623  1.00  0.00    -0.272 C  
BRANCH  18  19
HETATM   19  N   UNL     1     -11.356   6.483  71.373  1.00  0.00    -0.281 NA 
BRANCH  19  20
HETATM   20  C   UNL     1     -10.617   7.719  71.690  1.00  0.00    -0.214 C  
HETATM   21  C   UNL     1     -11.218   8.983  71.090  1.00  0.00    -0.375 C  
ENDBRANCH  19  20
BRANCH  19  22
HETATM   22  C   UNL     1     -11.991   5.841  72.530  1.00  0.00    -0.100 C  
HETATM   23  C   UNL     1     -11.083   4.995  73.418  1.00  0.00    -0.404 C  
ENDBRANCH  19  22
ENDBRANCH  18  19
ENDBRANCH  17  18
ENDBRANCH  16  17
ENDBRANCH  14  16
ENDBRANCH  13  14
ENDBRANCH   4   5
ENDBRANCH   3   4
ENDBRANCH   2   3
TORSDOF 10
ENDMDL
MODEL      279
REMARK 921   NORMALIZED FREE ENERGY PREDICTED BY IDOCK:   -2.59 KCAL/MOL
REMARK 922        TOTAL FREE ENERGY PREDICTED BY IDOCK:   -5.16 KCAL/MOL
REMARK 923 INTER-LIGAND FREE ENERGY PREDICTED BY IDOCK:   -4.14 KCAL/MOL
REMARK 924 INTRA-LIGAND FREE ENERGY PREDICTED BY IDOCK:   -1.01 KCAL/MOL
REMARK 927      BINDING AFFINITY PREDICTED BY RF-SCORE:    0.00 PKD
ROOT
HETATM    1  C   UNL     1     -10.026   9.081  67.059  1.00  0.00    -0.295 C  
HETATM    2  C   UNL     1      -9.606   8.739  68.482  1.00  0.00    -0.158 C  
ENDROOT
BRANCH   2   3
HETATM    3  C   UNL     1      -9.171   7.282  68.579  1.00  0.00    -0.138 C  
BRANCH   3   4
HETATM    4  O   UNL     1      -8.467   7.071  69.805  1.00  0.00    -0.134 OA 
BRANCH   4   5
HETATM    5  C   UNL     1      -9.202   7.153  70.963  1.00  0.00    -0.158 A  
HETATM    6  C   UNL     1     -10.429   6.493  71.143  1.00  0.00    -0.257 A  
HETATM    7  C   UNL     1     -11.176   6.625  72.318  1.00  0.00    -0.267 A  
HETATM    8  C   UNL     1     -10.623   7.324  73.387  1.00  0.00    -0.435 A  
HETATM    9  N   UNL     1     -12.348   5.881  72.489  1.00  0.00    -0.482 NA 
HETATM   10  H1  UNL     1     -12.892   5.977  73.347  1.00  0.00     0.000 HD 
HETATM   11  C   UNL     1      -9.404   7.982  73.240  1.00  0.00    -0.344 A  
HETATM   12  H2  UNL     1     -12.125   4.895  72.358  1.00  0.00     0.000 HD 
HETATM   13  C   UNL     1      -8.698   7.921  72.028  1.00  0.00    -0.180 A  
BRANCH  13  14
HETATM   14  C   UNL     1      -7.487   8.784  71.959  1.00  0.00     0.025 C  
HETATM   15  O   UNL     1      -6.587   8.742  72.786  1.00  0.00    -0.244 OA 
BRANCH  14  16
HETATM   16  O   UNL     1      -7.677   9.761  71.041  1.00  0.00    -0.292 OA 
BRANCH  16  17
HETATM   17  C   UNL     1      -6.524  10.091  70.252  1.00  0.00    -0.117 C  
BRANCH  17  18
HETATM   18  C   UNL     1      -6.942  11.281  69.370  1.00  0.00    -0.109 C  
BRANCH  18  19
HETATM   19  N   UNL     1      -7.126  11.032  67.925  1.00  0.00    -0.079 NA 
BRANCH  19  20
HETATM   20  C   UNL     1      -5.817  10.699  67.335  1.00  0.00    -0.045 C  
HETATM   21  C   UNL     1      -5.891   9.825  66.090  1.00  0.00    -0.062 C  
ENDBRANCH  19  20
BRANCH  19  22
HETATM   22  C   UNL     1      -7.846  12.111  67.239  1.00  0.00    -0.176 C  
HETATM   23  C   UNL     1      -8.909  12.841  68.055  1.00  0.00    -0.195 C  
ENDBRANCH  19  22
ENDBRANCH  18  19
ENDBRANCH  17  18
ENDBRANCH  16  17
ENDBRANCH  14  16
ENDBRANCH  13  14
ENDBRANCH   4   5
ENDBRANCH   3   4
ENDBRANCH   2   3
TORSDOF 10
ENDMDL
MODEL      280
REMARK 921   NORMALIZED FREE ENERGY PREDICTED BY IDOCK:   -2.58 KCAL/MOL
REMARK 922        TOTAL FREE ENERGY PREDICTED BY IDOCK:   -5.14 KCAL/MOL
REMARK 923 INTER-LIGAND FREE ENERGY PREDICTED BY IDOCK:   -4.08 KCAL/MOL
REMARK 924 INTRA-LIGAND FREE ENERGY PREDICTED BY IDOCK:   -1.06 KCAL/MOL
REMARK 927      BINDING AFFINITY PREDICTED BY RF-SCORE:    0.00 PKD
ROOT
HETATM    1  C   UNL     1     -12.711   7.236  71.561  1.00  0.00    -0.422 C  
HETATM    2  C   UNL     1     -12.285   8.400  72.445  1.00  0.00    -0.430 C  
ENDROOT
BRANCH   2   3
HETATM    3  C   UNL     1     -11.696   9.526  71.604  1.00  0.00    -0.390 C  
BRANCH   3   4
HETATM    4  O   UNL     1     -11.907   9.253  70.218  1.00  0.00    -0.139 OA 
BRANCH   4   5
HETATM    5  C   UNL     1     -10.904   9.621  69.354  1.00  0.00    -0.217 A  
HETATM    6  C   UNL     1     -10.700  10.946  68.933  1.00  0.00    -0.252 A  
HETATM    7  C   UNL     1      -9.695  11.288  68.021  1.00  0.00    -0.179 A  
HETATM    8  C   UNL     1      -8.791  10.308  67.624  1.00  0.00    -0.121 A  
HETATM    9  N   UNL     1      -9.471  12.630  67.698  1.00  0.00    -0.183 NA 
HETATM   10  H1  UNL     1      -8.739  12.879  67.034  1.00  0.00     0.000 HD 
HETATM   11  C   UNL     1      -8.963   8.987  68.032  1.00  0.00    -0.133 A  
HETATM   12  H2  UNL     1      -9.312  13.147  68.562  1.00  0.00     0.000 HD 
HETATM   13  C   UNL     1     -10.027   8.630  68.877  1.00  0.00    -0.197 A  
BRANCH  13  14
HETATM   14  C   UNL     1     -10.180   7.169  69.117  1.00  0.00    -0.194 C  
HETATM   15  O   UNL     1     -11.005   6.478  68.536  1.00  0.00    -0.278 OA 
BRANCH  14  16
HETATM   16  O   UNL     1      -9.489   6.817  70.226  1.00  0.00    -0.162 OA 
BRANCH  16  17
HETATM   17  C   UNL     1      -8.743   5.595  70.119  1.00  0.00    -0.137 C  
BRANCH  17  18
HETATM   18  C   UNL     1      -7.888   5.507  71.396  1.00  0.00    -0.110 C  
BRANCH  18  19
HETATM   19  N   UNL     1      -8.269   4.501  72.408  1.00  0.00    -0.107 NA 
BRANCH  19  20
HETATM   20  C   UNL     1      -7.803   3.178  71.954  1.00  0.00    -0.054 C  
HETATM   21  C   UNL     1      -6.330   3.126  71.573  1.00  0.00    -0.015 C  
ENDBRANCH  19  20
BRANCH  19  22
HETATM   22  C   UNL     1      -9.690   4.553  72.770  1.00  0.00    -0.140 C  
HETATM   23  C   UNL     1     -10.099   5.645  73.755  1.00  0.00    -0.220 C  
ENDBRANCH  19  22
ENDBRANCH  18  19
ENDBRANCH  17  18
ENDBRANCH  16  17
ENDBRANCH  14  16
ENDBRANCH  13  14
ENDBRANCH   4   5
ENDBRANCH   3   4
ENDBRANCH   2   3
TORSDOF 10
ENDMDL
MODEL      281
REMARK 921   NORMALIZED FREE ENERGY PREDICTED BY IDOCK:   -2.56 KCAL/MOL
REMARK 922        TOTAL FREE ENERGY PREDICTED BY IDOCK:   -5.11 KCAL/MOL
REMARK 923 INTER-LIGAND FREE ENERGY PREDICTED BY IDOCK:   -4.07 KCAL/MOL
REMARK 924 INTRA-LIGAND FREE ENERGY PREDICTED BY IDOCK:   -1.04 KCAL/MOL
REMARK 927      BINDING AFFINITY PREDICTED BY RF-SCORE:    0.00 PKD
ROOT
HETATM    1  C   UNL     1      -9.197   8.657  66.085  1.00  0.00    -0.271 C  
HETATM    2  C   UNL     1     -10.429   8.716  66.977  1.00  0.00    -0.354 C  
ENDROOT
BRANCH   2   3
HETATM    3  C   UNL     1     -10.878   7.313  67.368  1.00  0.00    -0.247 C  
BRANCH   3   4
HETATM    4  O   UNL     1     -10.073   6.833  68.446  1.00  0.00    -0.150 OA 
BRANCH   4   5
HETATM    5  C   UNL     1     -10.353   7.328  69.697  1.00  0.00    -0.221 A  
HETATM    6  C   UNL     1     -11.625   7.249  70.288  1.00  0.00    -0.208 A  
HETATM    7  C   UNL     1     -11.893   7.797  71.547  1.00  0.00    -0.293 A  
HETATM    8  C   UNL     1     -10.837   8.317  72.288  1.00  0.00    -0.408 A  
HETATM    9  N   UNL     1     -13.149   7.616  72.135  1.00  0.00    -0.508 NA 
HETATM   10  H1  UNL     1     -13.344   8.016  73.053  1.00  0.00     0.000 HD 
HETATM   11  C   UNL     1      -9.563   8.402  71.731  1.00  0.00    -0.303 A  
HETATM   12  H2  UNL     1     -13.349   6.617  72.169  1.00  0.00     0.000 HD 
HETATM   13  C   UNL     1      -9.316   7.932  70.431  1.00  0.00    -0.159 A  
BRANCH  13  14
HETATM   14  C   UNL     1      -7.952   8.214  69.906  1.00  0.00    -0.109 C  
HETATM   15  O   UNL     1      -7.613   9.308  69.476  1.00  0.00    -0.074 OA 
BRANCH  14  16
HETATM   16  O   UNL     1      -7.283   7.051  69.730  1.00  0.00    -0.075 OA 
BRANCH  16  17
HETATM   17  C   UNL     1      -7.248   6.186  70.876  1.00  0.00    -0.074 C  
BRANCH  17  18
HETATM   18  C   UNL     1      -7.369   4.753  70.330  1.00  0.00    -0.051 C  
BRANCH  18  19
HETATM   19  N   UNL     1      -8.443   3.899  70.877  1.00  0.00    -0.070 NA 
BRANCH  19  20
HETATM   20  C   UNL     1      -9.069   3.161  69.765  1.00  0.00    -0.131 C  
HETATM   21  C   UNL     1      -8.299   3.226  68.453  1.00  0.00    -0.094 C  
ENDBRANCH  19  20
BRANCH  19  22
HETATM   22  C   UNL     1      -9.387   4.632  71.728  1.00  0.00    -0.142 C  
HETATM   23  C   UNL     1      -9.341   4.315  73.221  1.00  0.00    -0.126 C  
ENDBRANCH  19  22
ENDBRANCH  18  19
ENDBRANCH  17  18
ENDBRANCH  16  17
ENDBRANCH  14  16
ENDBRANCH  13  14
ENDBRANCH   4   5
ENDBRANCH   3   4
ENDBRANCH   2   3
TORSDOF 10
ENDMDL
MODEL      282
REMARK 921   NORMALIZED FREE ENERGY PREDICTED BY IDOCK:   -2.49 KCAL/MOL
REMARK 922        TOTAL FREE ENERGY PREDICTED BY IDOCK:   -5.01 KCAL/MOL
REMARK 923 INTER-LIGAND FREE ENERGY PREDICTED BY IDOCK:   -4.00 KCAL/MOL
REMARK 924 INTRA-LIGAND FREE ENERGY PREDICTED BY IDOCK:   -1.00 KCAL/MOL
REMARK 927      BINDING AFFINITY PREDICTED BY RF-SCORE:    0.00 PKD
ROOT
HETATM    1  C   UNL     1     -11.612  12.964  66.388  1.00  0.00    -0.425 C  
HETATM    2  C   UNL     1     -10.183  12.441  66.393  1.00  0.00    -0.253 C  
ENDROOT
BRANCH   2   3
HETATM    3  C   UNL     1     -10.133  11.018  66.934  1.00  0.00    -0.210 C  
BRANCH   3   4
HETATM    4  O   UNL     1      -8.953  10.364  66.460  1.00  0.00    -0.143 OA 
BRANCH   4   5
HETATM    5  C   UNL     1      -8.876   9.007  66.657  1.00  0.00    -0.132 A  
HETATM    6  C   UNL     1      -9.875   8.111  66.240  1.00  0.00    -0.193 A  
HETATM    7  C   UNL     1      -9.789   6.737  66.488  1.00  0.00    -0.104 A  
HETATM    8  C   UNL     1      -8.619   6.230  67.045  1.00  0.00    -0.104 A  
HETATM    9  N   UNL     1     -10.762   5.872  65.978  1.00  0.00    -0.446 NA 
HETATM   10  H1  UNL     1     -10.699   4.871  66.159  1.00  0.00     0.000 HD 
HETATM   11  C   UNL     1      -7.608   7.093  67.461  1.00  0.00    -0.110 A  
HETATM   12  H2  UNL     1     -10.825   6.015  64.971  1.00  0.00     0.000 HD 
HETATM   13  C   UNL     1      -7.736   8.482  67.292  1.00  0.00    -0.097 A  
BRANCH  13  14
HETATM   14  C   UNL     1      -6.653   9.295  67.908  1.00  0.00    -0.063 C  
HETATM   15  O   UNL     1      -5.801   9.882  67.255  1.00  0.00    -0.050 OA 
BRANCH  14  16
HETATM   16  O   UNL     1      -6.604   9.054  69.239  1.00  0.00    -0.048 OA 
BRANCH  16  17
HETATM   17  C   UNL     1      -7.610   9.718  70.019  1.00  0.00    -0.163 C  
BRANCH  17  18
HETATM   18  C   UNL     1      -7.714   8.930  71.336  1.00  0.00    -0.087 C  
BRANCH  18  19
HETATM   19  N   UNL     1      -9.061   8.726  71.908  1.00  0.00    -0.331 NA 
BRANCH  19  20
HETATM   20  C   UNL     1      -9.121   7.376  72.498  1.00  0.00    -0.140 C  
HETATM   21  C   UNL     1     -10.135   7.226  73.625  1.00  0.00    -0.387 C  
ENDBRANCH  19  20
BRANCH  19  22
HETATM   22  C   UNL     1     -10.142   9.024  70.962  1.00  0.00    -0.282 C  
HETATM   23  C   UNL     1     -10.757   7.830  70.238  1.00  0.00    -0.237 C  
ENDBRANCH  19  22
ENDBRANCH  18  19
ENDBRANCH  17  18
ENDBRANCH  16  17
ENDBRANCH  14  16
ENDBRANCH  13  14
ENDBRANCH   4   5
ENDBRANCH   3   4
ENDBRANCH   2   3
TORSDOF 10
ENDMDL
MODEL      283
REMARK 921   NORMALIZED FREE ENERGY PREDICTED BY IDOCK:   -2.45 KCAL/MOL
REMARK 922        TOTAL FREE ENERGY PREDICTED BY IDOCK:   -4.94 KCAL/MOL
REMARK 923 INTER-LIGAND FREE ENERGY PREDICTED BY IDOCK:   -4.08 KCAL/MOL
REMARK 924 INTRA-LIGAND FREE ENERGY PREDICTED BY IDOCK:   -0.86 KCAL/MOL
REMARK 927      BINDING AFFINITY PREDICTED BY RF-SCORE:    0.00 PKD
ROOT
HETATM    1  C   UNL     1      -7.253   4.167  65.279  1.00  0.00    -0.071 C  
HETATM    2  C   UNL     1      -8.410   5.051  64.836  1.00  0.00    -0.142 C  
ENDROOT
BRANCH   2   3
HETATM    3  C   UNL     1      -7.897   6.377  64.289  1.00  0.00    -0.114 C  
BRANCH   3   4
HETATM    4  O   UNL     1      -7.758   7.316  65.357  1.00  0.00    -0.096 OA 
BRANCH   4   5
HETATM    5  C   UNL     1      -8.466   8.489  65.247  1.00  0.00    -0.174 A  
HETATM    6  C   UNL     1      -8.386   9.334  64.128  1.00  0.00    -0.178 A  
HETATM    7  C   UNL     1      -9.087  10.542  64.059  1.00  0.00    -0.231 A  
HETATM    8  C   UNL     1      -9.991  10.849  65.070  1.00  0.00    -0.356 A  
HETATM    9  N   UNL     1      -9.046  11.308  62.889  1.00  0.00    -0.465 NA 
HETATM   10  H1  UNL     1      -9.558  12.189  62.839  1.00  0.00     0.000 HD 
HETATM   11  C   UNL     1     -10.099  10.026  66.189  1.00  0.00    -0.317 A  
HETATM   12  H2  UNL     1      -9.338  10.721  62.109  1.00  0.00     0.000 HD 
HETATM   13  C   UNL     1      -9.326   8.858  66.297  1.00  0.00    -0.279 A  
BRANCH  13  14
HETATM   14  C   UNL     1      -9.431   8.150  67.602  1.00  0.00    -0.145 C  
HETATM   15  O   UNL     1     -10.370   7.424  67.897  1.00  0.00    -0.184 OA 
BRANCH  14  16
HETATM   16  O   UNL     1      -8.510   8.644  68.462  1.00  0.00    -0.128 OA 
BRANCH  16  17
HETATM   17  C   UNL     1      -9.032   9.118  69.713  1.00  0.00    -0.162 C  
BRANCH  17  18
HETATM   18  C   UNL     1      -8.409   8.223  70.799  1.00  0.00    -0.123 C  
BRANCH  18  19
HETATM   19  N   UNL     1      -9.173   7.032  71.227  1.00  0.00    -0.152 NA 
BRANCH  19  20
HETATM   20  C   UNL     1      -9.149   6.964  72.699  1.00  0.00    -0.134 C  
HETATM   21  C   UNL     1     -10.526   6.913  73.349  1.00  0.00    -0.360 C  
ENDBRANCH  19  20
BRANCH  19  22
HETATM   22  C   UNL     1      -8.747   5.800  70.554  1.00  0.00    -0.139 C  
HETATM   23  C   UNL     1      -8.646   4.552  71.427  1.00  0.00    -0.127 C  
ENDBRANCH  19  22
ENDBRANCH  18  19
ENDBRANCH  17  18
ENDBRANCH  16  17
ENDBRANCH  14  16
ENDBRANCH  13  14
ENDBRANCH   4   5
ENDBRANCH   3   4
ENDBRANCH   2   3
TORSDOF 10
ENDMDL
MODEL      284
REMARK 921   NORMALIZED FREE ENERGY PREDICTED BY IDOCK:   -2.44 KCAL/MOL
REMARK 922        TOTAL FREE ENERGY PREDICTED BY IDOCK:   -4.93 KCAL/MOL
REMARK 923 INTER-LIGAND FREE ENERGY PREDICTED BY IDOCK:   -4.58 KCAL/MOL
REMARK 924 INTRA-LIGAND FREE ENERGY PREDICTED BY IDOCK:   -0.34 KCAL/MOL
REMARK 927      BINDING AFFINITY PREDICTED BY RF-SCORE:    0.00 PKD
ROOT
HETATM    1  C   UNL     1      -9.054   9.679  64.027  1.00  0.00    -0.246 C  
HETATM    2  C   UNL     1      -9.651  10.965  63.473  1.00  0.00    -0.354 C  
ENDROOT
BRANCH   2   3
HETATM    3  C   UNL     1     -10.704  11.523  64.423  1.00  0.00    -0.344 C  
BRANCH   3   4
HETATM    4  O   UNL     1     -10.795  10.692  65.582  1.00  0.00    -0.095 OA 
BRANCH   4   5
HETATM    5  C   UNL     1     -10.997  11.325  66.784  1.00  0.00    -0.281 A  
HETATM    6  C   UNL     1     -11.644  12.567  66.900  1.00  0.00    -0.436 A  
HETATM    7  C   UNL     1     -11.801  13.208  68.133  1.00  0.00    -0.348 A  
HETATM    8  C   UNL     1     -11.423  12.535  69.290  1.00  0.00    -0.353 A  
HETATM    9  N   UNL     1     -12.529  14.400  68.213  1.00  0.00    -0.537 NA 
HETATM   10  H1  UNL     1     -12.644  14.867  69.113  1.00  0.00     0.000 HD 
HETATM   11  C   UNL     1     -10.786  11.299  69.207  1.00  0.00    -0.259 A  
HETATM   12  H2  UNL     1     -13.453  14.241  67.812  1.00  0.00     0.000 HD 
HETATM   13  C   UNL     1     -10.549  10.697  67.960  1.00  0.00    -0.248 A  
BRANCH  13  14
HETATM   14  C   UNL     1      -9.734   9.452  68.005  1.00  0.00    -0.145 C  
HETATM   15  O   UNL     1      -9.138   9.007  67.034  1.00  0.00    -0.127 OA 
BRANCH  14  16
HETATM   16  O   UNL     1      -9.986   8.786  69.156  1.00  0.00    -0.181 OA 
BRANCH  16  17
HETATM   17  C   UNL     1      -8.873   8.059  69.698  1.00  0.00    -0.141 C  
BRANCH  17  18
HETATM   18  C   UNL     1      -7.886   9.119  70.217  1.00  0.00    -0.125 C  
BRANCH  18  19
HETATM   19  N   UNL     1      -7.200   8.848  71.497  1.00  0.00    -0.221 NA 
BRANCH  19  20
HETATM   20  C   UNL     1      -6.000   9.701  71.577  1.00  0.00     0.006 C  
HETATM   21  C   UNL     1      -5.488  10.195  70.230  1.00  0.00    -0.050 C  
ENDBRANCH  19  20
BRANCH  19  22
HETATM   22  C   UNL     1      -6.947   7.421  71.727  1.00  0.00    -0.062 C  
HETATM   23  C   UNL     1      -5.731   7.077  72.583  1.00  0.00    -0.038 C  
ENDBRANCH  19  22
ENDBRANCH  18  19
ENDBRANCH  17  18
ENDBRANCH  16  17
ENDBRANCH  14  16
ENDBRANCH  13  14
ENDBRANCH   4   5
ENDBRANCH   3   4
ENDBRANCH   2   3
TORSDOF 10
ENDMDL
MODEL      285
REMARK 921   NORMALIZED FREE ENERGY PREDICTED BY IDOCK:   -2.42 KCAL/MOL
REMARK 922        TOTAL FREE ENERGY PREDICTED BY IDOCK:   -4.89 KCAL/MOL
REMARK 923 INTER-LIGAND FREE ENERGY PREDICTED BY IDOCK:   -4.36 KCAL/MOL
REMARK 924 INTRA-LIGAND FREE ENERGY PREDICTED BY IDOCK:   -0.53 KCAL/MOL
REMARK 927      BINDING AFFINITY PREDICTED BY RF-SCORE:    0.00 PKD
ROOT
HETATM    1  C   UNL     1      -5.131  14.687  72.875  1.00  0.00    -0.244 C  
HETATM    2  C   UNL     1      -5.342  13.818  71.643  1.00  0.00    -0.212 C  
ENDROOT
BRANCH   2   3
HETATM    3  C   UNL     1      -5.307  14.663  70.376  1.00  0.00    -0.118 C  
BRANCH   3   4
HETATM    4  O   UNL     1      -6.500  15.445  70.285  1.00  0.00    -0.106 OA 
BRANCH   4   5
HETATM    5  C   UNL     1      -6.511  16.451  69.350  1.00  0.00    -0.206 A  
HETATM    6  C   UNL     1      -6.061  17.755  69.618  1.00  0.00    -0.240 A  
HETATM    7  C   UNL     1      -6.121  18.772  68.659  1.00  0.00    -0.219 A  
HETATM    8  C   UNL     1      -6.515  18.447  67.365  1.00  0.00    -0.197 A  
HETATM    9  N   UNL     1      -5.580  20.030  68.940  1.00  0.00    -0.219 NA 
HETATM   10  H1  UNL     1      -5.624  20.771  68.240  1.00  0.00     0.000 HD 
HETATM   11  C   UNL     1      -6.959  17.161  67.068  1.00  0.00    -0.228 A  
HETATM   12  H2  UNL     1      -4.607  19.908  69.220  1.00  0.00     0.000 HD 
HETATM   13  C   UNL     1      -6.982  16.164  68.057  1.00  0.00    -0.139 A  
BRANCH  13  14
HETATM   14  C   UNL     1      -7.613  14.880  67.645  1.00  0.00    -0.182 C  
HETATM   15  O   UNL     1      -7.056  14.060  66.929  1.00  0.00     0.144 OA 
BRANCH  14  16
HETATM   16  O   UNL     1      -8.933  14.907  67.943  1.00  0.00    -0.171 OA 
BRANCH  16  17
HETATM   17  C   UNL     1      -9.746  15.689  67.055  1.00  0.00    -0.227 C  
BRANCH  17  18
HETATM   18  C   UNL     1     -11.204  15.306  67.367  1.00  0.00    -0.311 C  
BRANCH  18  19
HETATM   19  N   UNL     1     -11.828  14.254  66.539  1.00  0.00    -0.402 NA 
BRANCH  19  20
HETATM   20  C   UNL     1     -12.177  13.116  67.410  1.00  0.00    -0.140 C  
HETATM   21  C   UNL     1     -12.050  13.402  68.900  1.00  0.00    -0.289 C  
ENDBRANCH  19  20
BRANCH  19  22
HETATM   22  C   UNL     1     -11.031  13.895  65.361  1.00  0.00    -0.316 C  
HETATM   23  C   UNL     1     -10.842  12.404  65.099  1.00  0.00    -0.333 C  
ENDBRANCH  19  22
ENDBRANCH  18  19
ENDBRANCH  17  18
ENDBRANCH  16  17
ENDBRANCH  14  16
ENDBRANCH  13  14
ENDBRANCH   4   5
ENDBRANCH   3   4
ENDBRANCH   2   3
TORSDOF 10
ENDMDL
MODEL      286
REMARK 921   NORMALIZED FREE ENERGY PREDICTED BY IDOCK:   -2.41 KCAL/MOL
REMARK 922        TOTAL FREE ENERGY PREDICTED BY IDOCK:   -4.87 KCAL/MOL
REMARK 923 INTER-LIGAND FREE ENERGY PREDICTED BY IDOCK:   -4.18 KCAL/MOL
REMARK 924 INTRA-LIGAND FREE ENERGY PREDICTED BY IDOCK:   -0.69 KCAL/MOL
REMARK 927      BINDING AFFINITY PREDICTED BY RF-SCORE:    0.00 PKD
ROOT
HETATM    1  C   UNL     1      -9.942   4.763  69.159  1.00  0.00    -0.233 C  
HETATM    2  C   UNL     1     -10.277   5.363  70.518  1.00  0.00    -0.326 C  
ENDROOT
BRANCH   2   3
HETATM    3  C   UNL     1      -9.116   6.202  71.037  1.00  0.00    -0.147 C  
BRANCH   3   4
HETATM    4  O   UNL     1      -9.613   7.234  71.892  1.00  0.00    -0.150 OA 
BRANCH   4   5
HETATM    5  C   UNL     1     -10.209   8.310  71.281  1.00  0.00    -0.202 A  
HETATM    6  C   UNL     1     -11.583   8.589  71.382  1.00  0.00    -0.344 A  
HETATM    7  C   UNL     1     -12.171   9.670  70.717  1.00  0.00    -0.230 A  
HETATM    8  C   UNL     1     -11.349  10.569  70.046  1.00  0.00    -0.392 A  
HETATM    9  N   UNL     1     -13.524   9.960  70.916  1.00  0.00    -0.541 NA 
HETATM   10  H1  UNL     1     -13.953  10.749  70.432  1.00  0.00     0.000 HD 
HETATM   11  C   UNL     1      -9.982  10.323  69.936  1.00  0.00    -0.183 A  
HETATM   12  H2  UNL     1     -13.686  10.070  71.917  1.00  0.00     0.000 HD 
HETATM   13  C   UNL     1      -9.407   9.188  70.530  1.00  0.00    -0.287 A  
BRANCH  13  14
HETATM   14  C   UNL     1      -7.969   8.970  70.215  1.00  0.00    -0.121 C  
HETATM   15  O   UNL     1      -7.080   9.053  71.051  1.00  0.00    -0.084 OA 
BRANCH  14  16
HETATM   16  O   UNL     1      -7.796   8.950  68.872  1.00  0.00    -0.093 OA 
BRANCH  16  17
HETATM   17  C   UNL     1      -6.543   9.475  68.409  1.00  0.00    -0.053 C  
BRANCH  17  18
HETATM   18  C   UNL     1      -6.863  10.843  67.781  1.00  0.00    -0.072 C  
BRANCH  18  19
HETATM   19  N   UNL     1      -6.888  10.932  66.306  1.00  0.00    -0.134 NA 
BRANCH  19  20
HETATM   20  C   UNL     1      -8.267  10.692  65.845  1.00  0.00    -0.159 C  
HETATM   21  C   UNL     1      -9.295  11.669  66.399  1.00  0.00    -0.224 C  
ENDBRANCH  19  20
BRANCH  19  22
HETATM   22  C   UNL     1      -5.875  10.089  65.659  1.00  0.00    -0.074 C  
HETATM   23  C   UNL     1      -5.901  10.050  64.134  1.00  0.00    -0.128 C  
ENDBRANCH  19  22
ENDBRANCH  18  19
ENDBRANCH  17  18
ENDBRANCH  16  17
ENDBRANCH  14  16
ENDBRANCH  13  14
ENDBRANCH   4   5
ENDBRANCH   3   4
ENDBRANCH   2   3
TORSDOF 10
ENDMDL
MODEL      287
REMARK 921   NORMALIZED FREE ENERGY PREDICTED BY IDOCK:   -2.40 KCAL/MOL
REMARK 922        TOTAL FREE ENERGY PREDICTED BY IDOCK:   -4.86 KCAL/MOL
REMARK 923 INTER-LIGAND FREE ENERGY PREDICTED BY IDOCK:   -4.69 KCAL/MOL
REMARK 924 INTRA-LIGAND FREE ENERGY PREDICTED BY IDOCK:   -0.17 KCAL/MOL
REMARK 927      BINDING AFFINITY PREDICTED BY RF-SCORE:    0.00 PKD
ROOT
HETATM    1  C   UNL     1      -9.709   4.059  67.635  1.00  0.00    -0.164 C  
HETATM    2  C   UNL     1     -10.139   5.025  66.540  1.00  0.00    -0.278 C  
ENDROOT
BRANCH   2   3
HETATM    3  C   UNL     1     -10.971   6.162  67.122  1.00  0.00    -0.331 C  
BRANCH   3   4
HETATM    4  O   UNL     1     -10.272   7.398  66.964  1.00  0.00    -0.231 OA 
BRANCH   4   5
HETATM    5  C   UNL     1      -9.928   8.066  68.114  1.00  0.00    -0.185 A  
HETATM    6  C   UNL     1      -9.835   7.440  69.369  1.00  0.00    -0.168 A  
HETATM    7  C   UNL     1      -9.522   8.152  70.531  1.00  0.00    -0.163 A  
HETATM    8  C   UNL     1      -9.162   9.491  70.418  1.00  0.00    -0.305 A  
HETATM    9  N   UNL     1      -9.354   7.474  71.743  1.00  0.00    -0.144 NA 
HETATM   10  H1  UNL     1      -9.125   7.994  72.590  1.00  0.00     0.000 HD 
HETATM   11  C   UNL     1      -9.236  10.137  69.186  1.00  0.00    -0.204 A  
HETATM   12  H2  UNL     1      -8.652   6.747  71.611  1.00  0.00     0.000 HD 
HETATM   13  C   UNL     1      -9.638   9.440  68.035  1.00  0.00    -0.156 A  
BRANCH  13  14
HETATM   14  C   UNL     1      -9.814  10.279  66.818  1.00  0.00    -0.197 C  
HETATM   15  O   UNL     1     -10.458   9.918  65.843  1.00  0.00    -0.158 OA 
BRANCH  14  16
HETATM   16  O   UNL     1      -8.954  11.324  66.859  1.00  0.00    -0.154 OA 
BRANCH  16  17
HETATM   17  C   UNL     1      -9.420  12.525  66.227  1.00  0.00    -0.210 C  
BRANCH  17  18
HETATM   18  C   UNL     1      -9.279  13.639  67.279  1.00  0.00    -0.232 C  
BRANCH  18  19
HETATM   19  N   UNL     1      -9.789  14.981  66.929  1.00  0.00    -0.233 NA 
BRANCH  19  20
HETATM   20  C   UNL     1      -8.859  15.992  67.465  1.00  0.00    -0.189 C  
HETATM   21  C   UNL     1      -9.485  16.959  68.461  1.00  0.00    -0.266 C  
ENDBRANCH  19  20
BRANCH  19  22
HETATM   22  C   UNL     1     -11.192  15.184  67.309  1.00  0.00    -0.324 C  
HETATM   23  C   UNL     1     -12.183  14.127  66.831  1.00  0.00    -0.400 C  
ENDBRANCH  19  22
ENDBRANCH  18  19
ENDBRANCH  17  18
ENDBRANCH  16  17
ENDBRANCH  14  16
ENDBRANCH  13  14
ENDBRANCH   4   5
ENDBRANCH   3   4
ENDBRANCH   2   3
TORSDOF 10
ENDMDL
MODEL      288
REMARK 921   NORMALIZED FREE ENERGY PREDICTED BY IDOCK:   -2.39 KCAL/MOL
REMARK 922        TOTAL FREE ENERGY PREDICTED BY IDOCK:   -4.84 KCAL/MOL
REMARK 923 INTER-LIGAND FREE ENERGY PREDICTED BY IDOCK:   -3.91 KCAL/MOL
REMARK 924 INTRA-LIGAND FREE ENERGY PREDICTED BY IDOCK:   -0.93 KCAL/MOL
REMARK 927      BINDING AFFINITY PREDICTED BY RF-SCORE:    0.00 PKD
ROOT
HETATM    1  C   UNL     1      -8.727   3.489  69.457  1.00  0.00    -0.127 C  
HETATM    2  C   UNL     1      -7.502   4.180  70.041  1.00  0.00    -0.046 C  
ENDROOT
BRANCH   2   3
HETATM    3  C   UNL     1      -7.500   5.662  69.687  1.00  0.00    -0.075 C  
BRANCH   3   4
HETATM    4  O   UNL     1      -7.499   6.442  70.884  1.00  0.00    -0.084 OA 
BRANCH   4   5
HETATM    5  C   UNL     1      -8.701   6.981  71.273  1.00  0.00    -0.130 A  
HETATM    6  C   UNL     1      -9.779   6.207  71.735  1.00  0.00    -0.171 A  
HETATM    7  C   UNL     1     -11.006   6.780  72.086  1.00  0.00    -0.238 A  
HETATM    8  C   UNL     1     -11.117   8.166  72.103  1.00  0.00    -0.386 A  
HETATM    9  N   UNL     1     -12.021   5.982  72.624  1.00  0.00    -0.533 NA 
HETATM   10  H1  UNL     1     -12.915   6.399  72.881  1.00  0.00     0.000 HD 
HETATM   11  C   UNL     1     -10.062   8.960  71.658  1.00  0.00    -0.411 A  
HETATM   12  H2  UNL     1     -11.649   5.492  73.437  1.00  0.00     0.000 HD 
HETATM   13  C   UNL     1      -8.861   8.378  71.221  1.00  0.00    -0.210 A  
BRANCH  13  14
HETATM   14  C   UNL     1      -7.875   9.328  70.638  1.00  0.00    -0.158 C  
HETATM   15  O   UNL     1      -6.721   9.422  71.034  1.00  0.00    -0.096 OA 
BRANCH  14  16
HETATM   16  O   UNL     1      -8.514  10.214  69.839  1.00  0.00    -0.176 OA 
BRANCH  16  17
HETATM   17  C   UNL     1      -7.698  10.829  68.830  1.00  0.00    -0.129 C  
BRANCH  17  18
HETATM   18  C   UNL     1      -8.261  10.350  67.480  1.00  0.00    -0.114 C  
BRANCH  18  19
HETATM   19  N   UNL     1      -8.543   8.908  67.328  1.00  0.00    -0.118 NA 
BRANCH  19  20
HETATM   20  C   UNL     1      -7.434   8.288  66.581  1.00  0.00    -0.086 C  
HETATM   21  C   UNL     1      -6.726   9.225  65.612  1.00  0.00    -0.073 C  
ENDBRANCH  19  20
BRANCH  19  22
HETATM   22  C   UNL     1      -9.875   8.635  66.776  1.00  0.00    -0.253 C  
HETATM   23  C   UNL     1     -10.701   7.570  67.492  1.00  0.00    -0.296 C  
ENDBRANCH  19  22
ENDBRANCH  18  19
ENDBRANCH  17  18
ENDBRANCH  16  17
ENDBRANCH  14  16
ENDBRANCH  13  14
ENDBRANCH   4   5
ENDBRANCH   3   4
ENDBRANCH   2   3
TORSDOF 10
ENDMDL
MODEL      289
REMARK 921   NORMALIZED FREE ENERGY PREDICTED BY IDOCK:   -2.37 KCAL/MOL
REMARK 922        TOTAL FREE ENERGY PREDICTED BY IDOCK:   -4.81 KCAL/MOL
REMARK 923 INTER-LIGAND FREE ENERGY PREDICTED BY IDOCK:   -3.75 KCAL/MOL
REMARK 924 INTRA-LIGAND FREE ENERGY PREDICTED BY IDOCK:   -1.07 KCAL/MOL
REMARK 927      BINDING AFFINITY PREDICTED BY RF-SCORE:    0.00 PKD
ROOT
HETATM    1  C   UNL     1      -8.052   4.479  66.160  1.00  0.00    -0.103 C  
HETATM    2  C   UNL     1      -8.936   5.513  65.477  1.00  0.00    -0.133 C  
ENDROOT
BRANCH   2   3
HETATM    3  C   UNL     1      -8.091   6.627  64.871  1.00  0.00    -0.115 C  
BRANCH   3   4
HETATM    4  O   UNL     1      -7.904   7.666  65.834  1.00  0.00    -0.093 OA 
BRANCH   4   5
HETATM    5  C   UNL     1      -8.815   8.695  65.821  1.00  0.00    -0.193 A  
HETATM    6  C   UNL     1      -9.205   9.362  64.648  1.00  0.00    -0.185 A  
HETATM    7  C   UNL     1     -10.105  10.433  64.668  1.00  0.00    -0.308 A  
HETATM    8  C   UNL     1     -10.731  10.757  65.868  1.00  0.00    -0.143 A  
HETATM    9  N   UNL     1     -10.532  11.010  63.468  1.00  0.00    -0.532 NA 
HETATM   10  H1  UNL     1     -11.189  11.790  63.484  1.00  0.00     0.000 HD 
HETATM   11  C   UNL     1     -10.371  10.107  67.046  1.00  0.00    -0.303 A  
HETATM   12  H2  UNL     1     -10.918  10.275  62.876  1.00  0.00     0.000 HD 
HETATM   13  C   UNL     1      -9.400   9.092  67.036  1.00  0.00    -0.190 A  
BRANCH  13  14
HETATM   14  C   UNL     1      -9.006   8.583  68.379  1.00  0.00    -0.139 C  
HETATM   15  O   UNL     1      -7.955   8.884  68.927  1.00  0.00    -0.101 OA 
BRANCH  14  16
HETATM   16  O   UNL     1      -9.826   7.568  68.738  1.00  0.00    -0.159 OA 
BRANCH  16  17
HETATM   17  C   UNL     1      -9.163   6.370  69.172  1.00  0.00    -0.133 C  
BRANCH  17  18
HETATM   18  C   UNL     1      -9.584   6.159  70.637  1.00  0.00    -0.173 C  
BRANCH  18  19
HETATM   19  N   UNL     1      -8.803   6.853  71.681  1.00  0.00    -0.129 NA 
BRANCH  19  20
HETATM   20  C   UNL     1      -7.422   6.339  71.654  1.00  0.00    -0.094 C  
HETATM   21  C   UNL     1      -7.298   4.849  71.947  1.00  0.00    -0.080 C  
ENDBRANCH  19  20
BRANCH  19  22
HETATM   22  C   UNL     1      -9.441   6.812  73.002  1.00  0.00    -0.140 C  
HETATM   23  C   UNL     1      -8.881   7.766  74.054  1.00  0.00    -0.304 C  
ENDBRANCH  19  22
ENDBRANCH  18  19
ENDBRANCH  17  18
ENDBRANCH  16  17
ENDBRANCH  14  16
ENDBRANCH  13  14
ENDBRANCH   4   5
ENDBRANCH   3   4
ENDBRANCH   2   3
TORSDOF 10
ENDMDL
MODEL      290
REMARK 921   NORMALIZED FREE ENERGY PREDICTED BY IDOCK:   -2.37 KCAL/MOL
REMARK 922        TOTAL FREE ENERGY PREDICTED BY IDOCK:   -4.81 KCAL/MOL
REMARK 923 INTER-LIGAND FREE ENERGY PREDICTED BY IDOCK:   -4.74 KCAL/MOL
REMARK 924 INTRA-LIGAND FREE ENERGY PREDICTED BY IDOCK:   -0.08 KCAL/MOL
REMARK 927      BINDING AFFINITY PREDICTED BY RF-SCORE:    0.00 PKD
ROOT
HETATM    1  C   UNL     1     -12.775  11.971  63.412  1.00  0.00    -0.527 C  
HETATM    2  C   UNL     1     -11.465  12.727  63.578  1.00  0.00    -0.521 C  
ENDROOT
BRANCH   2   3
HETATM    3  C   UNL     1     -10.307  11.759  63.787  1.00  0.00    -0.410 C  
BRANCH   3   4
HETATM    4  O   UNL     1     -10.572  10.930  64.920  1.00  0.00    -0.302 OA 
BRANCH   4   5
HETATM    5  C   UNL     1     -10.369  11.489  66.158  1.00  0.00    -0.245 A  
HETATM    6  C   UNL     1     -10.226  12.872  66.364  1.00  0.00    -0.273 A  
HETATM    7  C   UNL     1      -9.980  13.411  67.631  1.00  0.00    -0.229 A  
HETATM    8  C   UNL     1     -10.010  12.566  68.735  1.00  0.00    -0.028 A  
HETATM    9  N   UNL     1      -9.934  14.799  67.803  1.00  0.00    -0.222 NA 
HETATM   10  H1  UNL     1      -9.755  15.192  68.727  1.00  0.00     0.000 HD 
HETATM   11  C   UNL     1     -10.157  11.192  68.563  1.00  0.00    -0.208 A  
HETATM   12  H2  UNL     1     -10.801  15.197  67.445  1.00  0.00     0.000 HD 
HETATM   13  C   UNL     1     -10.315  10.642  67.280  1.00  0.00    -0.265 A  
BRANCH  13  14
HETATM   14  C   UNL     1     -10.316   9.155  67.226  1.00  0.00    -0.270 C  
HETATM   15  O   UNL     1     -11.022   8.513  66.460  1.00  0.00     0.226 OA 
BRANCH  14  16
HETATM   16  O   UNL     1      -9.656   8.660  68.299  1.00  0.00    -0.144 OA 
BRANCH  16  17
HETATM   17  C   UNL     1     -10.283   7.539  68.940  1.00  0.00    -0.208 C  
BRANCH  17  18
HETATM   18  C   UNL     1     -10.405   7.915  70.427  1.00  0.00    -0.212 C  
BRANCH  18  19
HETATM   19  N   UNL     1      -9.874   6.960  71.422  1.00  0.00    -0.178 NA 
BRANCH  19  20
HETATM   20  C   UNL     1      -8.826   6.147  70.779  1.00  0.00    -0.140 C  
HETATM   21  C   UNL     1      -7.480   6.178  71.492  1.00  0.00    -0.094 C  
ENDBRANCH  19  20
BRANCH  19  22
HETATM   22  C   UNL     1     -10.922   6.181  72.092  1.00  0.00    -0.262 C  
HETATM   23  C   UNL     1     -10.609   4.711  72.356  1.00  0.00    -0.225 C  
ENDBRANCH  19  22
ENDBRANCH  18  19
ENDBRANCH  17  18
ENDBRANCH  16  17
ENDBRANCH  14  16
ENDBRANCH  13  14
ENDBRANCH   4   5
ENDBRANCH   3   4
ENDBRANCH   2   3
TORSDOF 10
ENDMDL
MODEL      291
REMARK 921   NORMALIZED FREE ENERGY PREDICTED BY IDOCK:   -2.37 KCAL/MOL
REMARK 922        TOTAL FREE ENERGY PREDICTED BY IDOCK:   -4.81 KCAL/MOL
REMARK 923 INTER-LIGAND FREE ENERGY PREDICTED BY IDOCK:   -3.66 KCAL/MOL
REMARK 924 INTRA-LIGAND FREE ENERGY PREDICTED BY IDOCK:   -1.15 KCAL/MOL
REMARK 927      BINDING AFFINITY PREDICTED BY RF-SCORE:    0.00 PKD
ROOT
HETATM    1  C   UNL     1      -8.772   8.148  73.045  1.00  0.00    -0.309 C  
HETATM    2  C   UNL     1      -7.604   8.328  72.086  1.00  0.00    -0.154 C  
ENDROOT
BRANCH   2   3
HETATM    3  C   UNL     1      -7.394   7.071  71.251  1.00  0.00    -0.080 C  
BRANCH   3   4
HETATM    4  O   UNL     1      -8.480   6.916  70.334  1.00  0.00    -0.131 OA 
BRANCH   4   5
HETATM    5  C   UNL     1      -8.551   5.725  69.654  1.00  0.00    -0.116 A  
HETATM    6  C   UNL     1      -7.565   4.728  69.742  1.00  0.00    -0.055 A  
HETATM    7  C   UNL     1      -7.644   3.540  69.007  1.00  0.00    -0.052 A  
HETATM    8  C   UNL     1      -8.797   3.284  68.272  1.00  0.00    -0.159 A  
HETATM    9  N   UNL     1      -6.685   2.539  69.193  1.00  0.00    -0.033 NA 
HETATM   10  H1  UNL     1      -6.743   1.673  68.658  1.00  0.00     0.000 HD 
HETATM   11  C   UNL     1      -9.795   4.250  68.173  1.00  0.00    -0.107 A  
HETATM   12  H2  UNL     1      -6.653   2.303  70.185  1.00  0.00     0.000 HD 
HETATM   13  C   UNL     1      -9.672   5.480  68.840  1.00  0.00    -0.193 A  
BRANCH  13  14
HETATM   14  C   UNL     1     -10.737   6.474  68.534  1.00  0.00    -0.273 C  
HETATM   15  O   UNL     1     -11.646   6.742  69.307  1.00  0.00    -0.166 OA 
BRANCH  14  16
HETATM   16  O   UNL     1     -10.692   6.798  67.220  1.00  0.00    -0.267 OA 
BRANCH  16  17
HETATM   17  C   UNL     1      -9.742   7.818  66.874  1.00  0.00    -0.216 C  
BRANCH  17  18
HETATM   18  C   UNL     1     -10.525   9.142  66.872  1.00  0.00    -0.217 C  
BRANCH  18  19
HETATM   19  N   UNL     1     -10.013  10.243  67.715  1.00  0.00    -0.168 NA 
BRANCH  19  20
HETATM   20  C   UNL     1     -11.030  10.568  68.731  1.00  0.00    -0.251 C  
HETATM   21  C   UNL     1     -10.677  10.119  70.142  1.00  0.00    -0.355 C  
ENDBRANCH  19  20
BRANCH  19  22
HETATM   22  C   UNL     1      -9.540  11.394  66.938  1.00  0.00    -0.185 C  
HETATM   23  C   UNL     1      -8.153  11.925  67.289  1.00  0.00    -0.171 C  
ENDBRANCH  19  22
ENDBRANCH  18  19
ENDBRANCH  17  18
ENDBRANCH  16  17
ENDBRANCH  14  16
ENDBRANCH  13  14
ENDBRANCH   4   5
ENDBRANCH   3   4
ENDBRANCH   2   3
TORSDOF 10
ENDMDL
MODEL      292
REMARK 921   NORMALIZED FREE ENERGY PREDICTED BY IDOCK:   -2.34 KCAL/MOL
REMARK 922        TOTAL FREE ENERGY PREDICTED BY IDOCK:   -4.76 KCAL/MOL
REMARK 923 INTER-LIGAND FREE ENERGY PREDICTED BY IDOCK:   -4.01 KCAL/MOL
REMARK 924 INTRA-LIGAND FREE ENERGY PREDICTED BY IDOCK:   -0.75 KCAL/MOL
REMARK 927      BINDING AFFINITY PREDICTED BY RF-SCORE:    0.00 PKD
ROOT
HETATM    1  C   UNL     1     -12.501   7.084  71.240  1.00  0.00    -0.430 C  
HETATM    2  C   UNL     1     -12.306   8.285  72.155  1.00  0.00    -0.410 C  
ENDROOT
BRANCH   2   3
HETATM    3  C   UNL     1     -11.382   9.309  71.508  1.00  0.00    -0.385 C  
BRANCH   3   4
HETATM    4  O   UNL     1     -10.871   8.788  70.280  1.00  0.00    -0.226 OA 
BRANCH   4   5
HETATM    5  C   UNL     1      -9.579   9.125  69.954  1.00  0.00    -0.192 A  
HETATM    6  C   UNL     1      -9.121  10.451  69.898  1.00  0.00     0.116 A  
HETATM    7  C   UNL     1      -7.810  10.767  69.524  1.00  0.00    -0.035 A  
HETATM    8  C   UNL     1      -6.902   9.731  69.333  1.00  0.00    -0.057 A  
HETATM    9  N   UNL     1      -7.372  12.094  69.567  1.00  0.00    -0.311 NA 
HETATM   10  H1  UNL     1      -6.416  12.324  69.296  1.00  0.00     0.000 HD 
HETATM   11  C   UNL     1      -7.325   8.406  69.390  1.00  0.00    -0.070 A  
HETATM   12  H2  UNL     1      -7.536  12.458  70.505  1.00  0.00     0.000 HD 
HETATM   13  C   UNL     1      -8.664   8.093  69.678  1.00  0.00    -0.142 A  
BRANCH  13  14
HETATM   14  C   UNL     1      -9.014   6.650  69.565  1.00  0.00    -0.138 C  
HETATM   15  O   UNL     1      -9.796   6.214  68.733  1.00  0.00    -0.129 OA 
BRANCH  14  16
HETATM   16  O   UNL     1      -8.566   5.988  70.658  1.00  0.00    -0.131 OA 
BRANCH  16  17
HETATM   17  C   UNL     1      -9.544   5.175  71.324  1.00  0.00    -0.162 C  
BRANCH  17  18
HETATM   18  C   UNL     1      -8.899   4.738  72.651  1.00  0.00    -0.114 C  
BRANCH  18  19
HETATM   19  N   UNL     1      -9.541   5.185  73.905  1.00  0.00    -0.133 NA 
BRANCH  19  20
HETATM   20  C   UNL     1     -10.806   4.448  74.073  1.00  0.00    -0.247 C  
HETATM   21  C   UNL     1     -10.812   3.057  73.453  1.00  0.00    -0.307 C  
ENDBRANCH  19  20
BRANCH  19  22
HETATM   22  C   UNL     1      -9.669   6.643  74.001  1.00  0.00    -0.262 C  
HETATM   23  C   UNL     1      -8.409   7.410  74.391  1.00  0.00    -0.244 C  
ENDBRANCH  19  22
ENDBRANCH  18  19
ENDBRANCH  17  18
ENDBRANCH  16  17
ENDBRANCH  14  16
ENDBRANCH  13  14
ENDBRANCH   4   5
ENDBRANCH   3   4
ENDBRANCH   2   3
TORSDOF 10
ENDMDL
MODEL      293
REMARK 921   NORMALIZED FREE ENERGY PREDICTED BY IDOCK:   -2.30 KCAL/MOL
REMARK 922        TOTAL FREE ENERGY PREDICTED BY IDOCK:   -4.71 KCAL/MOL
REMARK 923 INTER-LIGAND FREE ENERGY PREDICTED BY IDOCK:   -3.69 KCAL/MOL
REMARK 924 INTRA-LIGAND FREE ENERGY PREDICTED BY IDOCK:   -1.02 KCAL/MOL
REMARK 927      BINDING AFFINITY PREDICTED BY RF-SCORE:    0.00 PKD
ROOT
HETATM    1  C   UNL     1      -7.768   3.456  70.856  1.00  0.00    -0.043 C  
HETATM    2  C   UNL     1      -8.784   3.210  69.749  1.00  0.00    -0.129 C  
ENDROOT
BRANCH   2   3
HETATM    3  C   UNL     1      -9.770   4.368  69.656  1.00  0.00    -0.219 C  
BRANCH   3   4
HETATM    4  O   UNL     1      -9.303   5.462  70.449  1.00  0.00    -0.150 OA 
BRANCH   4   5
HETATM    5  C   UNL     1     -10.205   6.463  70.716  1.00  0.00    -0.190 A  
HETATM    6  C   UNL     1     -11.487   6.224  71.238  1.00  0.00    -0.352 A  
HETATM    7  C   UNL     1     -12.401   7.260  71.463  1.00  0.00    -0.362 A  
HETATM    8  C   UNL     1     -11.978   8.573  71.288  1.00  0.00    -0.334 A  
HETATM    9  N   UNL     1     -13.632   6.986  72.066  1.00  0.00    -0.556 NA 
HETATM   10  H1  UNL     1     -14.298   7.742  72.230  1.00  0.00     0.000 HD 
HETATM   11  C   UNL     1     -10.710   8.841  70.779  1.00  0.00    -0.277 A  
HETATM   12  H2  UNL     1     -13.460   6.511  72.951  1.00  0.00     0.000 HD 
HETATM   13  C   UNL     1      -9.826   7.795  70.469  1.00  0.00    -0.182 A  
BRANCH  13  14
HETATM   14  C   UNL     1      -8.563   8.212  69.800  1.00  0.00    -0.133 C  
HETATM   15  O   UNL     1      -7.685   8.849  70.365  1.00  0.00    -0.076 OA 
BRANCH  14  16
HETATM   16  O   UNL     1      -8.674   8.025  68.464  1.00  0.00    -0.131 OA 
BRANCH  16  17
HETATM   17  C   UNL     1      -7.435   7.814  67.771  1.00  0.00    -0.104 C  
BRANCH  17  18
HETATM   18  C   UNL     1      -7.782   6.977  66.527  1.00  0.00    -0.104 C  
BRANCH  18  19
HETATM   19  N   UNL     1      -6.948   5.791  66.244  1.00  0.00    -0.059 NA 
BRANCH  19  20
HETATM   20  C   UNL     1      -7.834   4.628  66.051  1.00  0.00    -0.095 C  
HETATM   21  C   UNL     1      -8.817   4.770  64.897  1.00  0.00    -0.153 C  
ENDBRANCH  19  20
BRANCH  19  22
HETATM   22  C   UNL     1      -5.882   5.585  67.231  1.00  0.00    -0.018 C  
HETATM   23  C   UNL     1      -5.719   4.166  67.768  1.00  0.00    -0.022 C  
ENDBRANCH  19  22
ENDBRANCH  18  19
ENDBRANCH  17  18
ENDBRANCH  16  17
ENDBRANCH  14  16
ENDBRANCH  13  14
ENDBRANCH   4   5
ENDBRANCH   3   4
ENDBRANCH   2   3
TORSDOF 10
ENDMDL
MODEL      294
REMARK 921   NORMALIZED FREE ENERGY PREDICTED BY IDOCK:   -2.29 KCAL/MOL
REMARK 922        TOTAL FREE ENERGY PREDICTED BY IDOCK:   -4.68 KCAL/MOL
REMARK 923 INTER-LIGAND FREE ENERGY PREDICTED BY IDOCK:   -3.90 KCAL/MOL
REMARK 924 INTRA-LIGAND FREE ENERGY PREDICTED BY IDOCK:   -0.78 KCAL/MOL
REMARK 927      BINDING AFFINITY PREDICTED BY RF-SCORE:    0.00 PKD
ROOT
HETATM    1  C   UNL     1     -10.221  10.300  64.787  1.00  0.00    -0.238 C  
HETATM    2  C   UNL     1     -11.089  11.538  64.609  1.00  0.00    -0.317 C  
ENDROOT
BRANCH   2   3
HETATM    3  C   UNL     1     -10.362  12.781  65.107  1.00  0.00    -0.295 C  
BRANCH   3   4
HETATM    4  O   UNL     1      -9.526  12.438  66.214  1.00  0.00    -0.233 OA 
BRANCH   4   5
HETATM    5  C   UNL     1      -8.999  13.480  66.939  1.00  0.00    -0.209 A  
HETATM    6  C   UNL     1      -9.089  14.822  66.533  1.00  0.00    -0.291 A  
HETATM    7  C   UNL     1      -8.509  15.859  67.270  1.00  0.00    -0.184 A  
HETATM    8  C   UNL     1      -7.944  15.566  68.507  1.00  0.00    -0.137 A  
HETATM    9  N   UNL     1      -8.698  17.188  66.876  1.00  0.00    -0.222 NA 
HETATM   10  H1  UNL     1      -8.276  17.944  67.414  1.00  0.00     0.000 HD 
HETATM   11  C   UNL     1      -7.848  14.245  68.939  1.00  0.00    -0.097 A  
HETATM   12  H2  UNL     1      -9.700  17.363  66.805  1.00  0.00     0.000 HD 
HETATM   13  C   UNL     1      -8.352  13.195  68.154  1.00  0.00    -0.161 A  
BRANCH  13  14
HETATM   14  C   UNL     1      -8.056  11.828  68.663  1.00  0.00    -0.104 C  
HETATM   15  O   UNL     1      -7.023  11.225  68.404  1.00  0.00    -0.063 OA 
BRANCH  14  16
HETATM   16  O   UNL     1      -9.179  11.287  69.191  1.00  0.00    -0.053 OA 
BRANCH  16  17
HETATM   17  C   UNL     1      -9.274   9.858  69.094  1.00  0.00    -0.180 C  
BRANCH  17  18
HETATM   18  C   UNL     1     -10.079   9.402  70.323  1.00  0.00    -0.240 C  
BRANCH  18  19
HETATM   19  N   UNL     1      -9.397   8.533  71.305  1.00  0.00    -0.183 NA 
BRANCH  19  20
HETATM   20  C   UNL     1      -8.054   8.208  70.792  1.00  0.00    -0.102 C  
HETATM   21  C   UNL     1      -7.009   7.966  71.873  1.00  0.00    -0.070 C  
ENDBRANCH  19  20
BRANCH  19  22
HETATM   22  C   UNL     1     -10.197   7.367  71.698  1.00  0.00    -0.188 C  
HETATM   23  C   UNL     1     -11.462   7.108  70.885  1.00  0.00    -0.333 C  
ENDBRANCH  19  22
ENDBRANCH  18  19
ENDBRANCH  17  18
ENDBRANCH  16  17
ENDBRANCH  14  16
ENDBRANCH  13  14
ENDBRANCH   4   5
ENDBRANCH   3   4
ENDBRANCH   2   3
TORSDOF 10
ENDMDL
MODEL      295
REMARK 921   NORMALIZED FREE ENERGY PREDICTED BY IDOCK:   -2.29 KCAL/MOL
REMARK 922        TOTAL FREE ENERGY PREDICTED BY IDOCK:   -4.68 KCAL/MOL
REMARK 923 INTER-LIGAND FREE ENERGY PREDICTED BY IDOCK:   -3.82 KCAL/MOL
REMARK 924 INTRA-LIGAND FREE ENERGY PREDICTED BY IDOCK:   -0.86 KCAL/MOL
REMARK 927      BINDING AFFINITY PREDICTED BY RF-SCORE:    0.00 PKD
ROOT
HETATM    1  C   UNL     1      -5.424  18.480  66.667  1.00  0.00    -0.164 C  
HETATM    2  C   UNL     1      -6.474  19.027  65.711  1.00  0.00    -0.280 C  
ENDROOT
BRANCH   2   3
HETATM    3  C   UNL     1      -7.595  18.016  65.507  1.00  0.00     0.389 C  
BRANCH   3   4
HETATM    4  O   UNL     1      -8.841  18.592  65.906  1.00  0.00    -0.482 OA 
BRANCH   4   5
HETATM    5  C   UNL     1      -9.528  17.949  66.908  1.00  0.00    -0.279 A  
HETATM    6  C   UNL     1      -9.463  18.338  68.256  1.00  0.00    -0.320 A  
HETATM    7  C   UNL     1     -10.141  17.641  69.262  1.00  0.00    -0.147 A  
HETATM    8  C   UNL     1     -11.008  16.616  68.896  1.00  0.00    -0.294 A  
HETATM    9  N   UNL     1     -10.120  18.115  70.577  1.00  0.00     1.382 NA 
HETATM   10  H1  UNL     1     -10.615  17.607  71.310  1.00  0.00     0.000 HD 
HETATM   11  C   UNL     1     -11.100  16.214  67.566  1.00  0.00    -0.175 A  
HETATM   12  H2  UNL     1     -10.447  19.080  70.577  1.00  0.00     0.000 HD 
HETATM   13  C   UNL     1     -10.348  16.858  66.569  1.00  0.00    -0.299 A  
BRANCH  13  14
HETATM   14  C   UNL     1     -10.428  16.239  65.218  1.00  0.00    -0.300 C  
HETATM   15  O   UNL     1     -10.973  16.778  64.265  1.00  0.00    -0.933 OA 
BRANCH  14  16
HETATM   16  O   UNL     1     -10.071  14.935  65.294  1.00  0.00    -0.355 OA 
BRANCH  16  17
HETATM   17  C   UNL     1     -10.862  14.037  64.502  1.00  0.00    -0.347 C  
BRANCH  17  18
HETATM   18  C   UNL     1     -11.413  12.983  65.479  1.00  0.00    -0.321 C  
BRANCH  18  19
HETATM   19  N   UNL     1     -10.440  12.102  66.157  1.00  0.00    -0.242 NA 
BRANCH  19  20
HETATM   20  C   UNL     1     -10.835  10.700  65.927  1.00  0.00     0.040 C  
HETATM   21  C   UNL     1     -10.146  10.038  64.742  1.00  0.00    -0.129 C  
ENDBRANCH  19  20
BRANCH  19  22
HETATM   22  C   UNL     1     -10.228  12.451  67.566  1.00  0.00    -0.209 C  
HETATM   23  C   UNL     1     -11.484  12.684  68.402  1.00  0.00    -0.350 C  
ENDBRANCH  19  22
ENDBRANCH  18  19
ENDBRANCH  17  18
ENDBRANCH  16  17
ENDBRANCH  14  16
ENDBRANCH  13  14
ENDBRANCH   4   5
ENDBRANCH   3   4
ENDBRANCH   2   3
TORSDOF 10
ENDMDL
MODEL      296
REMARK 921   NORMALIZED FREE ENERGY PREDICTED BY IDOCK:   -2.22 KCAL/MOL
REMARK 922        TOTAL FREE ENERGY PREDICTED BY IDOCK:   -4.57 KCAL/MOL
REMARK 923 INTER-LIGAND FREE ENERGY PREDICTED BY IDOCK:   -3.55 KCAL/MOL
REMARK 924 INTRA-LIGAND FREE ENERGY PREDICTED BY IDOCK:   -1.02 KCAL/MOL
REMARK 927      BINDING AFFINITY PREDICTED BY RF-SCORE:    0.00 PKD
ROOT
HETATM    1  C   UNL     1     -10.350   8.354  67.674  1.00  0.00    -0.317 C  
HETATM    2  C   UNL     1     -10.732   7.099  68.446  1.00  0.00    -0.192 C  
ENDROOT
BRANCH   2   3
HETATM    3  C   UNL     1     -11.122   7.445  69.878  1.00  0.00    -0.190 C  
BRANCH   3   4
HETATM    4  O   UNL     1     -11.169   6.253  70.665  1.00  0.00    -0.300 OA 
BRANCH   4   5
HETATM    5  C   UNL     1     -10.204   6.111  71.632  1.00  0.00    -0.198 A  
HETATM    6  C   UNL     1      -9.944   7.087  72.609  1.00  0.00    -0.196 A  
HETATM    7  C   UNL     1      -8.928   6.934  73.558  1.00  0.00    -0.141 A  
HETATM    8  C   UNL     1      -8.245   5.724  73.617  1.00  0.00    -0.111 A  
HETATM    9  N   UNL     1      -8.763   7.890  74.565  1.00  0.00    -0.437 NA 
HETATM   10  H1  UNL     1      -8.022   7.778  75.258  1.00  0.00     0.000 HD 
HETATM   11  C   UNL     1      -8.487   4.734  72.667  1.00  0.00    -0.115 A  
HETATM   12  H2  UNL     1      -9.649   7.997  75.057  1.00  0.00     0.000 HD 
HETATM   13  C   UNL     1      -9.446   4.927  71.660  1.00  0.00    -0.204 A  
BRANCH  13  14
HETATM   14  C   UNL     1      -9.502   3.855  70.628  1.00  0.00    -0.174 C  
HETATM   15  O   UNL     1      -9.835   2.704  70.875  1.00  0.00    -0.111 OA 
BRANCH  14  16
HETATM   16  O   UNL     1      -8.884   4.277  69.500  1.00  0.00    -0.082 OA 
BRANCH  16  17
HETATM   17  C   UNL     1      -8.765   3.293  68.462  1.00  0.00    -0.103 C  
BRANCH  17  18
HETATM   18  C   UNL     1      -7.677   3.814  67.507  1.00  0.00    -0.078 C  
BRANCH  18  19
HETATM   19  N   UNL     1      -8.117   4.454  66.250  1.00  0.00    -0.102 NA 
BRANCH  19  20
HETATM   20  C   UNL     1      -8.026   5.917  66.411  1.00  0.00    -0.102 C  
HETATM   21  C   UNL     1      -6.964   6.376  67.401  1.00  0.00    -0.075 C  
ENDBRANCH  19  20
BRANCH  19  22
HETATM   22  C   UNL     1      -9.424   3.975  65.784  1.00  0.00    -0.178 C  
HETATM   23  C   UNL     1      -9.403   2.873  64.728  1.00  0.00    -0.147 C  
ENDBRANCH  19  22
ENDBRANCH  18  19
ENDBRANCH  17  18
ENDBRANCH  16  17
ENDBRANCH  14  16
ENDBRANCH  13  14
ENDBRANCH   4   5
ENDBRANCH   3   4
ENDBRANCH   2   3
TORSDOF 10
ENDMDL
MODEL      297
REMARK 921   NORMALIZED FREE ENERGY PREDICTED BY IDOCK:   -2.17 KCAL/MOL
REMARK 922        TOTAL FREE ENERGY PREDICTED BY IDOCK:   -4.49 KCAL/MOL
REMARK 923 INTER-LIGAND FREE ENERGY PREDICTED BY IDOCK:   -3.53 KCAL/MOL
REMARK 924 INTRA-LIGAND FREE ENERGY PREDICTED BY IDOCK:   -0.96 KCAL/MOL
REMARK 927      BINDING AFFINITY PREDICTED BY RF-SCORE:    0.00 PKD
ROOT
HETATM    1  C   UNL     1      -7.916  17.851  66.414  1.00  0.00    -0.302 C  
HETATM    2  C   UNL     1      -9.338  17.325  66.278  1.00  0.00    -0.248 C  
ENDROOT
BRANCH   2   3
HETATM    3  C   UNL     1      -9.336  15.814  66.081  1.00  0.00    -0.346 C  
BRANCH   3   4
HETATM    4  O   UNL     1      -9.646  15.167  67.317  1.00  0.00    -0.206 OA 
BRANCH   4   5
HETATM    5  C   UNL     1      -8.646  14.422  67.893  1.00  0.00    -0.165 A  
HETATM    6  C   UNL     1      -7.585  14.988  68.619  1.00  0.00    -0.128 A  
HETATM    7  C   UNL     1      -6.558  14.207  69.162  1.00  0.00    -0.115 A  
HETATM    8  C   UNL     1      -6.663  12.822  69.092  1.00  0.00    -0.080 A  
HETATM    9  N   UNL     1      -5.570  14.804  69.952  1.00  0.00    -0.100 NA 
HETATM   10  H1  UNL     1      -4.822  14.235  70.347  1.00  0.00     0.000 HD 
HETATM   11  C   UNL     1      -7.708  12.232  68.385  1.00  0.00    -0.141 A  
HETATM   12  H2  UNL     1      -6.026  15.310  70.710  1.00  0.00     0.000 HD 
HETATM   13  C   UNL     1      -8.690  13.022  67.765  1.00  0.00    -0.188 A  
BRANCH  13  14
HETATM   14  C   UNL     1      -9.665  12.273  66.925  1.00  0.00    -0.212 C  
HETATM   15  O   UNL     1     -10.782  11.961  67.312  1.00  0.00    -0.220 OA 
BRANCH  14  16
HETATM   16  O   UNL     1      -9.037  11.779  65.832  1.00  0.00    -0.205 OA 
BRANCH  16  17
HETATM   17  C   UNL     1      -9.398  10.436  65.474  1.00  0.00    -0.197 C  
BRANCH  17  18
HETATM   18  C   UNL     1      -8.447   9.517  66.263  1.00  0.00    -0.115 C  
BRANCH  18  19
HETATM   19  N   UNL     1      -7.387   8.819  65.508  1.00  0.00    -0.084 NA 
BRANCH  19  20
HETATM   20  C   UNL     1      -6.572   9.824  64.801  1.00  0.00    -0.110 C  
HETATM   21  C   UNL     1      -5.588  10.574  65.689  1.00  0.00    -0.118 C  
ENDBRANCH  19  20
BRANCH  19  22
HETATM   22  C   UNL     1      -7.899   7.742  64.653  1.00  0.00    -0.130 C  
HETATM   23  C   UNL     1      -8.412   6.495  65.368  1.00  0.00    -0.119 C  
ENDBRANCH  19  22
ENDBRANCH  18  19
ENDBRANCH  17  18
ENDBRANCH  16  17
ENDBRANCH  14  16
ENDBRANCH  13  14
ENDBRANCH   4   5
ENDBRANCH   3   4
ENDBRANCH   2   3
TORSDOF 10
ENDMDL
MODEL      298
REMARK 921   NORMALIZED FREE ENERGY PREDICTED BY IDOCK:   -2.15 KCAL/MOL
REMARK 922        TOTAL FREE ENERGY PREDICTED BY IDOCK:   -4.47 KCAL/MOL
REMARK 923 INTER-LIGAND FREE ENERGY PREDICTED BY IDOCK:   -3.85 KCAL/MOL
REMARK 924 INTRA-LIGAND FREE ENERGY PREDICTED BY IDOCK:   -0.62 KCAL/MOL
REMARK 927      BINDING AFFINITY PREDICTED BY RF-SCORE:    0.00 PKD
ROOT
HETATM    1  C   UNL     1      -8.296   4.626  67.232  1.00  0.00    -0.105 C  
HETATM    2  C   UNL     1      -9.338   4.542  68.339  1.00  0.00    -0.194 C  
ENDROOT
BRANCH   2   3
HETATM    3  C   UNL     1      -8.668   4.527  69.708  1.00  0.00    -0.077 C  
BRANCH   3   4
HETATM    4  O   UNL     1      -8.476   5.868  70.163  1.00  0.00    -0.122 OA 
BRANCH   4   5
HETATM    5  C   UNL     1      -9.373   6.343  71.089  1.00  0.00    -0.160 A  
HETATM    6  C   UNL     1      -9.916   5.547  72.112  1.00  0.00    -0.219 A  
HETATM    7  C   UNL     1     -10.859   6.045  73.018  1.00  0.00    -0.260 A  
HETATM    8  C   UNL     1     -11.165   7.402  72.985  1.00  0.00    -0.345 A  
HETATM    9  N   UNL     1     -11.306   5.244  74.073  1.00  0.00    -0.280 NA 
HETATM   10  H1  UNL     1     -11.993   5.607  74.733  1.00  0.00     0.000 HD 
HETATM   11  C   UNL     1     -10.635   8.218  71.988  1.00  0.00    -0.365 A  
HETATM   12  H2  UNL     1     -10.495   4.919  74.597  1.00  0.00     0.000 HD 
HETATM   13  C   UNL     1      -9.758   7.694  71.024  1.00  0.00    -0.169 A  
BRANCH  13  14
HETATM   14  C   UNL     1      -9.382   8.636  69.935  1.00  0.00    -0.159 C  
HETATM   15  O   UNL     1      -9.241   9.839  70.108  1.00  0.00    -0.234 OA 
BRANCH  14  16
HETATM   16  O   UNL     1      -9.496   8.015  68.738  1.00  0.00    -0.147 OA 
BRANCH  16  17
HETATM   17  C   UNL     1      -8.414   8.245  67.823  1.00  0.00    -0.131 C  
BRANCH  17  18
HETATM   18  C   UNL     1      -9.066   8.599  66.475  1.00  0.00    -0.165 C  
BRANCH  18  19
HETATM   19  N   UNL     1      -8.344   9.534  65.588  1.00  0.00    -0.122 NA 
BRANCH  19  20
HETATM   20  C   UNL     1      -9.171  10.740  65.403  1.00  0.00    -0.205 C  
HETATM   21  C   UNL     1     -10.636  10.562  65.777  1.00  0.00    -0.137 C  
ENDBRANCH  19  20
BRANCH  19  22
HETATM   22  C   UNL     1      -7.889   8.912  64.339  1.00  0.00    -0.128 C  
HETATM   23  C   UNL     1      -7.776   7.390  64.342  1.00  0.00    -0.120 C  
ENDBRANCH  19  22
ENDBRANCH  18  19
ENDBRANCH  17  18
ENDBRANCH  16  17
ENDBRANCH  14  16
ENDBRANCH  13  14
ENDBRANCH   4   5
ENDBRANCH   3   4
ENDBRANCH   2   3
TORSDOF 10
ENDMDL
MODEL      299
REMARK 921   NORMALIZED FREE ENERGY PREDICTED BY IDOCK:   -2.01 KCAL/MOL
REMARK 922        TOTAL FREE ENERGY PREDICTED BY IDOCK:   -4.24 KCAL/MOL
REMARK 923 INTER-LIGAND FREE ENERGY PREDICTED BY IDOCK:   -3.91 KCAL/MOL
REMARK 924 INTRA-LIGAND FREE ENERGY PREDICTED BY IDOCK:   -0.32 KCAL/MOL
REMARK 927      BINDING AFFINITY PREDICTED BY RF-SCORE:    0.00 PKD
ROOT
HETATM    1  C   UNL     1      -9.668   9.775  65.212  1.00  0.00    -0.371 C  
HETATM    2  C   UNL     1     -10.416  10.476  66.337  1.00  0.00    -0.258 C  
ENDROOT
BRANCH   2   3
HETATM    3  C   UNL     1      -9.486  11.407  67.104  1.00  0.00    -0.175 C  
BRANCH   3   4
HETATM    4  O   UNL     1      -8.384  10.663  67.626  1.00  0.00    -0.114 OA 
BRANCH   4   5
HETATM    5  C   UNL     1      -7.507  11.341  68.438  1.00  0.00    -0.108 A  
HETATM    6  C   UNL     1      -7.431  12.743  68.486  1.00  0.00    -0.120 A  
HETATM    7  C   UNL     1      -6.500  13.408  69.292  1.00  0.00    -0.111 A  
HETATM    8  C   UNL     1      -5.721  12.660  70.169  1.00  0.00    -0.154 A  
HETATM    9  N   UNL     1      -6.519  14.803  69.376  1.00  0.00    -0.120 NA 
HETATM   10  H1  UNL     1      -5.841  15.288  69.964  1.00  0.00     0.000 HD 
HETATM   11  C   UNL     1      -5.781  11.269  70.149  1.00  0.00    -0.120 A  
HETATM   12  H2  UNL     1      -7.455  15.098  69.653  1.00  0.00     0.000 HD 
HETATM   13  C   UNL     1      -6.652  10.600  69.274  1.00  0.00    -0.068 A  
BRANCH  13  14
HETATM   14  C   UNL     1      -6.512   9.119  69.253  1.00  0.00    -0.045 C  
HETATM   15  O   UNL     1      -6.106   8.498  68.280  1.00  0.00    -0.048 OA 
BRANCH  14  16
HETATM   16  O   UNL     1      -7.144   8.587  70.325  1.00  0.00    -0.041 OA 
BRANCH  16  17
HETATM   17  C   UNL     1      -8.341   9.269  70.730  1.00  0.00    -0.186 C  
BRANCH  17  18
HETATM   18  C   UNL     1      -9.212   8.215  71.435  1.00  0.00    -0.153 C  
BRANCH  18  19
HETATM   19  N   UNL     1     -10.662   8.221  71.150  1.00  0.00    -0.221 NA 
BRANCH  19  20
HETATM   20  C   UNL     1     -11.032   9.549  70.626  1.00  0.00    -0.306 C  
HETATM   21  C   UNL     1     -12.221  10.193  71.326  1.00  0.00    -0.496 C  
ENDBRANCH  19  20
BRANCH  19  22
HETATM   22  C   UNL     1     -11.476   7.766  72.283  1.00  0.00    -0.332 C  
HETATM   23  C   UNL     1     -10.714   7.261  73.505  1.00  0.00    -0.367 C  
ENDBRANCH  19  22
ENDBRANCH  18  19
ENDBRANCH  17  18
ENDBRANCH  16  17
ENDBRANCH  14  16
ENDBRANCH  13  14
ENDBRANCH   4   5
ENDBRANCH   3   4
ENDBRANCH   2   3
TORSDOF 10
ENDMDL
MODEL      300
REMARK 921   NORMALIZED FREE ENERGY PREDICTED BY IDOCK:   -1.95 KCAL/MOL
REMARK 922        TOTAL FREE ENERGY PREDICTED BY IDOCK:   -4.14 KCAL/MOL
REMARK 923 INTER-LIGAND FREE ENERGY PREDICTED BY IDOCK:   -3.38 KCAL/MOL
REMARK 924 INTRA-LIGAND FREE ENERGY PREDICTED BY IDOCK:   -0.77 KCAL/MOL
REMARK 927      BINDING AFFINITY PREDICTED BY RF-SCORE:    0.00 PKD
ROOT
HETATM    1  C   UNL     1     -10.368   8.338  67.064  1.00  0.00    -0.393 C  
HETATM    2  C   UNL     1     -10.661   6.889  67.426  1.00  0.00    -0.396 C  
ENDROOT
BRANCH   2   3
HETATM    3  C   UNL     1     -11.159   6.784  68.862  1.00  0.00    -0.181 C  
BRANCH   3   4
HETATM    4  O   UNL     1     -10.969   5.450  69.340  1.00  0.00    -0.191 OA 
BRANCH   4   5
HETATM    5  C   UNL     1      -9.880   5.231  70.148  1.00  0.00    -0.220 A  
HETATM    6  C   UNL     1      -9.361   6.203  71.020  1.00  0.00    -0.176 A  
HETATM    7  C   UNL     1      -8.226   5.966  71.803  1.00  0.00    -0.119 A  
HETATM    8  C   UNL     1      -7.676   4.688  71.814  1.00  0.00    -0.096 A  
HETATM    9  N   UNL     1      -7.797   6.929  72.721  1.00  0.00    -0.097 NA 
HETATM   10  H1  UNL     1      -6.969   6.757  73.292  1.00  0.00     0.000 HD 
HETATM   11  C   UNL     1      -8.174   3.702  70.966  1.00  0.00    -0.078 A  
HETATM   12  H2  UNL     1      -8.575   7.153  73.341  1.00  0.00     0.000 HD 
HETATM   13  C   UNL     1      -9.259   3.969  70.115  1.00  0.00    -0.212 A  
BRANCH  13  14
HETATM   14  C   UNL     1      -9.597   2.878  69.161  1.00  0.00     0.016 C  
HETATM   15  O   UNL     1      -9.570   1.693  69.462  1.00  0.00    -0.086 OA 
BRANCH  14  16
HETATM   16  O   UNL     1      -9.656   3.376  67.903  1.00  0.00    -0.190 OA 
BRANCH  16  17
HETATM   17  C   UNL     1      -8.850   2.688  66.934  1.00  0.00    -0.133 C  
BRANCH  17  18
HETATM   18  C   UNL     1      -8.135   3.783  66.124  1.00  0.00    -0.100 C  
BRANCH  18  19
HETATM   19  N   UNL     1      -8.785   4.251  64.882  1.00  0.00    -0.125 NA 
BRANCH  19  20
HETATM   20  C   UNL     1      -9.450   3.104  64.238  1.00  0.00    -0.142 C  
HETATM   21  C   UNL     1     -10.759   3.447  63.539  1.00  0.00    -0.252 C  
ENDBRANCH  19  20
BRANCH  19  22
HETATM   22  C   UNL     1      -7.880   5.001  64.003  1.00  0.00    -0.095 C  
HETATM   23  C   UNL     1      -7.876   6.518  64.169  1.00  0.00    -0.111 C  
ENDBRANCH  19  22
ENDBRANCH  18  19
ENDBRANCH  17  18
ENDBRANCH  16  17
ENDBRANCH  14  16
ENDBRANCH  13  14
ENDBRANCH   4   5
ENDBRANCH   3   4
ENDBRANCH   2   3
TORSDOF 10
ENDMDL
MODEL      301
REMARK 921   NORMALIZED FREE ENERGY PREDICTED BY IDOCK:   -1.88 KCAL/MOL
REMARK 922        TOTAL FREE ENERGY PREDICTED BY IDOCK:   -4.04 KCAL/MOL
REMARK 923 INTER-LIGAND FREE ENERGY PREDICTED BY IDOCK:   -3.75 KCAL/MOL
REMARK 924 INTRA-LIGAND FREE ENERGY PREDICTED BY IDOCK:   -0.28 KCAL/MOL
REMARK 927      BINDING AFFINITY PREDICTED BY RF-SCORE:    0.00 PKD
ROOT
HETATM    1  C   UNL     1      -9.249   3.221  67.253  1.00  0.00    -0.221 C  
HETATM    2  C   UNL     1      -9.873   4.582  66.976  1.00  0.00    -0.232 C  
ENDROOT
BRANCH   2   3
HETATM    3  C   UNL     1     -10.742   5.024  68.148  1.00  0.00     0.310 C  
BRANCH   3   4
HETATM    4  O   UNL     1     -10.354   6.334  68.566  1.00  0.00    -0.165 OA 
BRANCH   4   5
HETATM    5  C   UNL     1     -10.786   6.743  69.804  1.00  0.00    -0.272 A  
HETATM    6  C   UNL     1     -10.995   5.860  70.876  1.00  0.00    -0.335 A  
HETATM    7  C   UNL     1     -11.474   6.298  72.115  1.00  0.00    -0.307 A  
HETATM    8  C   UNL     1     -11.622   7.664  72.329  1.00  0.00    -0.370 A  
HETATM    9  N   UNL     1     -11.583   5.398  73.180  1.00  0.00    -0.531 NA 
HETATM   10  H1  UNL     1     -11.932   5.718  74.084  1.00  0.00     0.000 HD 
HETATM   11  C   UNL     1     -11.414   8.565  71.288  1.00  0.00    -0.329 A  
HETATM   12  H2  UNL     1     -10.675   4.957  73.323  1.00  0.00     0.000 HD 
HETATM   13  C   UNL     1     -11.019   8.114  70.018  1.00  0.00    -0.199 A  
BRANCH  13  14
HETATM   14  C   UNL     1     -10.974   9.161  68.961  1.00  0.00    -0.008 C  
HETATM   15  O   UNL     1     -11.533  10.244  69.067  1.00  0.00    -0.217 OA 
BRANCH  14  16
HETATM   16  O   UNL     1     -10.479   8.632  67.818  1.00  0.00    -0.235 OA 
BRANCH  16  17
HETATM   17  C   UNL     1      -9.334   9.308  67.276  1.00  0.00    -0.131 C  
BRANCH  17  18
HETATM   18  C   UNL     1      -8.684   8.318  66.293  1.00  0.00    -0.151 C  
BRANCH  18  19
HETATM   19  N   UNL     1      -7.399   7.703  66.689  1.00  0.00    -0.086 NA 
BRANCH  19  20
HETATM   20  C   UNL     1      -7.194   6.485  65.885  1.00  0.00    -0.074 C  
HETATM   21  C   UNL     1      -6.029   6.565  64.907  1.00  0.00    -0.034 C  
ENDBRANCH  19  20
BRANCH  19  22
HETATM   22  C   UNL     1      -7.276   7.504  68.137  1.00  0.00    -0.090 C  
HETATM   23  C   UNL     1      -6.960   6.084  68.601  1.00  0.00    -0.076 C  
ENDBRANCH  19  22
ENDBRANCH  18  19
ENDBRANCH  17  18
ENDBRANCH  16  17
ENDBRANCH  14  16
ENDBRANCH  13  14
ENDBRANCH   4   5
ENDBRANCH   3   4
ENDBRANCH   2   3
TORSDOF 10
ENDMDL
MODEL      302
REMARK 921   NORMALIZED FREE ENERGY PREDICTED BY IDOCK:   -1.80 KCAL/MOL
REMARK 922        TOTAL FREE ENERGY PREDICTED BY IDOCK:   -3.91 KCAL/MOL
REMARK 923 INTER-LIGAND FREE ENERGY PREDICTED BY IDOCK:   -2.54 KCAL/MOL
REMARK 924 INTRA-LIGAND FREE ENERGY PREDICTED BY IDOCK:   -1.37 KCAL/MOL
REMARK 927      BINDING AFFINITY PREDICTED BY RF-SCORE:    0.00 PKD
ROOT
HETATM    1  C   UNL     1     -10.005   8.766  65.984  1.00  0.00    -0.153 C  
HETATM    2  C   UNL     1     -10.098   8.304  67.432  1.00  0.00    -0.298 C  
ENDROOT
BRANCH   2   3
HETATM    3  C   UNL     1      -9.548   6.891  67.582  1.00  0.00    -0.126 C  
BRANCH   3   4
HETATM    4  O   UNL     1      -8.515   6.880  68.570  1.00  0.00    -0.123 OA 
BRANCH   4   5
HETATM    5  C   UNL     1      -8.914   6.923  69.884  1.00  0.00    -0.142 A  
HETATM    6  C   UNL     1      -9.881   6.058  70.423  1.00  0.00    -0.222 A  
HETATM    7  C   UNL     1     -10.297   6.151  71.756  1.00  0.00    -0.210 A  
HETATM    8  C   UNL     1      -9.639   7.037  72.602  1.00  0.00    -0.165 A  
HETATM    9  N   UNL     1     -11.197   5.213  72.273  1.00  0.00    -0.117 NA 
HETATM   10  H1  UNL     1     -11.500   5.280  73.245  1.00  0.00     0.000 HD 
HETATM   11  C   UNL     1      -8.670   7.901  72.098  1.00  0.00    -0.189 A  
HETATM   12  H2  UNL     1     -10.815   4.280  72.118  1.00  0.00     0.000 HD 
HETATM   13  C   UNL     1      -8.318   7.868  70.739  1.00  0.00    -0.115 A  
BRANCH  13  14
HETATM   14  C   UNL     1      -7.379   8.938  70.303  1.00  0.00    -0.067 C  
HETATM   15  O   UNL     1      -6.163   8.839  70.392  1.00  0.00    -0.036 OA 
BRANCH  14  16
HETATM   16  O   UNL     1      -8.067  10.081  70.075  1.00  0.00    -0.180 OA 
BRANCH  16  17
HETATM   17  C   UNL     1      -7.834  10.690  68.796  1.00  0.00    -0.125 C  
BRANCH  17  18
HETATM   18  C   UNL     1      -8.886  11.805  68.660  1.00  0.00    -0.060 C  
BRANCH  18  19
HETATM   19  N   UNL     1     -10.296  11.399  68.486  1.00  0.00    -0.199 NA 
BRANCH  19  20
HETATM   20  C   UNL     1     -10.862  12.140  67.344  1.00  0.00    -0.245 C  
HETATM   21  C   UNL     1     -12.382  12.107  67.262  1.00  0.00     0.715 C  
ENDBRANCH  19  20
BRANCH  19  22
HETATM   22  C   UNL     1     -11.082  11.495  69.722  1.00  0.00    -0.084 C  
HETATM   23  C   UNL     1     -11.480  10.175  70.376  1.00  0.00    -0.400 C  
ENDBRANCH  19  22
ENDBRANCH  18  19
ENDBRANCH  17  18
ENDBRANCH  16  17
ENDBRANCH  14  16
ENDBRANCH  13  14
ENDBRANCH   4   5
ENDBRANCH   3   4
ENDBRANCH   2   3
TORSDOF 10
ENDMDL
MODEL      303
REMARK 921   NORMALIZED FREE ENERGY PREDICTED BY IDOCK:   -1.76 KCAL/MOL
REMARK 922        TOTAL FREE ENERGY PREDICTED BY IDOCK:   -3.84 KCAL/MOL
REMARK 923 INTER-LIGAND FREE ENERGY PREDICTED BY IDOCK:   -3.61 KCAL/MOL
REMARK 924 INTRA-LIGAND FREE ENERGY PREDICTED BY IDOCK:   -0.23 KCAL/MOL
REMARK 927      BINDING AFFINITY PREDICTED BY RF-SCORE:    0.00 PKD
ROOT
HETATM    1  C   UNL     1      -8.946   4.389  68.358  1.00  0.00    -0.149 C  
HETATM    2  C   UNL     1      -7.606   4.263  67.646  1.00  0.00    -0.073 C  
ENDROOT
BRANCH   2   3
HETATM    3  C   UNL     1      -6.916   5.618  67.556  1.00  0.00    -0.066 C  
BRANCH   3   4
HETATM    4  O   UNL     1      -7.878   6.630  67.252  1.00  0.00    -0.109 OA 
BRANCH   4   5
HETATM    5  C   UNL     1      -7.924   7.070  65.951  1.00  0.00    -0.113 A  
HETATM    6  C   UNL     1      -7.855   6.208  64.844  1.00  0.00    -0.108 A  
HETATM    7  C   UNL     1      -7.863   6.687  63.530  1.00  0.00    -0.109 A  
HETATM    8  C   UNL     1      -8.079   8.044  63.314  1.00  0.00    -0.107 A  
HETATM    9  N   UNL     1      -7.881   5.789  62.458  1.00  0.00    -0.080 NA 
HETATM   10  H1  UNL     1      -7.888   6.138  61.500  1.00  0.00     0.000 HD 
HETATM   11  C   UNL     1      -8.160   8.922  64.392  1.00  0.00    -0.153 A  
HETATM   12  H2  UNL     1      -8.675   5.161  62.578  1.00  0.00     0.000 HD 
HETATM   13  C   UNL     1      -8.062   8.449  65.711  1.00  0.00    -0.117 A  
BRANCH  13  14
HETATM   14  C   UNL     1      -8.018   9.505  66.759  1.00  0.00    -0.109 C  
HETATM   15  O   UNL     1      -7.004  10.128  67.042  1.00  0.00    -0.085 OA 
BRANCH  14  16
HETATM   16  O   UNL     1      -9.152   9.460  67.497  1.00  0.00    -0.124 OA 
BRANCH  16  17
HETATM   17  C   UNL     1     -10.195  10.351  67.072  1.00  0.00    -0.225 C  
BRANCH  17  18
HETATM   18  C   UNL     1      -9.532  11.730  66.905  1.00  0.00    -0.193 C  
BRANCH  18  19
HETATM   19  N   UNL     1     -10.416  12.896  66.703  1.00  0.00    -0.260 NA 
BRANCH  19  20
HETATM   20  C   UNL     1     -10.467  13.671  67.956  1.00  0.00    -0.248 C  
HETATM   21  C   UNL     1     -11.085  12.926  69.132  1.00  0.00    -0.245 C  
ENDBRANCH  19  20
BRANCH  19  22
HETATM   22  C   UNL     1     -11.730  12.537  66.157  1.00  0.00    -0.409 C  
HETATM   23  C   UNL     1     -12.413  13.590  65.288  1.00  0.00    -0.525 C  
ENDBRANCH  19  22
ENDBRANCH  18  19
ENDBRANCH  17  18
ENDBRANCH  16  17
ENDBRANCH  14  16
ENDBRANCH  13  14
ENDBRANCH   4   5
ENDBRANCH   3   4
ENDBRANCH   2   3
TORSDOF 10
ENDMDL
MODEL      304
REMARK 921   NORMALIZED FREE ENERGY PREDICTED BY IDOCK:   -1.73 KCAL/MOL
REMARK 922        TOTAL FREE ENERGY PREDICTED BY IDOCK:   -3.79 KCAL/MOL
REMARK 923 INTER-LIGAND FREE ENERGY PREDICTED BY IDOCK:   -3.18 KCAL/MOL
REMARK 924 INTRA-LIGAND FREE ENERGY PREDICTED BY IDOCK:   -0.61 KCAL/MOL
REMARK 927      BINDING AFFINITY PREDICTED BY RF-SCORE:    0.00 PKD
ROOT
HETATM    1  C   UNL     1      -5.262  11.005  68.598  1.00  0.00    -0.040 C  
HETATM    2  C   UNL     1      -6.543  10.218  68.362  1.00  0.00    -0.056 C  
ENDROOT
BRANCH   2   3
HETATM    3  C   UNL     1      -6.823  10.079  66.871  1.00  0.00    -0.087 C  
BRANCH   3   4
HETATM    4  O   UNL     1      -7.256  11.335  66.344  1.00  0.00    -0.126 OA 
BRANCH   4   5
HETATM    5  C   UNL     1      -8.482  11.792  66.761  1.00  0.00    -0.177 A  
HETATM    6  C   UNL     1      -8.640  12.848  67.674  1.00  0.00    -0.182 A  
HETATM    7  C   UNL     1      -9.901  13.267  68.113  1.00  0.00    -0.231 A  
HETATM    8  C   UNL     1     -11.032  12.709  67.526  1.00  0.00    -0.280 A  
HETATM    9  N   UNL     1     -10.015  14.379  68.953  1.00  0.00    -0.316 NA 
HETATM   10  H1  UNL     1     -10.934  14.685  69.272  1.00  0.00     0.000 HD 
HETATM   11  C   UNL     1     -10.907  11.666  66.612  1.00  0.00    -0.327 A  
HETATM   12  H2  UNL     1      -9.549  15.169  68.508  1.00  0.00     0.000 HD 
HETATM   13  C   UNL     1      -9.640  11.187  66.240  1.00  0.00    -0.234 A  
BRANCH  13  14
HETATM   14  C   UNL     1      -9.652   9.979  65.370  1.00  0.00    -0.279 C  
HETATM   15  O   UNL     1      -9.468  10.022  64.162  1.00  0.00    -0.277 OA 
BRANCH  14  16
HETATM   16  O   UNL     1     -10.155   8.928  66.059  1.00  0.00    -0.260 OA 
BRANCH  16  17
HETATM   17  C   UNL     1      -9.458   7.686  65.877  1.00  0.00     0.134 C  
BRANCH  17  18
HETATM   18  C   UNL     1     -10.154   6.670  66.799  1.00  0.00    -0.175 C  
BRANCH  18  19
HETATM   19  N   UNL     1      -9.533   6.397  68.112  1.00  0.00    -0.115 NA 
BRANCH  19  20
HETATM   20  C   UNL     1      -9.149   4.975  68.164  1.00  0.00    -0.115 C  
HETATM   21  C   UNL     1     -10.193   4.020  67.602  1.00  0.00     0.359 C  
ENDBRANCH  19  20
BRANCH  19  22
HETATM   22  C   UNL     1     -10.352   6.848  69.243  1.00  0.00    -0.198 C  
HETATM   23  C   UNL     1      -9.817   6.529  70.636  1.00  0.00    -0.201 C  
ENDBRANCH  19  22
ENDBRANCH  18  19
ENDBRANCH  17  18
ENDBRANCH  16  17
ENDBRANCH  14  16
ENDBRANCH  13  14
ENDBRANCH   4   5
ENDBRANCH   3   4
ENDBRANCH   2   3
TORSDOF 10
ENDMDL
MODEL      305
REMARK 921   NORMALIZED FREE ENERGY PREDICTED BY IDOCK:   -1.67 KCAL/MOL
REMARK 922        TOTAL FREE ENERGY PREDICTED BY IDOCK:   -3.70 KCAL/MOL
REMARK 923 INTER-LIGAND FREE ENERGY PREDICTED BY IDOCK:   -3.95 KCAL/MOL
REMARK 924 INTRA-LIGAND FREE ENERGY PREDICTED BY IDOCK:    0.25 KCAL/MOL
REMARK 927      BINDING AFFINITY PREDICTED BY RF-SCORE:    0.00 PKD
ROOT
HETATM    1  C   UNL     1     -10.588  18.494  66.909  1.00  0.00    -0.406 C  
HETATM    2  C   UNL     1     -10.785  17.752  68.224  1.00  0.00    -0.255 C  
ENDROOT
BRANCH   2   3
HETATM    3  C   UNL     1      -9.466  17.172  68.718  1.00  0.00    -0.263 C  
BRANCH   3   4
HETATM    4  O   UNL     1      -9.628  15.780  68.999  1.00  0.00    -0.211 OA 
BRANCH   4   5
HETATM    5  C   UNL     1      -9.911  14.962  67.933  1.00  0.00    -0.219 A  
HETATM    6  C   UNL     1     -11.058  14.153  67.867  1.00  0.00    -0.285 A  
HETATM    7  C   UNL     1     -11.303  13.299  66.787  1.00  0.00    -0.327 A  
HETATM    8  C   UNL     1     -10.452  13.352  65.687  1.00  0.00    -0.293 A  
HETATM    9  N   UNL     1     -12.500  12.579  66.722  1.00  0.00    -0.157 NA 
HETATM   10  H1  UNL     1     -12.678  11.956  65.934  1.00  0.00     0.000 HD 
HETATM   11  C   UNL     1      -9.312  14.151  65.720  1.00  0.00     0.057 A  
HETATM   12  H2  UNL     1     -13.276  13.235  66.796  1.00  0.00     0.000 HD 
HETATM   13  C   UNL     1      -9.021  14.941  66.844  1.00  0.00    -0.277 A  
BRANCH  13  14
HETATM   14  C   UNL     1      -7.703  15.631  66.807  1.00  0.00    -0.134 C  
HETATM   15  O   UNL     1      -7.562  16.786  66.429  1.00  0.00    -0.270 OA 
BRANCH  14  16
HETATM   16  O   UNL     1      -6.711  14.726  66.980  1.00  0.00    -0.156 OA 
BRANCH  16  17
HETATM   17  C   UNL     1      -6.960  13.730  67.983  1.00  0.00    -0.137 C  
BRANCH  17  18
HETATM   18  C   UNL     1      -6.799  12.371  67.279  1.00  0.00    -0.127 C  
BRANCH  18  19
HETATM   19  N   UNL     1      -6.865  11.154  68.115  1.00  0.00    -0.066 NA 
BRANCH  19  20
HETATM   20  C   UNL     1      -8.161  11.134  68.816  1.00  0.00    -0.135 C  
HETATM   21  C   UNL     1      -9.062   9.966  68.440  1.00  0.00    -0.123 C  
ENDBRANCH  19  20
BRANCH  19  22
HETATM   22  C   UNL     1      -5.698  10.991  68.991  1.00  0.00    -0.040 C  
HETATM   23  C   UNL     1      -5.982  10.898  70.487  1.00  0.00    -0.121 C  
ENDBRANCH  19  22
ENDBRANCH  18  19
ENDBRANCH  17  18
ENDBRANCH  16  17
ENDBRANCH  14  16
ENDBRANCH  13  14
ENDBRANCH   4   5
ENDBRANCH   3   4
ENDBRANCH   2   3
TORSDOF 10
ENDMDL
MODEL      306
REMARK 921   NORMALIZED FREE ENERGY PREDICTED BY IDOCK:   -1.54 KCAL/MOL
REMARK 922        TOTAL FREE ENERGY PREDICTED BY IDOCK:   -3.50 KCAL/MOL
REMARK 923 INTER-LIGAND FREE ENERGY PREDICTED BY IDOCK:   -3.28 KCAL/MOL
REMARK 924 INTRA-LIGAND FREE ENERGY PREDICTED BY IDOCK:   -0.21 KCAL/MOL
REMARK 927      BINDING AFFINITY PREDICTED BY RF-SCORE:    0.00 PKD
ROOT
HETATM    1  C   UNL     1      -9.008   4.369  68.374  1.00  0.00    -0.149 C  
HETATM    2  C   UNL     1      -7.698   4.558  67.623  1.00  0.00    -0.085 C  
ENDROOT
BRANCH   2   3
HETATM    3  C   UNL     1      -7.155   5.966  67.834  1.00  0.00    -0.071 C  
BRANCH   3   4
HETATM    4  O   UNL     1      -8.241   6.884  67.979  1.00  0.00    -0.114 OA 
BRANCH   4   5
HETATM    5  C   UNL     1      -8.455   7.758  66.941  1.00  0.00    -0.125 A  
HETATM    6  C   UNL     1      -8.380   7.382  65.590  1.00  0.00    -0.143 A  
HETATM    7  C   UNL     1      -8.563   8.302  64.552  1.00  0.00     0.060 A  
HETATM    8  C   UNL     1      -8.962   9.596  64.870  1.00  0.00    -0.260 A  
HETATM    9  N   UNL     1      -8.567   7.866  63.223  1.00  0.00    -0.376 NA 
HETATM   10  H1  UNL     1      -8.701   8.538  62.467  1.00  0.00     0.000 HD 
HETATM   11  C   UNL     1      -9.054   9.996  66.201  1.00  0.00    -0.188 A  
HETATM   12  H2  UNL     1      -9.264   7.129  63.128  1.00  0.00     0.000 HD 
HETATM   13  C   UNL     1      -8.781   9.093  67.241  1.00  0.00    -0.122 A  
BRANCH  13  14
HETATM   14  C   UNL     1      -8.775   9.686  68.607  1.00  0.00    -0.124 C  
HETATM   15  O   UNL     1      -7.779  10.181  69.117  1.00  0.00    -0.091 OA 
BRANCH  14  16
HETATM   16  O   UNL     1      -9.913   9.346  69.255  1.00  0.00    -0.168 OA 
BRANCH  16  17
HETATM   17  C   UNL     1      -9.764   9.087  70.659  1.00  0.00    -0.234 C  
BRANCH  17  18
HETATM   18  C   UNL     1      -8.660   8.022  70.779  1.00  0.00    -0.129 C  
BRANCH  18  19
HETATM   19  N   UNL     1      -8.500   7.343  72.081  1.00  0.00    -0.108 NA 
BRANCH  19  20
HETATM   20  C   UNL     1      -9.005   5.964  71.958  1.00  0.00    -0.137 C  
HETATM   21  C   UNL     1     -10.504   5.862  71.708  1.00  0.00    -0.276 C  
ENDBRANCH  19  20
BRANCH  19  22
HETATM   22  C   UNL     1      -9.070   8.101  73.202  1.00  0.00    -0.265 C  
HETATM   23  C   UNL     1      -8.417   7.889  74.565  1.00  0.00    -0.178 C  
ENDBRANCH  19  22
ENDBRANCH  18  19
ENDBRANCH  17  18
ENDBRANCH  16  17
ENDBRANCH  14  16
ENDBRANCH  13  14
ENDBRANCH   4   5
ENDBRANCH   3   4
ENDBRANCH   2   3
TORSDOF 10
ENDMDL
MODEL      307
REMARK 921   NORMALIZED FREE ENERGY PREDICTED BY IDOCK:   -0.96 KCAL/MOL
REMARK 922        TOTAL FREE ENERGY PREDICTED BY IDOCK:   -2.58 KCAL/MOL
REMARK 923 INTER-LIGAND FREE ENERGY PREDICTED BY IDOCK:   -1.93 KCAL/MOL
REMARK 924 INTRA-LIGAND FREE ENERGY PREDICTED BY IDOCK:   -0.65 KCAL/MOL
REMARK 927      BINDING AFFINITY PREDICTED BY RF-SCORE:    0.00 PKD
ROOT
HETATM    1  C   UNL     1      -6.416   2.872  70.924  1.00  0.00    -0.023 C  
HETATM    2  C   UNL     1      -7.017   2.482  69.581  1.00  0.00    -0.033 C  
ENDROOT
BRANCH   2   3
HETATM    3  C   UNL     1      -7.791   3.647  68.979  1.00  0.00    -0.051 C  
BRANCH   3   4
HETATM    4  O   UNL     1      -7.449   4.856  69.660  1.00  0.00    -0.055 OA 
BRANCH   4   5
HETATM    5  C   UNL     1      -8.469   5.746  69.892  1.00  0.00    -0.123 A  
HETATM    6  C   UNL     1      -9.395   5.601  70.938  1.00  0.00    -0.190 A  
HETATM    7  C   UNL     1     -10.449   6.501  71.127  1.00  0.00    -0.220 A  
HETATM    8  C   UNL     1     -10.500   7.645  70.336  1.00  0.00    -0.221 A  
HETATM    9  N   UNL     1     -11.294   6.367  72.233  1.00  0.00    -0.277 NA 
HETATM   10  H1  UNL     1     -12.062   7.024  72.371  1.00  0.00     0.000 HD 
HETATM   11  C   UNL     1      -9.591   7.821  69.296  1.00  0.00    -0.159 A  
HETATM   12  H2  UNL     1     -10.722   6.359  73.077  1.00  0.00     0.000 HD 
HETATM   13  C   UNL     1      -8.588   6.868  69.052  1.00  0.00    -0.128 A  
BRANCH  13  14
HETATM   14  C   UNL     1      -7.777   7.105  67.826  1.00  0.00    -0.112 C  
HETATM   15  O   UNL     1      -6.979   8.026  67.718  1.00  0.00    -0.074 OA 
BRANCH  14  16
HETATM   16  O   UNL     1      -8.255   6.347  66.812  1.00  0.00    -0.108 OA 
BRANCH  16  17
HETATM   17  C   UNL     1      -7.530   6.449  65.577  1.00  0.00    -0.083 C  
BRANCH  17  18
HETATM   18  C   UNL     1      -8.498   5.979  64.477  1.00  0.00     0.025 C  
BRANCH  18  19
HETATM   19  N   UNL     1      -8.546   4.533  64.177  1.00  0.00    -0.127 NA 
BRANCH  19  20
HETATM   20  C   UNL     1      -9.355   3.865  65.212  1.00  0.00    -0.159 C  
HETATM   21  C   UNL     1     -10.367   2.864  64.671  1.00  0.00     0.280 C  
ENDBRANCH  19  20
BRANCH  19  22
HETATM   22  C   UNL     1      -7.219   3.942  63.968  1.00  0.00    -0.051 C  
HETATM   23  C   UNL     1      -6.594   3.237  65.168  1.00  0.00    -0.040 C  
ENDBRANCH  19  22
ENDBRANCH  18  19
ENDBRANCH  17  18
ENDBRANCH  16  17
ENDBRANCH  14  16
ENDBRANCH  13  14
ENDBRANCH   4   5
ENDBRANCH   3   4
ENDBRANCH   2   3
TORSDOF 10
ENDMDL
MODEL      308
REMARK 921   NORMALIZED FREE ENERGY PREDICTED BY IDOCK:   -0.89 KCAL/MOL
REMARK 922        TOTAL FREE ENERGY PREDICTED BY IDOCK:   -2.46 KCAL/MOL
REMARK 923 INTER-LIGAND FREE ENERGY PREDICTED BY IDOCK:   -2.12 KCAL/MOL
REMARK 924 INTRA-LIGAND FREE ENERGY PREDICTED BY IDOCK:   -0.34 KCAL/MOL
REMARK 927      BINDING AFFINITY PREDICTED BY RF-SCORE:    0.00 PKD
ROOT
HETATM    1  C   UNL     1     -11.154   8.061  67.590  1.00  0.00     0.266 C  
HETATM    2  C   UNL     1     -10.162   7.652  68.670  1.00  0.00    -0.214 C  
ENDROOT
BRANCH   2   3
HETATM    3  C   UNL     1      -9.954   6.143  68.666  1.00  0.00    -0.148 C  
BRANCH   3   4
HETATM    4  O   UNL     1      -9.000   5.786  69.669  1.00  0.00    -0.126 OA 
BRANCH   4   5
HETATM    5  C   UNL     1      -9.450   5.748  70.966  1.00  0.00    -0.165 A  
HETATM    6  C   UNL     1     -10.790   5.503  71.309  1.00  0.00    -0.250 A  
HETATM    7  C   UNL     1     -11.229   5.509  72.637  1.00  0.00    -0.295 A  
HETATM    8  C   UNL     1     -10.286   5.630  73.652  1.00  0.00    -0.260 A  
HETATM    9  N   UNL     1     -12.553   5.173  72.937  1.00  0.00    -0.155 NA 
HETATM   10  H1  UNL     1     -12.873   5.177  73.905  1.00  0.00     0.000 HD 
HETATM   11  C   UNL     1      -8.949   5.866  73.343  1.00  0.00    -0.129 A  
HETATM   12  H2  UNL     1     -12.752   4.257  72.536  1.00  0.00     0.000 HD 
HETATM   13  C   UNL     1      -8.525   5.949  72.007  1.00  0.00    -0.125 A  
BRANCH  13  14
HETATM   14  C   UNL     1      -7.103   6.347  71.818  1.00  0.00    -0.085 C  
HETATM   15  O   UNL     1      -6.230   6.125  72.645  1.00  0.00    -0.051 OA 
BRANCH  14  16
HETATM   16  O   UNL     1      -7.005   7.199  70.770  1.00  0.00    -0.059 OA 
BRANCH  16  17
HETATM   17  C   UNL     1      -5.843   7.022  69.946  1.00  0.00    -0.023 C  
BRANCH  17  18
HETATM   18  C   UNL     1      -5.652   8.351  69.194  1.00  0.00    -0.035 C  
BRANCH  18  19
HETATM   19  N   UNL     1      -6.305   8.494  67.876  1.00  0.00    -0.056 NA 
BRANCH  19  20
HETATM   20  C   UNL     1      -5.329   8.145  66.827  1.00  0.00    -0.032 C  
HETATM   21  C   UNL     1      -5.886   8.188  65.411  1.00  0.00    -0.044 C  
ENDBRANCH  19  20
BRANCH  19  22
HETATM   22  C   UNL     1      -6.957   9.796  67.692  1.00  0.00    -0.086 C  
HETATM   23  C   UNL     1      -6.073  11.027  67.872  1.00  0.00    -0.049 C  
ENDBRANCH  19  22
ENDBRANCH  18  19
ENDBRANCH  17  18
ENDBRANCH  16  17
ENDBRANCH  14  16
ENDBRANCH  13  14
ENDBRANCH   4   5
ENDBRANCH   3   4
ENDBRANCH   2   3
TORSDOF 10
ENDMDL
MODEL      309
REMARK 921   NORMALIZED FREE ENERGY PREDICTED BY IDOCK:    0.07 KCAL/MOL
REMARK 922        TOTAL FREE ENERGY PREDICTED BY IDOCK:   -0.95 KCAL/MOL
REMARK 923 INTER-LIGAND FREE ENERGY PREDICTED BY IDOCK:   -1.80 KCAL/MOL
REMARK 924 INTRA-LIGAND FREE ENERGY PREDICTED BY IDOCK:    0.85 KCAL/MOL
REMARK 927      BINDING AFFINITY PREDICTED BY RF-SCORE:    0.00 PKD
ROOT
HETATM    1  C   UNL     1      -6.789   2.780  71.580  1.00  0.00    -0.031 C  
HETATM    2  C   UNL     1      -7.074   1.965  70.326  1.00  0.00    -0.033 C  
ENDROOT
BRANCH   2   3
HETATM    3  C   UNL     1      -8.249   2.555  69.556  1.00  0.00    -0.044 C  
BRANCH   3   4
HETATM    4  O   UNL     1      -8.074   3.967  69.420  1.00  0.00    -0.056 OA 
BRANCH   4   5
HETATM    5  C   UNL     1      -9.215   4.725  69.314  1.00  0.00    -0.118 A  
HETATM    6  C   UNL     1      -9.742   5.475  70.379  1.00  0.00    -0.242 A  
HETATM    7  C   UNL     1     -10.928   6.207  70.255  1.00  0.00    -0.349 A  
HETATM    8  C   UNL     1     -11.529   6.299  69.004  1.00  0.00    -0.164 A  
HETATM    9  N   UNL     1     -11.368   7.009  71.312  1.00  0.00    -0.263 NA 
HETATM   10  H1  UNL     1     -12.233   7.543  71.221  1.00  0.00     0.000 HD 
HETATM   11  C   UNL     1     -11.025   5.573  67.927  1.00  0.00     0.119 A  
HETATM   12  H2  UNL     1     -10.618   7.652  71.563  1.00  0.00     0.000 HD 
HETATM   13  C   UNL     1      -9.884   4.767  68.078  1.00  0.00    -0.185 A  
BRANCH  13  14
HETATM   14  C   UNL     1      -9.538   3.935  66.893  1.00  0.00    -0.200 C  
HETATM   15  O   UNL     1      -8.782   2.975  66.946  1.00  0.00    -0.110 OA 
BRANCH  14  16
HETATM   16  O   UNL     1      -9.950   4.558  65.764  1.00  0.00    -0.200 OA 
BRANCH  16  17
HETATM   17  C   UNL     1      -8.901   5.075  64.932  1.00  0.00    -0.140 C  
BRANCH  17  18
HETATM   18  C   UNL     1      -8.009   5.926  65.853  1.00  0.00    -0.109 C  
BRANCH  18  19
HETATM   19  N   UNL     1      -7.433   7.167  65.295  1.00  0.00    -0.087 NA 
BRANCH  19  20
HETATM   20  C   UNL     1      -8.119   7.475  64.027  1.00  0.00    -0.041 C  
HETATM   21  C   UNL     1      -9.114   8.624  64.113  1.00  0.00     0.523 C  
ENDBRANCH  19  20
BRANCH  19  22
HETATM   22  C   UNL     1      -5.968   7.132  65.201  1.00  0.00    -0.037 C  
HETATM   23  C   UNL     1      -5.246   8.463  65.387  1.00  0.00    -0.035 C  
ENDBRANCH  19  22
ENDBRANCH  18  19
ENDBRANCH  17  18
ENDBRANCH  16  17
ENDBRANCH  14  16
ENDBRANCH  13  14
ENDBRANCH   4   5
ENDBRANCH   3   4
ENDBRANCH   2   3
TORSDOF 10
ENDMDL
MODEL      310
REMARK 921   NORMALIZED FREE ENERGY PREDICTED BY IDOCK:    1.65 KCAL/MOL
REMARK 922        TOTAL FREE ENERGY PREDICTED BY IDOCK:    1.55 KCAL/MOL
REMARK 923 INTER-LIGAND FREE ENERGY PREDICTED BY IDOCK:    1.72 KCAL/MOL
REMARK 924 INTRA-LIGAND FREE ENERGY PREDICTED BY IDOCK:   -0.17 KCAL/MOL
REMARK 927      BINDING AFFINITY PREDICTED BY RF-SCORE:    0.00 PKD
ROOT
HETATM    1  C   UNL     1     -11.087   7.207  66.568  1.00  0.00     0.679 C  
HETATM    2  C   UNL     1      -9.974   6.679  67.462  1.00  0.00    -0.171 C  
ENDROOT
BRANCH   2   3
HETATM    3  C   UNL     1      -9.683   5.216  67.152  1.00  0.00    -0.157 C  
BRANCH   3   4
HETATM    4  O   UNL     1      -8.522   4.794  67.871  1.00  0.00    -0.103 OA 
BRANCH   4   5
HETATM    5  C   UNL     1      -8.702   4.447  69.189  1.00  0.00    -0.085 A  
HETATM    6  C   UNL     1      -9.959   4.151  69.742  1.00  0.00    -0.100 A  
HETATM    7  C   UNL     1     -10.118   3.840  71.097  1.00  0.00     0.044 A  
HETATM    8  C   UNL     1      -8.982   3.691  71.886  1.00  0.00    -0.149 A  
HETATM    9  N   UNL     1     -11.374   3.467  71.585  1.00  0.00     2.200 NA 
HETATM   10  H1  UNL     1     -11.490   3.239  72.573  1.00  0.00     0.000 HD 
HETATM   11  C   UNL     1      -7.722   3.969  71.363  1.00  0.00    -0.064 A  
HETATM   12  H2  UNL     1     -11.714   2.681  71.031  1.00  0.00     0.000 HD 
HETATM   13  C   UNL     1      -7.573   4.369  70.025  1.00  0.00    -0.050 A  
BRANCH  13  14
HETATM   14  C   UNL     1      -6.195   4.774  69.636  1.00  0.00    -0.026 C  
HETATM   15  O   UNL     1      -5.193   4.398  70.230  1.00  0.00     0.000 OA 
BRANCH  14  16
HETATM   16  O   UNL     1      -6.254   5.793  68.748  1.00  0.00    -0.026 OA 
BRANCH  16  17
HETATM   17  C   UNL     1      -5.329   5.706  67.653  1.00  0.00    -0.005 C  
BRANCH  17  18
HETATM   18  C   UNL     1      -5.167   7.141  67.120  1.00  0.00    -0.013 C  
BRANCH  18  19
HETATM   19  N   UNL     1      -6.094   7.586  66.059  1.00  0.00    -0.037 NA 
BRANCH  19  20
HETATM   20  C   UNL     1      -5.432   7.412  64.753  1.00  0.00    -0.033 C  
HETATM   21  C   UNL     1      -6.301   7.769  63.554  1.00  0.00    -0.062 C  
ENDBRANCH  19  20
BRANCH  19  22
HETATM   22  C   UNL     1      -6.637   8.929  66.291  1.00  0.00    -0.066 C  
HETATM   23  C   UNL     1      -6.040   9.708  67.460  1.00  0.00    -0.052 C  
ENDBRANCH  19  22
ENDBRANCH  18  19
ENDBRANCH  17  18
ENDBRANCH  16  17
ENDBRANCH  14  16
ENDBRANCH  13  14
ENDBRANCH   4   5
ENDBRANCH   3   4
ENDBRANCH   2   3
TORSDOF 10
ENDMDL
