MODEL        1
REMARK 921   NORMALIZED FREE ENERGY PREDICTED BY IDOCK:   -6.90 KCAL/MOL
REMARK 922        TOTAL FREE ENERGY PREDICTED BY IDOCK:   -9.82 KCAL/MOL
REMARK 923 INTER-LIGAND FREE ENERGY PREDICTED BY IDOCK:   -8.52 KCAL/MOL
REMARK 924 INTRA-LIGAND FREE ENERGY PREDICTED BY IDOCK:   -1.30 KCAL/MOL
REMARK 927      BINDING AFFINITY PREDICTED BY RF-SCORE:    0.00 PKD
ROOT
HETATM    1  C   UNL     1     -12.359  12.545  64.788  1.00  0.00    -0.544 C  
HETATM    2  C   UNL     1     -12.418  13.994  65.259  1.00  0.00    -0.495 C  
ENDROOT
BRANCH   2   3
HETATM    3  C   UNL     1     -12.521  14.042  66.779  1.00  0.00    -0.201 C  
BRANCH   3   4
HETATM    4  O   UNL     1     -11.421  14.750  67.348  1.00  0.00    -0.342 OA 
HETATM    5  C   UNL     1     -10.795  14.131  68.523  1.00  0.00    -0.252 C  
HETATM    6  C   UNL     1     -10.271  12.715  68.094  1.00  0.00    -0.240 A  
HETATM    7  C   UNL     1      -9.601  15.100  68.976  1.00  0.00    -0.229 C  
HETATM    8  C   UNL     1     -11.795  14.145  69.733  1.00  0.00    -0.381 A  
HETATM    9  C   UNL     1      -8.970  12.505  67.609  1.00  0.00    -0.185 A  
HETATM   10  C   UNL     1     -10.680  10.301  67.773  1.00  0.00    -0.324 A  
HETATM   11  C   UNL     1     -12.038  13.029  70.554  1.00  0.00    -0.373 A  
HETATM   12  O   UNL     1      -8.584  14.752  69.570  1.00  0.00    -0.047 OA 
HETATM   13  C   UNL     1     -13.041  13.033  71.524  1.00  0.00    -0.400 A  
HETATM   14  C   UNL     1     -11.126  11.580  68.093  1.00  0.00    -0.303 A  
HETATM   15  C   UNL     1      -8.522  11.220  67.264  1.00  0.00    -0.144 A  
HETATM   16  C   UNL     1      -9.366  10.114  67.378  1.00  0.00    -0.167 A  
HETATM   17  C   UNL     1     -13.735  14.204  71.798  1.00  0.00    -0.492 A  
HETATM   18  C   UNL     1     -12.484  15.330  70.060  1.00  0.00    -0.330 A  
HETATM   19  C   UNL     1     -13.422  15.364  71.095  1.00  0.00    -0.565 A  
BRANCH   7  20
HETATM   20  O   UNL     1      -9.898  16.421  68.721  1.00  0.00    -0.229 OA 
BRANCH  20  21
HETATM   21  C   UNL     1      -8.893  17.237  68.072  1.00  0.00    -0.238 C  
HETATM   22  C   UNL     1      -9.089  17.263  66.555  1.00  0.00    -0.289 C  
HETATM   23  N   UNL     1     -10.572  19.288  66.721  1.00  0.00    -0.436 NA 
HETATM   24  C   UNL     1     -10.415  17.931  66.189  1.00  0.00    -0.321 C  
HETATM   25  C   UNL     1      -9.796  20.277  65.982  1.00  0.00    -0.257 C  
HETATM   26  C   UNL     1     -10.325  19.331  68.169  1.00  0.00    -0.397 C  
HETATM   27  C   UNL     1      -9.015  18.668  68.610  1.00  0.00    -0.337 C  
ENDBRANCH  20  21
ENDBRANCH   7  20
ENDBRANCH   3   4
ENDBRANCH   2   3
TORSDOF 4
ENDMDL
MODEL        2
REMARK 921   NORMALIZED FREE ENERGY PREDICTED BY IDOCK:   -6.76 KCAL/MOL
REMARK 922        TOTAL FREE ENERGY PREDICTED BY IDOCK:   -9.64 KCAL/MOL
REMARK 923 INTER-LIGAND FREE ENERGY PREDICTED BY IDOCK:   -8.33 KCAL/MOL
REMARK 924 INTRA-LIGAND FREE ENERGY PREDICTED BY IDOCK:   -1.31 KCAL/MOL
REMARK 927      BINDING AFFINITY PREDICTED BY RF-SCORE:    0.00 PKD
ROOT
HETATM    1  C   UNL     1     -12.378  12.506  64.137  1.00  0.00    -0.548 C  
HETATM    2  C   UNL     1     -12.534  13.832  64.875  1.00  0.00    -0.420 C  
ENDROOT
BRANCH   2   3
HETATM    3  C   UNL     1     -12.435  13.603  66.378  1.00  0.00    -0.324 C  
BRANCH   3   4
HETATM    4  O   UNL     1     -11.270  14.224  66.919  1.00  0.00    -0.307 OA 
HETATM    5  C   UNL     1     -10.497  13.422  67.875  1.00  0.00    -0.240 C  
HETATM    6  C   UNL     1     -10.034  12.116  67.138  1.00  0.00    -0.210 A  
HETATM    7  C   UNL     1      -9.255  14.323  68.337  1.00  0.00    -0.196 C  
HETATM    8  C   UNL     1     -11.333  13.200  69.186  1.00  0.00    -0.335 A  
HETATM    9  C   UNL     1      -8.808  12.024  66.461  1.00  0.00    -0.172 A  
HETATM   10  C   UNL     1     -10.483   9.787  66.449  1.00  0.00    -0.190 A  
HETATM   11  C   UNL     1     -11.467  11.951  69.821  1.00  0.00    -0.303 A  
HETATM   12  O   UNL     1      -8.169  13.899  68.725  1.00  0.00    -0.122 OA 
HETATM   13  C   UNL     1     -12.336  11.763  70.896  1.00  0.00    -0.420 A  
HETATM   14  C   UNL     1     -10.883  10.980  67.045  1.00  0.00    -0.334 A  
HETATM   15  C   UNL     1      -8.409  10.830  65.840  1.00  0.00    -0.162 A  
HETATM   16  C   UNL     1      -9.232   9.703  65.862  1.00  0.00    -0.246 A  
HETATM   17  C   UNL     1     -12.988  12.851  71.460  1.00  0.00    -0.388 A  
HETATM   18  C   UNL     1     -11.972  14.293  69.804  1.00  0.00    -0.394 A  
HETATM   19  C   UNL     1     -12.768  14.123  70.940  1.00  0.00    -0.432 A  
BRANCH   7  20
HETATM   20  O   UNL     1      -9.582  15.661  68.361  1.00  0.00    -0.195 OA 
BRANCH  20  21
HETATM   21  C   UNL     1      -8.668  16.602  67.745  1.00  0.00    -0.201 C  
HETATM   22  C   UNL     1      -9.001  16.818  66.268  1.00  0.00    -0.325 C  
HETATM   23  N   UNL     1     -10.531  18.733  66.833  1.00  0.00    -0.397 NA 
HETATM   24  C   UNL     1     -10.377  17.466  66.110  1.00  0.00    -0.327 C  
HETATM   25  C   UNL     1      -9.860  19.845  66.171  1.00  0.00    -0.458 C  
HETATM   26  C   UNL     1     -10.156  18.596  68.247  1.00  0.00    -0.389 C  
HETATM   27  C   UNL     1      -8.790  17.941  68.481  1.00  0.00    -0.293 C  
ENDBRANCH  20  21
ENDBRANCH   7  20
ENDBRANCH   3   4
ENDBRANCH   2   3
TORSDOF 4
ENDMDL
MODEL        3
REMARK 921   NORMALIZED FREE ENERGY PREDICTED BY IDOCK:   -6.71 KCAL/MOL
REMARK 922        TOTAL FREE ENERGY PREDICTED BY IDOCK:   -9.58 KCAL/MOL
REMARK 923 INTER-LIGAND FREE ENERGY PREDICTED BY IDOCK:   -8.29 KCAL/MOL
REMARK 924 INTRA-LIGAND FREE ENERGY PREDICTED BY IDOCK:   -1.29 KCAL/MOL
REMARK 927      BINDING AFFINITY PREDICTED BY RF-SCORE:    0.00 PKD
ROOT
HETATM    1  C   UNL     1      -8.256  11.351  66.360  1.00  0.00    -0.124 C  
HETATM    2  C   UNL     1      -7.927  12.539  67.257  1.00  0.00    -0.173 C  
ENDROOT
BRANCH   2   3
HETATM    3  C   UNL     1      -8.881  12.572  68.446  1.00  0.00    -0.123 C  
BRANCH   3   4
HETATM    4  O   UNL     1      -9.451  13.869  68.614  1.00  0.00    -0.199 OA 
HETATM    5  C   UNL     1     -10.897  13.971  68.383  1.00  0.00    -0.249 C  
HETATM    6  C   UNL     1     -11.612  13.008  69.396  1.00  0.00    -0.360 A  
HETATM    7  C   UNL     1     -11.298  15.504  68.628  1.00  0.00    -0.344 C  
HETATM    8  C   UNL     1     -11.217  13.717  66.867  1.00  0.00    -0.326 A  
HETATM    9  C   UNL     1     -12.043  13.430  70.664  1.00  0.00    -0.374 A  
HETATM   10  C   UNL     1     -12.457  10.757  69.960  1.00  0.00    -0.317 A  
HETATM   11  C   UNL     1     -12.247  12.868  66.421  1.00  0.00    -0.301 A  
HETATM   12  O   UNL     1     -12.400  15.905  68.994  1.00  0.00    -0.152 OA 
HETATM   13  C   UNL     1     -12.405  12.550  65.071  1.00  0.00    -0.522 A  
HETATM   14  C   UNL     1     -11.779  11.627  69.110  1.00  0.00    -0.390 A  
HETATM   15  C   UNL     1     -12.709  12.551  71.534  1.00  0.00    -0.325 A  
HETATM   16  C   UNL     1     -12.944  11.225  71.168  1.00  0.00    -0.369 A  
HETATM   17  C   UNL     1     -11.628  13.187  64.114  1.00  0.00    -0.460 A  
HETATM   18  C   UNL     1     -10.472  14.381  65.873  1.00  0.00    -0.317 A  
HETATM   19  C   UNL     1     -10.693  14.137  64.514  1.00  0.00    -0.323 A  
BRANCH   7  20
HETATM   20  O   UNL     1     -10.279  16.357  68.266  1.00  0.00    -0.238 OA 
BRANCH  20  21
HETATM   21  C   UNL     1     -10.627  17.687  67.810  1.00  0.00    -0.378 C  
HETATM   22  C   UNL     1     -10.031  18.763  68.720  1.00  0.00    -0.442 C  
HETATM   23  N   UNL     1      -7.942  18.872  67.324  1.00  0.00    -0.245 NA 
HETATM   24  C   UNL     1      -8.504  18.732  68.671  1.00  0.00    -0.329 C  
HETATM   25  C   UNL     1      -7.995  20.244  66.831  1.00  0.00    -0.304 C  
HETATM   26  C   UNL     1      -8.534  17.904  66.390  1.00  0.00    -0.234 C  
HETATM   27  C   UNL     1     -10.067  17.872  66.395  1.00  0.00    -0.369 C  
ENDBRANCH  20  21
ENDBRANCH   7  20
ENDBRANCH   3   4
ENDBRANCH   2   3
TORSDOF 4
ENDMDL
MODEL        4
REMARK 921   NORMALIZED FREE ENERGY PREDICTED BY IDOCK:   -6.53 KCAL/MOL
REMARK 922        TOTAL FREE ENERGY PREDICTED BY IDOCK:   -9.36 KCAL/MOL
REMARK 923 INTER-LIGAND FREE ENERGY PREDICTED BY IDOCK:   -8.18 KCAL/MOL
REMARK 924 INTRA-LIGAND FREE ENERGY PREDICTED BY IDOCK:   -1.18 KCAL/MOL
REMARK 927      BINDING AFFINITY PREDICTED BY RF-SCORE:    0.00 PKD
ROOT
HETATM    1  C   UNL     1      -6.655  17.552  68.871  1.00  0.00    -0.226 C  
HETATM    2  C   UNL     1      -6.804  16.035  68.932  1.00  0.00    -0.143 C  
ENDROOT
BRANCH   2   3
HETATM    3  C   UNL     1      -8.246  15.669  69.264  1.00  0.00    -0.253 C  
BRANCH   3   4
HETATM    4  O   UNL     1      -8.890  15.049  68.151  1.00  0.00    -0.161 OA 
HETATM    5  C   UNL     1     -10.262  15.490  67.874  1.00  0.00    -0.238 C  
HETATM    6  C   UNL     1     -10.221  17.033  67.594  1.00  0.00    -0.317 A  
HETATM    7  C   UNL     1     -10.766  14.661  66.598  1.00  0.00    -0.305 C  
HETATM    8  C   UNL     1     -11.215  15.038  69.038  1.00  0.00    -0.279 A  
HETATM    9  C   UNL     1     -10.063  17.563  66.303  1.00  0.00    -0.341 A  
HETATM   10  C   UNL     1     -10.275  19.353  68.439  1.00  0.00    -0.516 A  
HETATM   11  C   UNL     1     -12.161  15.887  69.642  1.00  0.00    -0.216 A  
HETATM   12  O   UNL     1     -11.612  15.036  65.790  1.00  0.00    -0.292 OA 
HETATM   13  C   UNL     1     -12.883  15.497  70.771  1.00  0.00    -0.513 A  
HETATM   14  C   UNL     1     -10.253  17.978  68.654  1.00  0.00    -0.385 A  
HETATM   15  C   UNL     1     -10.063  18.950  66.082  1.00  0.00    -0.438 A  
HETATM   16  C   UNL     1     -10.201  19.843  67.146  1.00  0.00    -0.579 A  
HETATM   17  C   UNL     1     -12.786  14.195  71.241  1.00  0.00    -0.429 A  
HETATM   18  C   UNL     1     -11.167  13.711  69.508  1.00  0.00    -0.205 A  
HETATM   19  C   UNL     1     -11.961  13.290  70.579  1.00  0.00    -0.319 A  
BRANCH   7  20
HETATM   20  O   UNL     1     -10.215  13.399  66.565  1.00  0.00    -0.270 OA 
BRANCH  20  21
HETATM   21  C   UNL     1     -11.023  12.311  66.052  1.00  0.00    -0.292 C  
HETATM   22  C   UNL     1     -10.287  11.538  64.956  1.00  0.00    -0.333 C  
HETATM   23  N   UNL     1      -9.304   9.959  66.650  1.00  0.00    -0.153 NA 
HETATM   24  C   UNL     1      -9.041  10.853  65.518  1.00  0.00    -0.201 C  
HETATM   25  C   UNL     1      -9.895   8.690  66.240  1.00  0.00    -0.249 C  
HETATM   26  C   UNL     1     -10.072  10.635  67.704  1.00  0.00    -0.177 C  
HETATM   27  C   UNL     1     -11.332  11.354  67.209  1.00  0.00    -0.347 C  
ENDBRANCH  20  21
ENDBRANCH   7  20
ENDBRANCH   3   4
ENDBRANCH   2   3
TORSDOF 4
ENDMDL
MODEL        5
REMARK 921   NORMALIZED FREE ENERGY PREDICTED BY IDOCK:   -6.48 KCAL/MOL
REMARK 922        TOTAL FREE ENERGY PREDICTED BY IDOCK:   -9.29 KCAL/MOL
REMARK 923 INTER-LIGAND FREE ENERGY PREDICTED BY IDOCK:   -8.30 KCAL/MOL
REMARK 924 INTRA-LIGAND FREE ENERGY PREDICTED BY IDOCK:   -0.99 KCAL/MOL
REMARK 927      BINDING AFFINITY PREDICTED BY RF-SCORE:    0.00 PKD
ROOT
HETATM    1  C   UNL     1      -8.722  11.694  66.641  1.00  0.00    -0.187 C  
HETATM    2  C   UNL     1      -7.928  12.682  67.488  1.00  0.00    -0.174 C  
ENDROOT
BRANCH   2   3
HETATM    3  C   UNL     1      -8.847  13.353  68.502  1.00  0.00    -0.068 C  
BRANCH   3   4
HETATM    4  O   UNL     1      -8.958  14.753  68.250  1.00  0.00    -0.169 OA 
HETATM    5  C   UNL     1     -10.322  15.275  68.104  1.00  0.00    -0.242 C  
HETATM    6  C   UNL     1     -11.095  14.974  69.436  1.00  0.00    -0.290 A  
HETATM    7  C   UNL     1     -10.189  16.848  67.829  1.00  0.00    -0.308 C  
HETATM    8  C   UNL     1     -10.978  14.701  66.797  1.00  0.00    -0.323 A  
HETATM    9  C   UNL     1     -11.137  15.881  70.507  1.00  0.00    -0.381 A  
HETATM   10  C   UNL     1     -12.461  13.438  70.806  1.00  0.00    -0.418 A  
HETATM   11  C   UNL     1     -12.279  14.168  66.749  1.00  0.00    -0.429 A  
HETATM   12  O   UNL     1     -11.031  17.697  68.111  1.00  0.00    -0.289 OA 
HETATM   13  C   UNL     1     -12.771  13.532  65.609  1.00  0.00    -0.478 A  
HETATM   14  C   UNL     1     -11.721  13.718  69.660  1.00  0.00    -0.379 A  
HETATM   15  C   UNL     1     -11.865  15.596  71.673  1.00  0.00    -0.504 A  
HETATM   16  C   UNL     1     -12.553  14.389  71.809  1.00  0.00    -0.427 A  
HETATM   17  C   UNL     1     -12.029  13.538  64.436  1.00  0.00    -0.466 A  
HETATM   18  C   UNL     1     -10.263  14.731  65.583  1.00  0.00    -0.382 A  
HETATM   19  C   UNL     1     -10.794  14.179  64.413  1.00  0.00    -0.218 A  
BRANCH   7  20
HETATM   20  O   UNL     1      -9.045  17.143  67.121  1.00  0.00    -0.221 OA 
BRANCH  20  21
HETATM   21  C   UNL     1      -8.047  17.985  67.748  1.00  0.00    -0.237 C  
HETATM   22  C   UNL     1      -6.678  17.817  67.087  1.00  0.00    -0.192 C  
HETATM   23  N   UNL     1      -7.169  19.672  65.462  1.00  0.00    -0.384 NA 
HETATM   24  C   UNL     1      -6.714  18.289  65.634  1.00  0.00    -0.256 C  
HETATM   25  C   UNL     1      -6.148  20.650  65.822  1.00  0.00    -0.225 C  
HETATM   26  C   UNL     1      -8.451  19.907  66.140  1.00  0.00    -0.319 C  
HETATM   27  C   UNL     1      -8.490  19.446  67.601  1.00  0.00    -0.339 C  
ENDBRANCH  20  21
ENDBRANCH   7  20
ENDBRANCH   3   4
ENDBRANCH   2   3
TORSDOF 4
ENDMDL
MODEL        6
REMARK 921   NORMALIZED FREE ENERGY PREDICTED BY IDOCK:   -6.22 KCAL/MOL
REMARK 922        TOTAL FREE ENERGY PREDICTED BY IDOCK:   -8.97 KCAL/MOL
REMARK 923 INTER-LIGAND FREE ENERGY PREDICTED BY IDOCK:   -7.85 KCAL/MOL
REMARK 924 INTRA-LIGAND FREE ENERGY PREDICTED BY IDOCK:   -1.12 KCAL/MOL
REMARK 927      BINDING AFFINITY PREDICTED BY RF-SCORE:    0.00 PKD
ROOT
HETATM    1  C   UNL     1     -11.695  16.074  71.651  1.00  0.00    -0.583 C  
HETATM    2  C   UNL     1     -12.557  15.362  70.615  1.00  0.00    -0.491 C  
ENDROOT
BRANCH   2   3
HETATM    3  C   UNL     1     -11.942  15.523  69.229  1.00  0.00    -0.316 C  
BRANCH   3   4
HETATM    4  O   UNL     1     -10.853  14.621  69.041  1.00  0.00    -0.230 OA 
HETATM    5  C   UNL     1      -9.988  14.890  67.886  1.00  0.00    -0.219 C  
HETATM    6  C   UNL     1      -9.383  16.327  68.066  1.00  0.00    -0.214 A  
HETATM    7  C   UNL     1      -8.854  13.757  67.883  1.00  0.00    -0.186 C  
HETATM    8  C   UNL     1     -10.784  14.653  66.553  1.00  0.00    -0.312 A  
HETATM    9  C   UNL     1      -8.158  16.556  68.713  1.00  0.00    -0.244 A  
HETATM   10  C   UNL     1      -9.566  18.769  67.751  1.00  0.00    -0.346 A  
HETATM   11  C   UNL     1     -10.771  15.550  65.469  1.00  0.00    -0.395 A  
HETATM   12  O   UNL     1      -7.724  13.877  67.415  1.00  0.00    -0.171 OA 
HETATM   13  C   UNL     1     -11.606  15.380  64.364  1.00  0.00    -0.265 A  
HETATM   14  C   UNL     1     -10.096  17.485  67.657  1.00  0.00    -0.328 A  
HETATM   15  C   UNL     1      -7.628  17.851  68.829  1.00  0.00    -0.271 A  
HETATM   16  C   UNL     1      -8.317  18.953  68.319  1.00  0.00    -0.364 A  
HETATM   17  C   UNL     1     -12.375  14.231  64.246  1.00  0.00    -0.407 A  
HETATM   18  C   UNL     1     -11.541  13.476  66.388  1.00  0.00    -0.381 A  
HETATM   19  C   UNL     1     -12.305  13.258  65.239  1.00  0.00    -0.525 A  
BRANCH   7  20
HETATM   20  O   UNL     1      -9.331  12.563  68.376  1.00  0.00    -0.202 OA 
BRANCH  20  21
HETATM   21  C   UNL     1      -8.589  11.354  68.082  1.00  0.00    -0.153 C  
HETATM   22  C   UNL     1      -8.498  10.442  69.307  1.00  0.00    -0.162 C  
HETATM   23  N   UNL     1     -10.618   9.255  68.654  1.00  0.00    -0.209 NA 
HETATM   24  C   UNL     1      -9.884   9.946  69.719  1.00  0.00    -0.236 C  
HETATM   25  C   UNL     1     -10.131   7.900  68.422  1.00  0.00    -0.194 C  
HETATM   26  C   UNL     1     -10.674  10.062  67.427  1.00  0.00    -0.274 C  
HETATM   27  C   UNL     1      -9.318  10.603  66.961  1.00  0.00    -0.175 C  
ENDBRANCH  20  21
ENDBRANCH   7  20
ENDBRANCH   3   4
ENDBRANCH   2   3
TORSDOF 4
ENDMDL
MODEL        7
REMARK 921   NORMALIZED FREE ENERGY PREDICTED BY IDOCK:   -6.20 KCAL/MOL
REMARK 922        TOTAL FREE ENERGY PREDICTED BY IDOCK:   -8.95 KCAL/MOL
REMARK 923 INTER-LIGAND FREE ENERGY PREDICTED BY IDOCK:   -7.89 KCAL/MOL
REMARK 924 INTRA-LIGAND FREE ENERGY PREDICTED BY IDOCK:   -1.07 KCAL/MOL
REMARK 927      BINDING AFFINITY PREDICTED BY RF-SCORE:    0.00 PKD
ROOT
HETATM    1  C   UNL     1     -11.746  11.847  63.666  1.00  0.00    -0.572 C  
HETATM    2  C   UNL     1     -12.381  12.926  64.538  1.00  0.00    -0.483 C  
ENDROOT
BRANCH   2   3
HETATM    3  C   UNL     1     -12.149  12.604  66.010  1.00  0.00    -0.364 C  
BRANCH   3   4
HETATM    4  O   UNL     1     -11.024  13.316  66.522  1.00  0.00    -0.282 OA 
HETATM    5  C   UNL     1     -10.250  12.633  67.566  1.00  0.00    -0.215 C  
HETATM    6  C   UNL     1      -9.720  11.285  66.962  1.00  0.00    -0.208 A  
HETATM    7  C   UNL     1      -9.055  13.618  67.977  1.00  0.00    -0.192 C  
HETATM    8  C   UNL     1     -11.115  12.496  68.870  1.00  0.00    -0.309 A  
HETATM    9  C   UNL     1      -8.471  11.180  66.328  1.00  0.00    -0.168 A  
HETATM   10  C   UNL     1     -10.064   8.889  66.473  1.00  0.00    -0.356 A  
HETATM   11  C   UNL     1     -11.222  11.305  69.611  1.00  0.00    -0.321 A  
HETATM   12  O   UNL     1      -7.966  13.272  68.429  1.00  0.00    -0.135 OA 
HETATM   13  C   UNL     1     -12.115  11.179  70.676  1.00  0.00    -0.477 A  
HETATM   14  C   UNL     1     -10.524  10.113  66.950  1.00  0.00    -0.286 A  
HETATM   15  C   UNL     1      -8.012   9.952  65.826  1.00  0.00    -0.120 A  
HETATM   16  C   UNL     1      -8.794   8.801  65.929  1.00  0.00    -0.222 A  
HETATM   17  C   UNL     1     -12.821  12.287  71.123  1.00  0.00    -0.302 A  
HETATM   18  C   UNL     1     -11.810  13.614  69.371  1.00  0.00    -0.392 A  
HETATM   19  C   UNL     1     -12.632  13.515  70.497  1.00  0.00    -0.311 A  
BRANCH   7  20
HETATM   20  O   UNL     1      -9.430  14.939  67.872  1.00  0.00    -0.196 OA 
BRANCH  20  21
HETATM   21  C   UNL     1      -9.109  15.833  68.967  1.00  0.00    -0.245 C  
HETATM   22  C   UNL     1      -8.003  16.815  68.580  1.00  0.00    -0.235 C  
HETATM   23  N   UNL     1      -9.692  18.487  67.759  1.00  0.00    -0.295 NA 
HETATM   24  C   UNL     1      -8.466  17.742  67.456  1.00  0.00    -0.227 C  
HETATM   25  C   UNL     1      -9.464  19.602  68.672  1.00  0.00    -0.348 C  
HETATM   26  C   UNL     1     -10.771  17.594  68.204  1.00  0.00    -0.307 C  
HETATM   27  C   UNL     1     -10.372  16.627  69.324  1.00  0.00    -0.318 C  
ENDBRANCH  20  21
ENDBRANCH   7  20
ENDBRANCH   3   4
ENDBRANCH   2   3
TORSDOF 4
ENDMDL
MODEL        8
REMARK 921   NORMALIZED FREE ENERGY PREDICTED BY IDOCK:   -5.89 KCAL/MOL
REMARK 922        TOTAL FREE ENERGY PREDICTED BY IDOCK:   -8.57 KCAL/MOL
REMARK 923 INTER-LIGAND FREE ENERGY PREDICTED BY IDOCK:   -8.11 KCAL/MOL
REMARK 924 INTRA-LIGAND FREE ENERGY PREDICTED BY IDOCK:   -0.46 KCAL/MOL
REMARK 927      BINDING AFFINITY PREDICTED BY RF-SCORE:    0.00 PKD
ROOT
HETATM    1  C   UNL     1     -12.447  12.945  70.783  1.00  0.00    -0.370 C  
HETATM    2  C   UNL     1     -12.318  14.227  69.966  1.00  0.00    -0.403 C  
ENDROOT
BRANCH   2   3
HETATM    3  C   UNL     1     -12.075  13.885  68.501  1.00  0.00    -0.296 C  
BRANCH   3   4
HETATM    4  O   UNL     1     -11.696  15.043  67.758  1.00  0.00    -0.339 OA 
HETATM    5  C   UNL     1     -10.610  14.857  66.788  1.00  0.00    -0.305 C  
HETATM    6  C   UNL     1     -11.070  13.766  65.757  1.00  0.00    -0.290 A  
HETATM    7  C   UNL     1     -10.366  16.279  66.088  1.00  0.00    -0.341 C  
HETATM    8  C   UNL     1      -9.265  14.553  67.541  1.00  0.00    -0.194 A  
HETATM    9  C   UNL     1     -11.736  14.087  64.564  1.00  0.00    -0.428 A  
HETATM   10  C   UNL     1     -11.256  11.389  65.114  1.00  0.00    -0.146 A  
HETATM   11  C   UNL     1      -8.385  13.519  67.173  1.00  0.00    -0.151 A  
HETATM   12  O   UNL     1      -9.919  16.452  64.957  1.00  0.00    -0.401 OA 
HETATM   13  C   UNL     1      -7.278  13.184  67.954  1.00  0.00    -0.133 A  
HETATM   14  C   UNL     1     -10.911  12.381  66.028  1.00  0.00    -0.324 A  
HETATM   15  C   UNL     1     -12.106  13.090  63.647  1.00  0.00    -0.604 A  
HETATM   16  C   UNL     1     -11.836  11.745  63.908  1.00  0.00    -0.449 A  
HETATM   17  C   UNL     1      -6.938  13.967  69.048  1.00  0.00    -0.109 A  
HETATM   18  C   UNL     1      -8.874  15.357  68.630  1.00  0.00    -0.186 A  
HETATM   19  C   UNL     1      -7.713  15.081  69.357  1.00  0.00    -0.190 A  
BRANCH   7  20
HETATM   20  O   UNL     1     -10.612  17.319  66.957  1.00  0.00    -0.310 OA 
BRANCH  20  21
HETATM   21  C   UNL     1     -10.205  18.652  66.564  1.00  0.00    -0.412 C  
HETATM   22  C   UNL     1     -10.430  19.660  67.692  1.00  0.00    -0.579 C  
HETATM   23  N   UNL     1      -8.117  19.259  68.594  1.00  0.00    -0.363 NA 
HETATM   24  C   UNL     1      -9.549  19.334  68.898  1.00  0.00    -0.406 C  
HETATM   25  C   UNL     1      -7.508  20.574  68.423  1.00  0.00     0.080 C  
HETATM   26  C   UNL     1      -7.851  18.354  67.467  1.00  0.00    -0.231 C  
HETATM   27  C   UNL     1      -8.710  18.617  66.225  1.00  0.00    -0.229 C  
ENDBRANCH  20  21
ENDBRANCH   7  20
ENDBRANCH   3   4
ENDBRANCH   2   3
TORSDOF 4
ENDMDL
MODEL        9
REMARK 921   NORMALIZED FREE ENERGY PREDICTED BY IDOCK:   -5.89 KCAL/MOL
REMARK 922        TOTAL FREE ENERGY PREDICTED BY IDOCK:   -8.56 KCAL/MOL
REMARK 923 INTER-LIGAND FREE ENERGY PREDICTED BY IDOCK:   -7.48 KCAL/MOL
REMARK 924 INTRA-LIGAND FREE ENERGY PREDICTED BY IDOCK:   -1.08 KCAL/MOL
REMARK 927      BINDING AFFINITY PREDICTED BY RF-SCORE:    0.00 PKD
ROOT
HETATM    1  C   UNL     1     -11.444  13.789  64.443  1.00  0.00    -0.392 C  
HETATM    2  C   UNL     1     -12.638  14.148  65.322  1.00  0.00    -0.460 C  
ENDROOT
BRANCH   2   3
HETATM    3  C   UNL     1     -12.325  13.825  66.779  1.00  0.00    -0.321 C  
BRANCH   3   4
HETATM    4  O   UNL     1     -11.326  12.812  66.879  1.00  0.00    -0.288 OA 
HETATM    5  C   UNL     1     -10.488  12.852  68.083  1.00  0.00    -0.237 C  
HETATM    6  C   UNL     1     -11.432  12.706  69.328  1.00  0.00    -0.354 A  
HETATM    7  C   UNL     1      -9.454  11.632  67.968  1.00  0.00    -0.185 C  
HETATM    8  C   UNL     1      -9.585  14.137  68.065  1.00  0.00    -0.218 A  
HETATM    9  C   UNL     1     -11.745  11.461  69.898  1.00  0.00    -0.424 A  
HETATM   10  C   UNL     1     -12.893  13.746  71.026  1.00  0.00    -0.376 A  
HETATM   11  C   UNL     1      -9.423  14.988  69.174  1.00  0.00    -0.195 A  
HETATM   12  O   UNL     1      -8.934  11.044  68.913  1.00  0.00    -0.168 OA 
HETATM   13  C   UNL     1      -8.734  16.199  69.076  1.00  0.00    -0.254 A  
HETATM   14  C   UNL     1     -12.094  13.831  69.890  1.00  0.00    -0.412 A  
HETATM   15  C   UNL     1     -12.568  11.368  71.032  1.00  0.00    -0.487 A  
HETATM   16  C   UNL     1     -13.115  12.512  71.615  1.00  0.00    -0.414 A  
HETATM   17  C   UNL     1      -8.065  16.523  67.904  1.00  0.00    -0.168 A  
HETATM   18  C   UNL     1      -8.862  14.469  66.903  1.00  0.00    -0.257 A  
HETATM   19  C   UNL     1      -8.093  15.634  66.833  1.00  0.00    -0.290 A  
BRANCH   7  20
HETATM   20  O   UNL     1      -9.113  11.380  66.658  1.00  0.00    -0.170 OA 
BRANCH  20  21
HETATM   21  C   UNL     1      -9.538  10.127  66.067  1.00  0.00    -0.210 C  
HETATM   22  C   UNL     1     -10.262  10.352  64.739  1.00  0.00    -0.319 C  
HETATM   23  N   UNL     1      -8.100  10.178  63.464  1.00  0.00    -0.159 NA 
HETATM   24  C   UNL     1      -9.318  10.960  63.701  1.00  0.00    -0.262 C  
HETATM   25  C   UNL     1      -8.342   8.994  62.646  1.00  0.00    -0.200 C  
HETATM   26  C   UNL     1      -7.402   9.874  64.720  1.00  0.00    -0.136 C  
HETATM   27  C   UNL     1      -8.292   9.270  65.812  1.00  0.00    -0.128 C  
ENDBRANCH  20  21
ENDBRANCH   7  20
ENDBRANCH   3   4
ENDBRANCH   2   3
TORSDOF 4
ENDMDL
MODEL       10
REMARK 921   NORMALIZED FREE ENERGY PREDICTED BY IDOCK:   -5.85 KCAL/MOL
REMARK 922        TOTAL FREE ENERGY PREDICTED BY IDOCK:   -8.51 KCAL/MOL
REMARK 923 INTER-LIGAND FREE ENERGY PREDICTED BY IDOCK:   -7.53 KCAL/MOL
REMARK 924 INTRA-LIGAND FREE ENERGY PREDICTED BY IDOCK:   -0.99 KCAL/MOL
REMARK 927      BINDING AFFINITY PREDICTED BY RF-SCORE:    0.00 PKD
ROOT
HETATM    1  C   UNL     1     -13.463  15.429  71.282  1.00  0.00    -0.598 C  
HETATM    2  C   UNL     1     -12.010  15.513  70.825  1.00  0.00    -0.420 C  
ENDROOT
BRANCH   2   3
HETATM    3  C   UNL     1     -11.897  15.062  69.373  1.00  0.00    -0.329 C  
BRANCH   3   4
HETATM    4  O   UNL     1     -10.635  14.444  69.123  1.00  0.00    -0.246 OA 
HETATM    5  C   UNL     1      -9.941  14.871  67.902  1.00  0.00    -0.219 C  
HETATM    6  C   UNL     1      -9.694  16.418  68.009  1.00  0.00    -0.235 A  
HETATM    7  C   UNL     1      -8.567  14.048  67.838  1.00  0.00    -0.181 C  
HETATM    8  C   UNL     1     -10.742  14.400  66.636  1.00  0.00    -0.292 A  
HETATM    9  C   UNL     1      -8.521  16.960  68.559  1.00  0.00    -0.258 A  
HETATM   10  C   UNL     1     -10.488  18.730  67.660  1.00  0.00    -0.495 A  
HETATM   11  C   UNL     1     -11.021  15.233  65.537  1.00  0.00    -0.365 A  
HETATM   12  O   UNL     1      -7.535  14.420  67.286  1.00  0.00    -0.183 OA 
HETATM   13  C   UNL     1     -11.862  14.825  64.500  1.00  0.00    -0.428 A  
HETATM   14  C   UNL     1     -10.694  17.353  67.631  1.00  0.00    -0.310 A  
HETATM   15  C   UNL     1      -8.317  18.348  68.610  1.00  0.00    -0.319 A  
HETATM   16  C   UNL     1      -9.287  19.231  68.131  1.00  0.00    -0.400 A  
HETATM   17  C   UNL     1     -12.332  13.520  64.462  1.00  0.00    -0.406 A  
HETATM   18  C   UNL     1     -11.198  13.069  66.551  1.00  0.00    -0.335 A  
HETATM   19  C   UNL     1     -11.961  12.630  65.466  1.00  0.00    -0.509 A  
BRANCH   7  20
HETATM   20  O   UNL     1      -8.705  12.792  68.388  1.00  0.00    -0.178 OA 
BRANCH  20  21
HETATM   21  C   UNL     1      -7.987  11.693  67.776  1.00  0.00    -0.131 C  
HETATM   22  C   UNL     1      -6.689  11.388  68.526  1.00  0.00    -0.069 C  
HETATM   23  N   UNL     1      -7.867   9.739  70.016  1.00  0.00    -0.164 NA 
HETATM   24  C   UNL     1      -6.981  10.906  69.947  1.00  0.00    -0.090 C  
HETATM   25  C   UNL     1      -7.190   8.496  69.665  1.00  0.00    -0.052 C  
HETATM   26  C   UNL     1      -9.103   9.955  69.251  1.00  0.00    -0.189 C  
HETATM   27  C   UNL     1      -8.885  10.450  67.818  1.00  0.00    -0.128 C  
ENDBRANCH  20  21
ENDBRANCH   7  20
ENDBRANCH   3   4
ENDBRANCH   2   3
TORSDOF 4
ENDMDL
MODEL       11
REMARK 921   NORMALIZED FREE ENERGY PREDICTED BY IDOCK:   -5.83 KCAL/MOL
REMARK 922        TOTAL FREE ENERGY PREDICTED BY IDOCK:   -8.49 KCAL/MOL
REMARK 923 INTER-LIGAND FREE ENERGY PREDICTED BY IDOCK:   -7.64 KCAL/MOL
REMARK 924 INTRA-LIGAND FREE ENERGY PREDICTED BY IDOCK:   -0.85 KCAL/MOL
REMARK 927      BINDING AFFINITY PREDICTED BY RF-SCORE:    0.00 PKD
ROOT
HETATM    1  C   UNL     1     -10.581  19.405  65.980  1.00  0.00    -0.573 C  
HETATM    2  C   UNL     1     -10.852  18.895  67.392  1.00  0.00    -0.449 C  
ENDROOT
BRANCH   2   3
HETATM    3  C   UNL     1     -11.111  17.393  67.360  1.00  0.00     0.093 C  
BRANCH   3   4
HETATM    4  O   UNL     1      -9.968  16.664  67.806  1.00  0.00    -0.251 OA 
HETATM    5  C   UNL     1     -10.199  15.256  68.151  1.00  0.00    -0.230 C  
HETATM    6  C   UNL     1     -10.747  14.534  66.870  1.00  0.00    -0.288 A  
HETATM    7  C   UNL     1      -8.787  14.657  68.620  1.00  0.00    -0.183 C  
HETATM    8  C   UNL     1     -11.111  15.158  69.426  1.00  0.00    -0.283 A  
HETATM    9  C   UNL     1      -9.906  13.902  65.939  1.00  0.00    -0.287 A  
HETATM   10  C   UNL     1     -12.656  13.885  65.444  1.00  0.00    -0.538 A  
HETATM   11  C   UNL     1     -12.218  14.295  69.526  1.00  0.00    -0.341 A  
HETATM   12  O   UNL     1      -8.446  13.480  68.535  1.00  0.00    -0.157 OA 
HETATM   13  C   UNL     1     -13.092  14.344  70.613  1.00  0.00    -0.279 A  
HETATM   14  C   UNL     1     -12.129  14.561  66.541  1.00  0.00    -0.330 A  
HETATM   15  C   UNL     1     -10.431  13.237  64.820  1.00  0.00    -0.402 A  
HETATM   16  C   UNL     1     -11.807  13.200  64.591  1.00  0.00    -0.417 A  
HETATM   17  C   UNL     1     -12.802  15.157  71.699  1.00  0.00    -0.439 A  
HETATM   18  C   UNL     1     -10.818  15.942  70.559  1.00  0.00    -0.283 A  
HETATM   19  C   UNL     1     -11.639  15.922  71.690  1.00  0.00    -0.541 A  
BRANCH   7  20
HETATM   20  O   UNL     1      -8.018  15.610  69.249  1.00  0.00    -0.210 OA 
BRANCH  20  21
HETATM   21  C   UNL     1      -6.651  15.792  68.804  1.00  0.00    -0.113 C  
HETATM   22  C   UNL     1      -6.596  16.395  67.399  1.00  0.00    -0.204 C  
HETATM   23  N   UNL     1      -6.560  18.728  68.338  1.00  0.00    -0.227 NA 
HETATM   24  C   UNL     1      -7.189  17.804  67.389  1.00  0.00    -0.186 C  
HETATM   25  C   UNL     1      -5.258  19.203  67.885  1.00  0.00    -0.171 C  
HETATM   26  C   UNL     1      -6.525  18.165  69.695  1.00  0.00    -0.127 C  
HETATM   27  C   UNL     1      -5.951  16.746  69.779  1.00  0.00    -0.226 C  
ENDBRANCH  20  21
ENDBRANCH   7  20
ENDBRANCH   3   4
ENDBRANCH   2   3
TORSDOF 4
ENDMDL
MODEL       12
REMARK 921   NORMALIZED FREE ENERGY PREDICTED BY IDOCK:   -5.81 KCAL/MOL
REMARK 922        TOTAL FREE ENERGY PREDICTED BY IDOCK:   -8.47 KCAL/MOL
REMARK 923 INTER-LIGAND FREE ENERGY PREDICTED BY IDOCK:   -7.62 KCAL/MOL
REMARK 924 INTRA-LIGAND FREE ENERGY PREDICTED BY IDOCK:   -0.86 KCAL/MOL
REMARK 927      BINDING AFFINITY PREDICTED BY RF-SCORE:    0.00 PKD
ROOT
HETATM    1  C   UNL     1      -6.320  13.814  68.193  1.00  0.00    -0.125 C  
HETATM    2  C   UNL     1      -7.623  13.761  67.402  1.00  0.00    -0.153 C  
ENDROOT
BRANCH   2   3
HETATM    3  C   UNL     1      -8.252  12.378  67.531  1.00  0.00    -0.173 C  
BRANCH   3   4
HETATM    4  O   UNL     1      -9.365  12.399  68.423  1.00  0.00    -0.206 OA 
HETATM    5  C   UNL     1     -10.606  11.801  67.918  1.00  0.00    -0.201 C  
HETATM    6  C   UNL     1     -10.308  10.300  67.572  1.00  0.00    -0.276 A  
HETATM    7  C   UNL     1     -11.697  11.943  69.084  1.00  0.00    -0.319 C  
HETATM    8  C   UNL     1     -11.176  12.667  66.738  1.00  0.00    -0.347 A  
HETATM    9  C   UNL     1     -10.487   9.260  68.499  1.00  0.00    -0.240 A  
HETATM   10  C   UNL     1      -9.527   8.600  65.959  1.00  0.00    -0.278 A  
HETATM   11  C   UNL     1     -11.631  12.122  65.523  1.00  0.00    -0.398 A  
HETATM   12  O   UNL     1     -12.658  11.198  69.259  1.00  0.00    -0.336 OA 
HETATM   13  C   UNL     1     -11.989  12.931  64.443  1.00  0.00    -0.456 A  
HETATM   14  C   UNL     1      -9.752   9.926  66.319  1.00  0.00    -0.281 A  
HETATM   15  C   UNL     1     -10.242   7.923  68.148  1.00  0.00    -0.248 A  
HETATM   16  C   UNL     1      -9.794   7.591  66.869  1.00  0.00    -0.295 A  
HETATM   17  C   UNL     1     -12.040  14.310  64.596  1.00  0.00    -0.478 A  
HETATM   18  C   UNL     1     -11.278  14.065  66.880  1.00  0.00    -0.323 A  
HETATM   19  C   UNL     1     -11.728  14.872  65.831  1.00  0.00    -0.175 A  
BRANCH   7  20
HETATM   20  O   UNL     1     -11.500  13.089  69.823  1.00  0.00    -0.236 OA 
BRANCH  20  21
HETATM   21  C   UNL     1     -12.639  13.948  70.074  1.00  0.00    -0.169 C  
HETATM   22  C   UNL     1     -13.364  13.553  71.362  1.00  0.00    -0.296 C  
HETATM   23  N   UNL     1     -11.933  15.118  72.715  1.00  0.00    -0.388 NA 
HETATM   24  C   UNL     1     -12.460  13.757  72.578  1.00  0.00     0.129 C  
HETATM   25  C   UNL     1     -12.928  16.060  73.217  1.00  0.00    -0.550 C  
HETATM   26  C   UNL     1     -11.286  15.573  71.477  1.00  0.00    -0.397 C  
HETATM   27  C   UNL     1     -12.133  15.388  70.213  1.00  0.00    -0.402 C  
ENDBRANCH  20  21
ENDBRANCH   7  20
ENDBRANCH   3   4
ENDBRANCH   2   3
TORSDOF 4
ENDMDL
MODEL       13
REMARK 921   NORMALIZED FREE ENERGY PREDICTED BY IDOCK:   -5.79 KCAL/MOL
REMARK 922        TOTAL FREE ENERGY PREDICTED BY IDOCK:   -8.45 KCAL/MOL
REMARK 923 INTER-LIGAND FREE ENERGY PREDICTED BY IDOCK:   -7.43 KCAL/MOL
REMARK 924 INTRA-LIGAND FREE ENERGY PREDICTED BY IDOCK:   -1.02 KCAL/MOL
REMARK 927      BINDING AFFINITY PREDICTED BY RF-SCORE:    0.00 PKD
ROOT
HETATM    1  C   UNL     1     -12.873  15.568  71.347  1.00  0.00    -0.531 C  
HETATM    2  C   UNL     1     -11.576  16.052  70.707  1.00  0.00    -0.431 C  
ENDROOT
BRANCH   2   3
HETATM    3  C   UNL     1     -11.477  15.531  69.277  1.00  0.00    -0.340 C  
BRANCH   3   4
HETATM    4  O   UNL     1     -10.157  15.074  68.985  1.00  0.00    -0.227 OA 
HETATM    5  C   UNL     1      -9.554  15.595  67.753  1.00  0.00    -0.209 C  
HETATM    6  C   UNL     1      -9.494  17.159  67.874  1.00  0.00    -0.257 A  
HETATM    7  C   UNL     1      -8.093  14.945  67.642  1.00  0.00    -0.166 C  
HETATM    8  C   UNL     1     -10.326  15.042  66.502  1.00  0.00    -0.287 A  
HETATM    9  C   UNL     1      -8.381  17.834  68.401  1.00  0.00    -0.295 A  
HETATM   10  C   UNL     1     -10.573  19.360  67.577  1.00  0.00    -0.591 A  
HETATM   11  C   UNL     1     -10.734  15.846  65.422  1.00  0.00    -0.415 A  
HETATM   12  O   UNL     1      -7.129  15.446  67.068  1.00  0.00    -0.195 OA 
HETATM   13  C   UNL     1     -11.548  15.350  64.402  1.00  0.00    -0.265 A  
HETATM   14  C   UNL     1     -10.610  17.969  67.535  1.00  0.00    -0.402 A  
HETATM   15  C   UNL     1      -8.346  19.236  68.465  1.00  0.00    -0.401 A  
HETATM   16  C   UNL     1      -9.428  20.000  68.024  1.00  0.00    -0.427 A  
HETATM   17  C   UNL     1     -11.857  13.998  64.358  1.00  0.00    -0.453 A  
HETATM   18  C   UNL     1     -10.619  13.667  66.411  1.00  0.00    -0.284 A  
HETATM   19  C   UNL     1     -11.353  13.150  65.340  1.00  0.00    -0.323 A  
BRANCH   7  20
HETATM   20  O   UNL     1      -8.061  13.677  68.179  1.00  0.00    -0.136 OA 
BRANCH  20  21
HETATM   21  C   UNL     1      -7.188  12.695  67.568  1.00  0.00    -0.155 C  
HETATM   22  C   UNL     1      -5.896  12.524  68.368  1.00  0.00    -0.057 C  
HETATM   23  N   UNL     1      -6.925  10.693  69.751  1.00  0.00    -0.138 NA 
HETATM   24  C   UNL     1      -6.188  11.960  69.759  1.00  0.00    -0.137 C  
HETATM   25  C   UNL     1      -6.086   9.554  69.395  1.00  0.00    -0.036 C  
HETATM   26  C   UNL     1      -8.145  10.783  68.936  1.00  0.00    -0.145 C  
HETATM   27  C   UNL     1      -7.927  11.353  67.530  1.00  0.00    -0.127 C  
ENDBRANCH  20  21
ENDBRANCH   7  20
ENDBRANCH   3   4
ENDBRANCH   2   3
TORSDOF 4
ENDMDL
MODEL       14
REMARK 921   NORMALIZED FREE ENERGY PREDICTED BY IDOCK:   -5.79 KCAL/MOL
REMARK 922        TOTAL FREE ENERGY PREDICTED BY IDOCK:   -8.45 KCAL/MOL
REMARK 923 INTER-LIGAND FREE ENERGY PREDICTED BY IDOCK:   -7.16 KCAL/MOL
REMARK 924 INTRA-LIGAND FREE ENERGY PREDICTED BY IDOCK:   -1.29 KCAL/MOL
REMARK 927      BINDING AFFINITY PREDICTED BY RF-SCORE:    0.00 PKD
ROOT
HETATM    1  C   UNL     1     -11.668  15.358  71.198  1.00  0.00    -0.418 C  
HETATM    2  C   UNL     1     -12.305  14.095  70.628  1.00  0.00    -0.435 C  
ENDROOT
BRANCH   2   3
HETATM    3  C   UNL     1     -12.116  14.056  69.116  1.00  0.00    -0.337 C  
BRANCH   3   4
HETATM    4  O   UNL     1     -10.919  13.365  68.764  1.00  0.00    -0.246 OA 
HETATM    5  C   UNL     1     -10.161  13.923  67.637  1.00  0.00    -0.241 C  
HETATM    6  C   UNL     1      -9.762  15.394  68.012  1.00  0.00    -0.207 A  
HETATM    7  C   UNL     1      -8.876  12.986  67.433  1.00  0.00    -0.203 C  
HETATM    8  C   UNL     1     -10.981  13.761  66.307  1.00  0.00    -0.297 A  
HETATM    9  C   UNL     1      -8.552  15.710  68.650  1.00  0.00    -0.188 A  
HETATM   10  C   UNL     1     -10.314  17.801  68.069  1.00  0.00    -0.395 A  
HETATM   11  C   UNL     1     -11.153  14.796  65.369  1.00  0.00    -0.359 A  
HETATM   12  O   UNL     1      -7.801  13.341  66.956  1.00  0.00    -0.088 OA 
HETATM   13  C   UNL     1     -12.010  14.662  64.276  1.00  0.00    -0.406 A  
HETATM   14  C   UNL     1     -10.656  16.478  67.800  1.00  0.00    -0.332 A  
HETATM   15  C   UNL     1      -8.211  17.040  68.942  1.00  0.00    -0.204 A  
HETATM   16  C   UNL     1      -9.077  18.087  68.622  1.00  0.00    -0.276 A  
HETATM   17  C   UNL     1     -12.609  13.439  64.010  1.00  0.00    -0.192 A  
HETATM   18  C   UNL     1     -11.566  12.520  65.991  1.00  0.00    -0.456 A  
HETATM   19  C   UNL     1     -12.348  12.355  64.845  1.00  0.00    -0.475 A  
BRANCH   7  20
HETATM   20  O   UNL     1      -9.150  11.676  67.756  1.00  0.00    -0.164 OA 
BRANCH  20  21
HETATM   21  C   UNL     1      -8.226  10.652  67.311  1.00  0.00    -0.116 C  
HETATM   22  C   UNL     1      -8.208   9.461  68.270  1.00  0.00    -0.118 C  
HETATM   23  N   UNL     1     -10.039   8.317  66.980  1.00  0.00    -0.254 NA 
HETATM   24  C   UNL     1      -9.566   8.761  68.295  1.00  0.00    -0.146 C  
HETATM   25  C   UNL     1      -9.356   7.116  66.512  1.00  0.00    -0.164 C  
HETATM   26  C   UNL     1     -10.010   9.411  65.999  1.00  0.00    -0.281 C  
HETATM   27  C   UNL     1      -8.678  10.166  65.929  1.00  0.00    -0.159 C  
ENDBRANCH  20  21
ENDBRANCH   7  20
ENDBRANCH   3   4
ENDBRANCH   2   3
TORSDOF 4
ENDMDL
MODEL       15
REMARK 921   NORMALIZED FREE ENERGY PREDICTED BY IDOCK:   -5.73 KCAL/MOL
REMARK 922        TOTAL FREE ENERGY PREDICTED BY IDOCK:   -8.36 KCAL/MOL
REMARK 923 INTER-LIGAND FREE ENERGY PREDICTED BY IDOCK:   -7.07 KCAL/MOL
REMARK 924 INTRA-LIGAND FREE ENERGY PREDICTED BY IDOCK:   -1.29 KCAL/MOL
REMARK 927      BINDING AFFINITY PREDICTED BY RF-SCORE:    0.00 PKD
ROOT
HETATM    1  C   UNL     1      -6.808  13.494  67.755  1.00  0.00    -0.168 C  
HETATM    2  C   UNL     1      -6.660  12.391  68.798  1.00  0.00    -0.088 C  
ENDROOT
BRANCH   2   3
HETATM    3  C   UNL     1      -8.021  11.771  69.093  1.00  0.00     0.209 C  
BRANCH   3   4
HETATM    4  O   UNL     1      -9.059  12.441  68.379  1.00  0.00    -0.195 OA 
HETATM    5  C   UNL     1     -10.167  11.599  67.914  1.00  0.00    -0.189 C  
HETATM    6  C   UNL     1     -10.820  10.929  69.174  1.00  0.00    -0.280 A  
HETATM    7  C   UNL     1     -11.193  12.564  67.148  1.00  0.00    -0.300 C  
HETATM    8  C   UNL     1      -9.659  10.608  66.807  1.00  0.00    -0.200 A  
HETATM    9  C   UNL     1     -11.892  11.511  69.869  1.00  0.00    -0.430 A  
HETATM   10  C   UNL     1     -10.882   9.081  70.812  1.00  0.00    -0.310 A  
HETATM   11  C   UNL     1      -9.966   9.235  66.792  1.00  0.00    -0.312 A  
HETATM   12  O   UNL     1     -12.402  12.378  67.034  1.00  0.00    -0.399 OA 
HETATM   13  C   UNL     1      -9.375   8.359  65.880  1.00  0.00    -0.205 A  
HETATM   14  C   UNL     1     -10.294   9.732  69.730  1.00  0.00    -0.274 A  
HETATM   15  C   UNL     1     -12.475  10.870  70.974  1.00  0.00    -0.514 A  
HETATM   16  C   UNL     1     -11.991   9.640  71.424  1.00  0.00    -0.480 A  
HETATM   17  C   UNL     1      -8.570   8.855  64.864  1.00  0.00    -0.198 A  
HETATM   18  C   UNL     1      -8.873  11.090  65.741  1.00  0.00    -0.200 A  
HETATM   19  C   UNL     1      -8.358  10.227  64.770  1.00  0.00    -0.173 A  
BRANCH   7  20
HETATM   20  O   UNL     1     -10.537  13.599  66.517  1.00  0.00    -0.278 OA 
BRANCH  20  21
HETATM   21  C   UNL     1     -11.196  14.887  66.447  1.00  0.00    -0.331 C  
HETATM   22  C   UNL     1     -11.373  15.499  67.838  1.00  0.00    -0.309 C  
HETATM   23  N   UNL     1      -9.152  16.667  67.672  1.00  0.00    -0.206 NA 
HETATM   24  C   UNL     1     -10.018  15.800  68.477  1.00  0.00    -0.208 C  
HETATM   25  C   UNL     1      -9.557  18.068  67.719  1.00  0.00    -0.278 C  
HETATM   26  C   UNL     1      -9.005  16.159  66.301  1.00  0.00    -0.344 C  
HETATM   27  C   UNL     1     -10.327  15.826  65.602  1.00  0.00    -0.411 C  
ENDBRANCH  20  21
ENDBRANCH   7  20
ENDBRANCH   3   4
ENDBRANCH   2   3
TORSDOF 4
ENDMDL
MODEL       16
REMARK 921   NORMALIZED FREE ENERGY PREDICTED BY IDOCK:   -5.71 KCAL/MOL
REMARK 922        TOTAL FREE ENERGY PREDICTED BY IDOCK:   -8.35 KCAL/MOL
REMARK 923 INTER-LIGAND FREE ENERGY PREDICTED BY IDOCK:   -7.46 KCAL/MOL
REMARK 924 INTRA-LIGAND FREE ENERGY PREDICTED BY IDOCK:   -0.89 KCAL/MOL
REMARK 927      BINDING AFFINITY PREDICTED BY RF-SCORE:    0.00 PKD
ROOT
HETATM    1  C   UNL     1     -13.047  15.496  71.379  1.00  0.00    -0.580 C  
HETATM    2  C   UNL     1     -12.613  14.241  70.630  1.00  0.00    -0.424 C  
ENDROOT
BRANCH   2   3
HETATM    3  C   UNL     1     -11.893  14.628  69.343  1.00  0.00    -0.329 C  
BRANCH   3   4
HETATM    4  O   UNL     1     -10.837  13.716  69.048  1.00  0.00    -0.248 OA 
HETATM    5  C   UNL     1      -9.995  14.057  67.895  1.00  0.00    -0.237 C  
HETATM    6  C   UNL     1      -9.342  15.456  68.178  1.00  0.00    -0.197 A  
HETATM    7  C   UNL     1      -8.895  12.898  67.766  1.00  0.00    -0.188 C  
HETATM    8  C   UNL     1     -10.832  13.956  66.571  1.00  0.00    -0.295 A  
HETATM    9  C   UNL     1      -8.095  15.596  68.807  1.00  0.00    -0.169 A  
HETATM   10  C   UNL     1      -9.461  17.921  68.074  1.00  0.00    -0.279 A  
HETATM   11  C   UNL     1     -10.820  14.941  65.566  1.00  0.00    -0.365 A  
HETATM   12  O   UNL     1      -7.775  13.026  67.277  1.00  0.00    -0.160 OA 
HETATM   13  C   UNL     1     -11.689  14.889  64.475  1.00  0.00    -0.388 A  
HETATM   14  C   UNL     1     -10.031  16.665  67.888  1.00  0.00    -0.254 A  
HETATM   15  C   UNL     1      -7.524  16.861  69.016  1.00  0.00    -0.220 A  
HETATM   16  C   UNL     1      -8.192  18.021  68.620  1.00  0.00    -0.287 A  
HETATM   17  C   UNL     1     -12.495  13.775  64.283  1.00  0.00    -0.308 A  
HETATM   18  C   UNL     1     -11.628  12.818  66.329  1.00  0.00    -0.433 A  
HETATM   19  C   UNL     1     -12.428  12.720  65.188  1.00  0.00    -0.565 A  
BRANCH   7  20
HETATM   20  O   UNL     1      -9.395  11.680  68.170  1.00  0.00    -0.175 OA 
BRANCH  20  21
HETATM   21  C   UNL     1      -8.576  10.502  67.970  1.00  0.00    -0.121 C  
HETATM   22  C   UNL     1      -8.943   9.392  68.958  1.00  0.00    -0.141 C  
HETATM   23  N   UNL     1     -10.632   8.443  67.355  1.00  0.00    -0.278 NA 
HETATM   24  C   UNL     1     -10.372   8.905  68.722  1.00  0.00    -0.211 C  
HETATM   25  C   UNL     1     -10.070   7.123  67.090  1.00  0.00    -0.225 C  
HETATM   26  C   UNL     1     -10.231   9.447  66.361  1.00  0.00    -0.230 C  
HETATM   27  C   UNL     1      -8.809   9.990  66.544  1.00  0.00    -0.154 C  
ENDBRANCH  20  21
ENDBRANCH   7  20
ENDBRANCH   3   4
ENDBRANCH   2   3
TORSDOF 4
ENDMDL
MODEL       17
REMARK 921   NORMALIZED FREE ENERGY PREDICTED BY IDOCK:   -5.64 KCAL/MOL
REMARK 922        TOTAL FREE ENERGY PREDICTED BY IDOCK:   -8.26 KCAL/MOL
REMARK 923 INTER-LIGAND FREE ENERGY PREDICTED BY IDOCK:   -7.31 KCAL/MOL
REMARK 924 INTRA-LIGAND FREE ENERGY PREDICTED BY IDOCK:   -0.96 KCAL/MOL
REMARK 927      BINDING AFFINITY PREDICTED BY RF-SCORE:    0.00 PKD
ROOT
HETATM    1  C   UNL     1     -10.441  18.559  66.113  1.00  0.00    -0.447 C  
HETATM    2  C   UNL     1     -10.351  17.054  65.879  1.00  0.00    -0.310 C  
ENDROOT
BRANCH   2   3
HETATM    3  C   UNL     1     -10.920  16.308  67.081  1.00  0.00    -0.114 C  
BRANCH   3   4
HETATM    4  O   UNL     1     -10.566  14.927  67.045  1.00  0.00    -0.278 OA 
HETATM    5  C   UNL     1      -9.867  14.410  68.228  1.00  0.00    -0.229 C  
HETATM    6  C   UNL     1     -10.805  14.623  69.468  1.00  0.00    -0.238 A  
HETATM    7  C   UNL     1      -9.577  12.858  67.955  1.00  0.00    -0.215 C  
HETATM    8  C   UNL     1      -8.443  15.064  68.337  1.00  0.00    -0.153 A  
HETATM    9  C   UNL     1     -11.720  13.650  69.900  1.00  0.00    -0.346 A  
HETATM   10  C   UNL     1     -11.615  16.064  71.303  1.00  0.00    -0.506 A  
HETATM   11  C   UNL     1      -7.920  15.594  69.530  1.00  0.00    -0.174 A  
HETATM   12  O   UNL     1      -9.458  11.990  68.816  1.00  0.00    -0.102 OA 
HETATM   13  C   UNL     1      -6.716  16.300  69.556  1.00  0.00    -0.198 A  
HETATM   14  C   UNL     1     -10.837  15.860  70.167  1.00  0.00    -0.359 A  
HETATM   15  C   UNL     1     -12.522  13.858  71.033  1.00  0.00    -0.452 A  
HETATM   16  C   UNL     1     -12.446  15.052  71.753  1.00  0.00    -0.407 A  
HETATM   17  C   UNL     1      -5.929  16.370  68.414  1.00  0.00    -0.119 A  
HETATM   18  C   UNL     1      -7.606  15.113  67.205  1.00  0.00    -0.204 A  
HETATM   19  C   UNL     1      -6.356  15.736  67.251  1.00  0.00    -0.105 A  
BRANCH   7  20
HETATM   20  O   UNL     1      -9.358  12.613  66.617  1.00  0.00    -0.229 OA 
BRANCH  20  21
HETATM   21  C   UNL     1     -10.015  11.472  66.012  1.00  0.00    -0.224 C  
HETATM   22  C   UNL     1     -11.534  11.552  66.174  1.00  0.00    -0.105 C  
HETATM   23  N   UNL     1     -11.760  12.791  63.996  1.00  0.00    -0.390 NA 
HETATM   24  C   UNL     1     -12.098  12.758  65.423  1.00  0.00    -0.462 C  
HETATM   25  C   UNL     1     -12.549  11.849  63.209  1.00  0.00    -0.344 C  
HETATM   26  C   UNL     1     -10.314  12.647  63.782  1.00  0.00    -0.330 C  
HETATM   27  C   UNL     1      -9.677  11.462  64.516  1.00  0.00    -0.268 C  
ENDBRANCH  20  21
ENDBRANCH   7  20
ENDBRANCH   3   4
ENDBRANCH   2   3
TORSDOF 4
ENDMDL
MODEL       18
REMARK 921   NORMALIZED FREE ENERGY PREDICTED BY IDOCK:   -5.58 KCAL/MOL
REMARK 922        TOTAL FREE ENERGY PREDICTED BY IDOCK:   -8.19 KCAL/MOL
REMARK 923 INTER-LIGAND FREE ENERGY PREDICTED BY IDOCK:   -7.05 KCAL/MOL
REMARK 924 INTRA-LIGAND FREE ENERGY PREDICTED BY IDOCK:   -1.14 KCAL/MOL
REMARK 927      BINDING AFFINITY PREDICTED BY RF-SCORE:    0.00 PKD
ROOT
HETATM    1  C   UNL     1     -12.087  12.531  70.129  1.00  0.00    -0.368 C  
HETATM    2  C   UNL     1     -12.191  11.103  70.654  1.00  0.00    -0.492 C  
ENDROOT
BRANCH   2   3
HETATM    3  C   UNL     1     -11.194  10.209  69.926  1.00  0.00    -0.287 C  
BRANCH   3   4
HETATM    4  O   UNL     1     -11.244  10.422  68.516  1.00  0.00    -0.262 OA 
HETATM    5  C   UNL     1     -10.124   9.873  67.742  1.00  0.00    -0.180 C  
HETATM    6  C   UNL     1     -10.091   8.323  67.983  1.00  0.00    -0.243 A  
HETATM    7  C   UNL     1     -10.401  10.236  66.206  1.00  0.00    -0.186 C  
HETATM    8  C   UNL     1      -8.801  10.642  68.096  1.00  0.00    -0.134 A  
HETATM    9  C   UNL     1     -10.772   7.414  67.157  1.00  0.00    -0.400 A  
HETATM   10  C   UNL     1      -9.338   6.392  69.327  1.00  0.00    -0.138 A  
HETATM   11  C   UNL     1      -7.580  10.001  68.375  1.00  0.00    -0.083 A  
HETATM   12  O   UNL     1     -10.000   9.596  65.236  1.00  0.00    -0.295 OA 
HETATM   13  C   UNL     1      -6.466  10.707  68.831  1.00  0.00    -0.049 A  
HETATM   14  C   UNL     1      -9.435   7.764  69.114  1.00  0.00    -0.151 A  
HETATM   15  C   UNL     1     -10.695   6.030  67.381  1.00  0.00    -0.393 A  
HETATM   16  C   UNL     1      -9.952   5.518  68.446  1.00  0.00    -0.210 A  
HETATM   17  C   UNL     1      -6.498  12.094  68.883  1.00  0.00    -0.088 A  
HETATM   18  C   UNL     1      -8.793  12.051  68.118  1.00  0.00    -0.182 A  
HETATM   19  C   UNL     1      -7.649  12.766  68.482  1.00  0.00    -0.120 A  
BRANCH   7  20
HETATM   20  O   UNL     1     -11.061  11.438  66.082  1.00  0.00    -0.278 OA 
BRANCH  20  21
HETATM   21  C   UNL     1     -11.197  12.013  64.759  1.00  0.00    -0.318 C  
HETATM   22  C   UNL     1     -12.530  12.748  64.603  1.00  0.00    -0.525 C  
HETATM   23  N   UNL     1     -11.500  14.903  65.392  1.00  0.00    -0.341 NA 
HETATM   24  C   UNL     1     -12.602  13.948  65.547  1.00  0.00    -0.526 C  
HETATM   25  C   UNL     1     -11.645  15.744  64.209  1.00  0.00    -0.191 C  
HETATM   26  C   UNL     1     -10.194  14.235  65.464  1.00  0.00    -0.357 C  
HETATM   27  C   UNL     1     -10.054  13.013  64.549  1.00  0.00    -0.254 C  
ENDBRANCH  20  21
ENDBRANCH   7  20
ENDBRANCH   3   4
ENDBRANCH   2   3
TORSDOF 4
ENDMDL
MODEL       19
REMARK 921   NORMALIZED FREE ENERGY PREDICTED BY IDOCK:   -5.51 KCAL/MOL
REMARK 922        TOTAL FREE ENERGY PREDICTED BY IDOCK:   -8.10 KCAL/MOL
REMARK 923 INTER-LIGAND FREE ENERGY PREDICTED BY IDOCK:   -7.12 KCAL/MOL
REMARK 924 INTRA-LIGAND FREE ENERGY PREDICTED BY IDOCK:   -0.98 KCAL/MOL
REMARK 927      BINDING AFFINITY PREDICTED BY RF-SCORE:    0.00 PKD
ROOT
HETATM    1  C   UNL     1      -9.980   7.593  67.042  1.00  0.00    -0.310 C  
HETATM    2  C   UNL     1      -9.394   8.421  65.903  1.00  0.00    -0.205 C  
ENDROOT
BRANCH   2   3
HETATM    3  C   UNL     1     -10.010   9.815  65.905  1.00  0.00    -0.275 C  
BRANCH   3   4
HETATM    4  O   UNL     1     -10.724  10.061  67.116  1.00  0.00    -0.250 OA 
HETATM    5  C   UNL     1     -10.520  11.381  67.726  1.00  0.00    -0.185 C  
HETATM    6  C   UNL     1     -10.974  12.463  66.685  1.00  0.00    -0.309 A  
HETATM    7  C   UNL     1     -11.413  11.418  69.057  1.00  0.00    -0.300 C  
HETATM    8  C   UNL     1      -9.042  11.512  68.239  1.00  0.00    -0.185 A  
HETATM    9  C   UNL     1     -12.283  12.969  66.641  1.00  0.00    -0.285 A  
HETATM   10  C   UNL     1     -10.445  13.923  64.764  1.00  0.00    -0.451 A  
HETATM   11  C   UNL     1      -8.233  12.638  68.000  1.00  0.00    -0.167 A  
HETATM   12  O   UNL     1     -11.887  12.427  69.573  1.00  0.00    -0.298 OA 
HETATM   13  C   UNL     1      -6.880  12.656  68.341  1.00  0.00    -0.090 A  
HETATM   14  C   UNL     1     -10.095  12.924  65.668  1.00  0.00    -0.282 A  
HETATM   15  C   UNL     1     -12.648  13.962  65.717  1.00  0.00    -0.533 A  
HETATM   16  C   UNL     1     -11.721  14.462  64.801  1.00  0.00    -0.420 A  
HETATM   17  C   UNL     1      -6.331  11.604  69.061  1.00  0.00    -0.072 A  
HETATM   18  C   UNL     1      -8.472  10.477  69.007  1.00  0.00    -0.159 A  
HETATM   19  C   UNL     1      -7.142  10.536  69.433  1.00  0.00    -0.110 A  
BRANCH   7  20
HETATM   20  O   UNL     1     -11.500  10.173  69.642  1.00  0.00    -0.241 OA 
BRANCH  20  21
HETATM   21  C   UNL     1     -11.345  10.078  71.079  1.00  0.00    -0.357 C  
HETATM   22  C   UNL     1     -12.564   9.422  71.730  1.00  0.00    -0.470 C  
HETATM   23  N   UNL     1     -11.530   7.140  71.505  1.00  0.00    -0.258 NA 
HETATM   24  C   UNL     1     -12.714   7.973  71.268  1.00  0.00    -0.217 C  
HETATM   25  C   UNL     1     -11.389   6.747  72.903  1.00  0.00    -0.145 C  
HETATM   26  C   UNL     1     -10.316   7.761  70.958  1.00  0.00    -0.202 C  
HETATM   27  C   UNL     1     -10.108   9.222  71.373  1.00  0.00    -0.348 C  
ENDBRANCH  20  21
ENDBRANCH   7  20
ENDBRANCH   3   4
ENDBRANCH   2   3
TORSDOF 4
ENDMDL
MODEL       20
REMARK 921   NORMALIZED FREE ENERGY PREDICTED BY IDOCK:   -5.48 KCAL/MOL
REMARK 922        TOTAL FREE ENERGY PREDICTED BY IDOCK:   -8.06 KCAL/MOL
REMARK 923 INTER-LIGAND FREE ENERGY PREDICTED BY IDOCK:   -6.80 KCAL/MOL
REMARK 924 INTRA-LIGAND FREE ENERGY PREDICTED BY IDOCK:   -1.26 KCAL/MOL
REMARK 927      BINDING AFFINITY PREDICTED BY RF-SCORE:    0.00 PKD
ROOT
HETATM    1  C   UNL     1     -10.606  12.941  64.334  1.00  0.00    -0.418 C  
HETATM    2  C   UNL     1     -11.289  11.765  65.023  1.00  0.00    -0.288 C  
ENDROOT
BRANCH   2   3
HETATM    3  C   UNL     1     -11.730  12.171  66.425  1.00  0.00    -0.324 C  
BRANCH   3   4
HETATM    4  O   UNL     1     -11.538  11.105  67.354  1.00  0.00    -0.522 OA 
HETATM    5  C   UNL     1     -10.676  11.402  68.505  1.00  0.00    -0.201 C  
HETATM    6  C   UNL     1     -11.321  12.599  69.289  1.00  0.00    -0.306 A  
HETATM    7  C   UNL     1     -10.612  10.069  69.392  1.00  0.00    -0.233 C  
HETATM    8  C   UNL     1      -9.198  11.626  68.024  1.00  0.00    -0.178 A  
HETATM    9  C   UNL     1     -12.229  12.411  70.343  1.00  0.00    -0.370 A  
HETATM   10  C   UNL     1     -11.593  15.032  69.613  1.00  0.00    -0.333 A  
HETATM   11  C   UNL     1      -8.394  12.699  68.453  1.00  0.00    -0.125 A  
HETATM   12  O   UNL     1     -10.416  10.025  70.604  1.00  0.00    -0.276 OA 
HETATM   13  C   UNL     1      -7.142  12.949  67.891  1.00  0.00    -0.127 A  
HETATM   14  C   UNL     1     -11.082  13.947  68.907  1.00  0.00    -0.296 A  
HETATM   15  C   UNL     1     -12.763  13.502  71.045  1.00  0.00    -0.399 A  
HETATM   16  C   UNL     1     -12.420  14.811  70.702  1.00  0.00    -0.407 A  
HETATM   17  C   UNL     1      -6.595  12.050  66.986  1.00  0.00    -0.108 A  
HETATM   18  C   UNL     1      -8.603  10.708  67.136  1.00  0.00    -0.127 A  
HETATM   19  C   UNL     1      -7.309  10.905  66.645  1.00  0.00    -0.139 A  
BRANCH   7  20
HETATM   20  O   UNL     1     -10.691   8.937  68.610  1.00  0.00    -0.178 OA 
BRANCH  20  21
HETATM   21  C   UNL     1     -10.302   7.670  69.196  1.00  0.00    -0.213 C  
HETATM   22  C   UNL     1     -11.151   6.520  68.652  1.00  0.00    -0.348 C  
HETATM   23  N   UNL     1      -9.513   6.116  66.786  1.00  0.00    -0.141 NA 
HETATM   24  C   UNL     1     -10.916   6.333  67.153  1.00  0.00    -0.370 C  
HETATM   25  C   UNL     1      -9.052   4.767  67.092  1.00  0.00    -0.118 C  
HETATM   26  C   UNL     1      -8.643   7.160  67.345  1.00  0.00    -0.121 C  
HETATM   27  C   UNL     1      -8.833   7.409  68.845  1.00  0.00    -0.131 C  
ENDBRANCH  20  21
ENDBRANCH   7  20
ENDBRANCH   3   4
ENDBRANCH   2   3
TORSDOF 4
ENDMDL
MODEL       21
REMARK 921   NORMALIZED FREE ENERGY PREDICTED BY IDOCK:   -5.41 KCAL/MOL
REMARK 922        TOTAL FREE ENERGY PREDICTED BY IDOCK:   -7.98 KCAL/MOL
REMARK 923 INTER-LIGAND FREE ENERGY PREDICTED BY IDOCK:   -6.98 KCAL/MOL
REMARK 924 INTRA-LIGAND FREE ENERGY PREDICTED BY IDOCK:   -1.00 KCAL/MOL
REMARK 927      BINDING AFFINITY PREDICTED BY RF-SCORE:    0.00 PKD
ROOT
HETATM    1  C   UNL     1     -10.147   8.600  68.600  1.00  0.00    -0.207 C  
HETATM    2  C   UNL     1     -10.186   9.888  69.415  1.00  0.00    -0.231 C  
ENDROOT
BRANCH   2   3
HETATM    3  C   UNL     1      -9.822  11.074  68.529  1.00  0.00    -0.192 C  
BRANCH   3   4
HETATM    4  O   UNL     1     -10.749  12.145  68.693  1.00  0.00    -0.223 OA 
HETATM    5  C   UNL     1     -10.618  13.261  67.749  1.00  0.00    -0.241 C  
HETATM    6  C   UNL     1     -10.814  12.688  66.301  1.00  0.00    -0.300 A  
HETATM    7  C   UNL     1     -11.753  14.327  68.131  1.00  0.00    -0.350 C  
HETATM    8  C   UNL     1      -9.265  14.019  67.999  1.00  0.00    -0.201 A  
HETATM    9  C   UNL     1     -12.068  12.638  65.671  1.00  0.00    -0.502 A  
HETATM   10  C   UNL     1      -9.861  11.637  64.280  1.00  0.00    -0.259 A  
HETATM   11  C   UNL     1      -8.381  14.392  66.971  1.00  0.00    -0.172 A  
HETATM   12  O   UNL     1     -12.278  15.121  67.354  1.00  0.00     0.040 OA 
HETATM   13  C   UNL     1      -7.121  14.928  67.243  1.00  0.00    -0.103 A  
HETATM   14  C   UNL     1      -9.734  12.104  65.585  1.00  0.00    -0.223 A  
HETATM   15  C   UNL     1     -12.204  12.148  64.362  1.00  0.00    -0.435 A  
HETATM   16  C   UNL     1     -11.096  11.679  63.656  1.00  0.00    -0.506 A  
HETATM   17  C   UNL     1      -6.768  15.241  68.548  1.00  0.00    -0.112 A  
HETATM   18  C   UNL     1      -8.899  14.385  69.310  1.00  0.00     0.193 A  
HETATM   19  C   UNL     1      -7.678  15.011  69.575  1.00  0.00    -0.168 A  
BRANCH   7  20
HETATM   20  O   UNL     1     -12.003  14.336  69.485  1.00  0.00    -0.299 OA 
BRANCH  20  21
HETATM   21  C   UNL     1     -12.520  15.551  70.080  1.00  0.00    -0.261 C  
HETATM   22  C   UNL     1     -13.769  15.275  70.919  1.00  0.00    -0.363 C  
HETATM   23  N   UNL     1     -12.375  14.905  72.979  1.00  0.00    -0.350 NA 
HETATM   24  C   UNL     1     -13.435  14.380  72.113  1.00  0.00    -0.417 C  
HETATM   25  C   UNL     1     -12.834  15.990  73.839  1.00  0.00    -0.528 C  
HETATM   26  C   UNL     1     -11.172  15.253  72.210  1.00  0.00    -0.150 C  
HETATM   27  C   UNL     1     -11.435  16.141  70.988  1.00  0.00    -0.424 C  
ENDBRANCH  20  21
ENDBRANCH   7  20
ENDBRANCH   3   4
ENDBRANCH   2   3
TORSDOF 4
ENDMDL
MODEL       22
REMARK 921   NORMALIZED FREE ENERGY PREDICTED BY IDOCK:   -5.39 KCAL/MOL
REMARK 922        TOTAL FREE ENERGY PREDICTED BY IDOCK:   -7.96 KCAL/MOL
REMARK 923 INTER-LIGAND FREE ENERGY PREDICTED BY IDOCK:   -6.81 KCAL/MOL
REMARK 924 INTRA-LIGAND FREE ENERGY PREDICTED BY IDOCK:   -1.15 KCAL/MOL
REMARK 927      BINDING AFFINITY PREDICTED BY RF-SCORE:    0.00 PKD
ROOT
HETATM    1  C   UNL     1      -6.703  12.085  68.902  1.00  0.00    -0.093 C  
HETATM    2  C   UNL     1      -6.501  10.656  69.395  1.00  0.00    -0.067 C  
ENDROOT
BRANCH   2   3
HETATM    3  C   UNL     1      -7.818  10.100  69.924  1.00  0.00    -0.151 C  
BRANCH   3   4
HETATM    4  O   UNL     1      -8.929  10.847  69.431  1.00  0.00    -0.049 OA 
HETATM    5  C   UNL     1     -10.092  10.062  69.000  1.00  0.00    -0.200 C  
HETATM    6  C   UNL     1     -10.594   9.235  70.236  1.00  0.00    -0.278 A  
HETATM    7  C   UNL     1     -11.195  11.109  68.492  1.00  0.00    -0.258 C  
HETATM    8  C   UNL     1      -9.730   9.221  67.725  1.00  0.00    -0.182 A  
HETATM    9  C   UNL     1     -11.569   9.718  71.124  1.00  0.00    -0.469 A  
HETATM   10  C   UNL     1     -10.473   7.196  71.625  1.00  0.00    -0.218 A  
HETATM   11  C   UNL     1     -10.048   7.859  67.575  1.00  0.00    -0.276 A  
HETATM   12  O   UNL     1     -12.410  10.930  68.503  1.00  0.00    -0.490 OA 
HETATM   13  C   UNL     1      -9.580   7.109  66.496  1.00  0.00    -0.203 A  
HETATM   14  C   UNL     1     -10.015   7.981  70.570  1.00  0.00    -0.193 A  
HETATM   15  C   UNL     1     -12.020   8.939  72.201  1.00  0.00    -0.419 A  
HETATM   16  C   UNL     1     -11.495   7.666  72.432  1.00  0.00    -0.392 A  
HETATM   17  C   UNL     1      -8.899   7.734  65.460  1.00  0.00    -0.048 A  
HETATM   18  C   UNL     1      -9.075   9.839  66.641  1.00  0.00    -0.174 A  
HETATM   19  C   UNL     1      -8.688   9.109  65.514  1.00  0.00    -0.210 A  
BRANCH   7  20
HETATM   20  O   UNL     1     -10.612  12.219  67.920  1.00  0.00    -0.202 OA 
BRANCH  20  21
HETATM   21  C   UNL     1     -11.201  12.757  66.711  1.00  0.00    -0.295 C  
HETATM   22  C   UNL     1     -12.103  13.955  67.015  1.00  0.00    -0.451 C  
HETATM   23  N   UNL     1     -10.176  15.549  66.741  1.00  0.00    -0.273 NA 
HETATM   24  C   UNL     1     -11.290  15.115  67.590  1.00  0.00    -0.321 C  
HETATM   25  C   UNL     1     -10.615  16.340  65.597  1.00  0.00    -0.346 C  
HETATM   26  C   UNL     1      -9.316  14.420  66.362  1.00  0.00    -0.258 C  
HETATM   27  C   UNL     1     -10.067  13.215  65.787  1.00  0.00    -0.290 C  
ENDBRANCH  20  21
ENDBRANCH   7  20
ENDBRANCH   3   4
ENDBRANCH   2   3
TORSDOF 4
ENDMDL
MODEL       23
REMARK 921   NORMALIZED FREE ENERGY PREDICTED BY IDOCK:   -5.38 KCAL/MOL
REMARK 922        TOTAL FREE ENERGY PREDICTED BY IDOCK:   -7.94 KCAL/MOL
REMARK 923 INTER-LIGAND FREE ENERGY PREDICTED BY IDOCK:   -6.61 KCAL/MOL
REMARK 924 INTRA-LIGAND FREE ENERGY PREDICTED BY IDOCK:   -1.33 KCAL/MOL
REMARK 927      BINDING AFFINITY PREDICTED BY RF-SCORE:    0.00 PKD
ROOT
HETATM    1  C   UNL     1      -5.722  10.862  67.245  1.00  0.00    -0.049 C  
HETATM    2  C   UNL     1      -6.253  11.741  68.373  1.00  0.00    -0.050 C  
ENDROOT
BRANCH   2   3
HETATM    3  C   UNL     1      -7.339  10.998  69.142  1.00  0.00    -0.121 C  
BRANCH   3   4
HETATM    4  O   UNL     1      -8.630  11.533  68.858  1.00  0.00    -0.093 OA 
HETATM    5  C   UNL     1      -9.674  10.554  68.530  1.00  0.00    -0.165 C  
HETATM    6  C   UNL     1      -9.825   9.587  69.757  1.00  0.00    -0.236 A  
HETATM    7  C   UNL     1     -11.017  11.384  68.251  1.00  0.00    -0.216 C  
HETATM    8  C   UNL     1      -9.347   9.862  67.158  1.00  0.00    -0.170 A  
HETATM    9  C   UNL     1     -10.735   9.825  70.799  1.00  0.00    -0.393 A  
HETATM   10  C   UNL     1      -9.119   7.550  70.962  1.00  0.00    -0.148 A  
HETATM   11  C   UNL     1      -9.420   8.472  66.952  1.00  0.00    -0.237 A  
HETATM   12  O   UNL     1     -12.161  10.967  68.410  1.00  0.00    -0.586 OA 
HETATM   13  C   UNL     1      -8.979   7.880  65.767  1.00  0.00    -0.125 A  
HETATM   14  C   UNL     1      -8.976   8.458  69.917  1.00  0.00    -0.142 A  
HETATM   15  C   UNL     1     -10.868   8.923  71.867  1.00  0.00    -0.433 A  
HETATM   16  C   UNL     1     -10.084   7.770  71.931  1.00  0.00    -0.231 A  
HETATM   17  C   UNL     1      -8.587   8.675  64.700  1.00  0.00    -0.116 A  
HETATM   18  C   UNL     1      -8.985  10.646  66.046  1.00  0.00    -0.189 A  
HETATM   19  C   UNL     1      -8.635  10.061  64.826  1.00  0.00    -0.188 A  
BRANCH   7  20
HETATM   20  O   UNL     1     -10.744  12.613  67.691  1.00  0.00    -0.213 OA 
BRANCH  20  21
HETATM   21  C   UNL     1     -11.844  13.370  67.130  1.00  0.00    -0.382 C  
HETATM   22  C   UNL     1     -11.681  14.868  67.389  1.00  0.00    -0.311 C  
HETATM   23  N   UNL     1     -10.424  15.165  65.231  1.00  0.00    -0.385 NA 
HETATM   24  C   UNL     1     -10.443  15.412  66.676  1.00  0.00    -0.293 C  
HETATM   25  C   UNL     1     -11.317  16.054  64.495  1.00  0.00    -0.295 C  
HETATM   26  C   UNL     1     -10.647  13.746  64.923  1.00  0.00    -0.413 C  
HETATM   27  C   UNL     1     -11.869  13.131  65.615  1.00  0.00    -0.430 C  
ENDBRANCH  20  21
ENDBRANCH   7  20
ENDBRANCH   3   4
ENDBRANCH   2   3
TORSDOF 4
ENDMDL
MODEL       24
REMARK 921   NORMALIZED FREE ENERGY PREDICTED BY IDOCK:   -5.24 KCAL/MOL
REMARK 922        TOTAL FREE ENERGY PREDICTED BY IDOCK:   -7.77 KCAL/MOL
REMARK 923 INTER-LIGAND FREE ENERGY PREDICTED BY IDOCK:   -6.57 KCAL/MOL
REMARK 924 INTRA-LIGAND FREE ENERGY PREDICTED BY IDOCK:   -1.19 KCAL/MOL
REMARK 927      BINDING AFFINITY PREDICTED BY RF-SCORE:    0.00 PKD
ROOT
HETATM    1  C   UNL     1     -10.561   7.636  66.974  1.00  0.00    -0.406 C  
HETATM    2  C   UNL     1     -11.115   6.353  67.585  1.00  0.00    -0.388 C  
ENDROOT
BRANCH   2   3
HETATM    3  C   UNL     1     -10.975   6.398  69.102  1.00  0.00    -0.355 C  
BRANCH   3   4
HETATM    4  O   UNL     1      -9.823   7.144  69.491  1.00  0.00    -0.160 OA 
HETATM    5  C   UNL     1      -9.864   7.737  70.834  1.00  0.00    -0.175 C  
HETATM    6  C   UNL     1     -10.039   6.569  71.867  1.00  0.00    -0.200 A  
HETATM    7  C   UNL     1      -8.479   8.517  71.038  1.00  0.00    -0.156 C  
HETATM    8  C   UNL     1     -10.961   8.861  70.890  1.00  0.00    -0.325 A  
HETATM    9  C   UNL     1      -8.947   5.920  72.466  1.00  0.00    -0.132 A  
HETATM   10  C   UNL     1     -11.518   5.051  73.134  1.00  0.00    -0.362 A  
HETATM   11  C   UNL     1     -11.901   8.978  71.930  1.00  0.00    -0.447 A  
HETATM   12  O   UNL     1      -7.929   8.728  72.116  1.00  0.00    -0.331 OA 
HETATM   13  C   UNL     1     -12.952   9.895  71.871  1.00  0.00    -0.545 A  
HETATM   14  C   UNL     1     -11.322   6.047  72.182  1.00  0.00    -0.351 A  
HETATM   15  C   UNL     1      -9.138   4.900  73.411  1.00  0.00    -0.117 A  
HETATM   16  C   UNL     1     -10.423   4.488  73.769  1.00  0.00    -0.292 A  
HETATM   17  C   UNL     1     -13.008  10.819  70.838  1.00  0.00    -0.385 A  
HETATM   18  C   UNL     1     -11.017   9.837  69.876  1.00  0.00    -0.299 A  
HETATM   19  C   UNL     1     -12.013  10.817  69.865  1.00  0.00    -0.418 A  
BRANCH   7  20
HETATM   20  O   UNL     1      -8.012   9.038  69.851  1.00  0.00    -0.089 OA 
BRANCH  20  21
HETATM   21  C   UNL     1      -7.202  10.238  69.900  1.00  0.00    -0.159 C  
HETATM   22  C   UNL     1      -5.747   9.944  69.530  1.00  0.00    -0.037 C  
HETATM   23  N   UNL     1      -6.212  10.403  67.101  1.00  0.00    -0.061 NA 
HETATM   24  C   UNL     1      -5.640   9.473  68.079  1.00  0.00    -0.040 C  
HETATM   25  C   UNL     1      -5.357  11.559  66.856  1.00  0.00    -0.118 C  
HETATM   26  C   UNL     1      -7.590  10.773  67.450  1.00  0.00    -0.099 C  
HETATM   27  C   UNL     1      -7.774  11.246  68.896  1.00  0.00    -0.125 C  
ENDBRANCH  20  21
ENDBRANCH   7  20
ENDBRANCH   3   4
ENDBRANCH   2   3
TORSDOF 4
ENDMDL
MODEL       25
REMARK 921   NORMALIZED FREE ENERGY PREDICTED BY IDOCK:   -5.18 KCAL/MOL
REMARK 922        TOTAL FREE ENERGY PREDICTED BY IDOCK:   -7.69 KCAL/MOL
REMARK 923 INTER-LIGAND FREE ENERGY PREDICTED BY IDOCK:   -6.34 KCAL/MOL
REMARK 924 INTRA-LIGAND FREE ENERGY PREDICTED BY IDOCK:   -1.35 KCAL/MOL
REMARK 927      BINDING AFFINITY PREDICTED BY RF-SCORE:    0.00 PKD
ROOT
HETATM    1  C   UNL     1      -8.157  13.641  67.560  1.00  0.00    -0.190 C  
HETATM    2  C   UNL     1      -7.693  12.397  68.311  1.00  0.00    -0.140 C  
ENDROOT
BRANCH   2   3
HETATM    3  C   UNL     1      -7.608  11.215  67.353  1.00  0.00    -0.113 C  
BRANCH   3   4
HETATM    4  O   UNL     1      -8.521  10.183  67.725  1.00  0.00    -0.114 OA 
HETATM    5  C   UNL     1      -9.446   9.734  66.678  1.00  0.00    -0.171 C  
HETATM    6  C   UNL     1      -8.587   9.192  65.481  1.00  0.00    -0.192 A  
HETATM    7  C   UNL     1     -10.359   8.588  67.328  1.00  0.00    -0.302 C  
HETATM    8  C   UNL     1     -10.453  10.885  66.323  1.00  0.00    -0.304 A  
HETATM    9  C   UNL     1      -8.211   7.844  65.370  1.00  0.00    -0.139 A  
HETATM   10  C   UNL     1      -7.352   9.614  63.385  1.00  0.00    -0.119 A  
HETATM   11  C   UNL     1     -10.770  11.262  65.004  1.00  0.00    -0.322 A  
HETATM   12  O   UNL     1     -10.895   7.667  66.716  1.00  0.00    -0.274 OA 
HETATM   13  C   UNL     1     -11.551  12.385  64.728  1.00  0.00    -0.395 A  
HETATM   14  C   UNL     1      -8.069  10.067  64.489  1.00  0.00    -0.156 A  
HETATM   15  C   UNL     1      -7.470   7.385  64.270  1.00  0.00    -0.098 A  
HETATM   16  C   UNL     1      -7.068   8.264  63.262  1.00  0.00    -0.090 A  
HETATM   17  C   UNL     1     -12.157  13.080  65.765  1.00  0.00    -0.510 A  
HETATM   18  C   UNL     1     -11.114  11.582  67.353  1.00  0.00    -0.339 A  
HETATM   19  C   UNL     1     -11.974  12.648  67.075  1.00  0.00    -0.330 A  
BRANCH   7  20
HETATM   20  O   UNL     1     -10.579   8.816  68.669  1.00  0.00    -0.208 OA 
BRANCH  20  21
HETATM   21  C   UNL     1     -10.537   7.685  69.573  1.00  0.00    -0.227 C  
HETATM   22  C   UNL     1      -9.108   7.390  70.032  1.00  0.00    -0.148 C  
HETATM   23  N   UNL     1      -9.366   8.917  72.014  1.00  0.00    -0.370 NA 
HETATM   24  C   UNL     1      -8.549   8.553  70.852  1.00  0.00    -0.158 C  
HETATM   25  C   UNL     1      -9.219   7.981  73.122  1.00  0.00    -0.279 C  
HETATM   26  C   UNL     1     -10.768   9.144  71.637  1.00  0.00    -0.371 C  
HETATM   27  C   UNL     1     -11.391   8.020  70.802  1.00  0.00    -0.282 C  
ENDBRANCH  20  21
ENDBRANCH   7  20
ENDBRANCH   3   4
ENDBRANCH   2   3
TORSDOF 4
ENDMDL
MODEL       26
REMARK 921   NORMALIZED FREE ENERGY PREDICTED BY IDOCK:   -5.16 KCAL/MOL
REMARK 922        TOTAL FREE ENERGY PREDICTED BY IDOCK:   -7.67 KCAL/MOL
REMARK 923 INTER-LIGAND FREE ENERGY PREDICTED BY IDOCK:   -6.37 KCAL/MOL
REMARK 924 INTRA-LIGAND FREE ENERGY PREDICTED BY IDOCK:   -1.30 KCAL/MOL
REMARK 927      BINDING AFFINITY PREDICTED BY RF-SCORE:    0.00 PKD
ROOT
HETATM    1  C   UNL     1      -8.756  15.313  66.653  1.00  0.00    -0.327 C  
HETATM    2  C   UNL     1      -7.910  14.325  67.449  1.00  0.00    -0.207 C  
ENDROOT
BRANCH   2   3
HETATM    3  C   UNL     1      -8.807  13.267  68.082  1.00  0.00    -0.187 C  
BRANCH   3   4
HETATM    4  O   UNL     1      -8.641  12.002  67.444  1.00  0.00    -0.156 OA 
HETATM    5  C   UNL     1      -9.876  11.272  67.135  1.00  0.00    -0.190 C  
HETATM    6  C   UNL     1     -10.738  12.171  66.180  1.00  0.00    -0.307 A  
HETATM    7  C   UNL     1      -9.439   9.899  66.432  1.00  0.00    -0.183 C  
HETATM    8  C   UNL     1     -10.582  10.825  68.465  1.00  0.00    -0.223 A  
HETATM    9  C   UNL     1     -10.646  12.095  64.781  1.00  0.00    -0.335 A  
HETATM   10  C   UNL     1     -12.418  13.957  65.879  1.00  0.00    -0.519 A  
HETATM   11  C   UNL     1     -11.958  10.990  68.708  1.00  0.00    -0.295 A  
HETATM   12  O   UNL     1     -10.115   9.259  65.630  1.00  0.00    -0.215 OA 
HETATM   13  C   UNL     1     -12.522  10.720  69.956  1.00  0.00    -0.317 A  
HETATM   14  C   UNL     1     -11.598  13.180  66.693  1.00  0.00    -0.403 A  
HETATM   15  C   UNL     1     -11.455  12.891  63.955  1.00  0.00    -0.478 A  
HETATM   16  C   UNL     1     -12.363  13.798  64.504  1.00  0.00    -0.399 A  
HETATM   17  C   UNL     1     -11.751  10.141  70.954  1.00  0.00    -0.468 A  
HETATM   18  C   UNL     1      -9.833  10.198  69.480  1.00  0.00    -0.255 A  
HETATM   19  C   UNL     1     -10.416   9.838  70.698  1.00  0.00    -0.358 A  
BRANCH   7  20
HETATM   20  O   UNL     1      -8.235   9.441  66.922  1.00  0.00    -0.114 OA 
BRANCH  20  21
HETATM   21  C   UNL     1      -7.891   8.051  66.706  1.00  0.00    -0.103 C  
HETATM   22  C   UNL     1      -6.393   7.881  66.447  1.00  0.00    -0.046 C  
HETATM   23  N   UNL     1      -5.943   7.571  68.902  1.00  0.00    -0.029 NA 
HETATM   24  C   UNL     1      -5.579   8.287  67.675  1.00  0.00    -0.039 C  
HETATM   25  C   UNL     1      -5.428   6.207  68.932  1.00  0.00    -0.008 C  
HETATM   26  C   UNL     1      -7.388   7.645  69.160  1.00  0.00    -0.089 C  
HETATM   27  C   UNL     1      -8.267   7.261  67.965  1.00  0.00    -0.120 C  
ENDBRANCH  20  21
ENDBRANCH   7  20
ENDBRANCH   3   4
ENDBRANCH   2   3
TORSDOF 4
ENDMDL
MODEL       27
REMARK 921   NORMALIZED FREE ENERGY PREDICTED BY IDOCK:   -5.16 KCAL/MOL
REMARK 922        TOTAL FREE ENERGY PREDICTED BY IDOCK:   -7.66 KCAL/MOL
REMARK 923 INTER-LIGAND FREE ENERGY PREDICTED BY IDOCK:   -6.32 KCAL/MOL
REMARK 924 INTRA-LIGAND FREE ENERGY PREDICTED BY IDOCK:   -1.34 KCAL/MOL
REMARK 927      BINDING AFFINITY PREDICTED BY RF-SCORE:    0.00 PKD
ROOT
HETATM    1  C   UNL     1      -6.695  11.617  66.843  1.00  0.00    -0.124 C  
HETATM    2  C   UNL     1      -6.691  11.309  68.337  1.00  0.00    -0.061 C  
ENDROOT
BRANCH   2   3
HETATM    3  C   UNL     1      -8.111  11.025  68.812  1.00  0.00    -0.145 C  
BRANCH   3   4
HETATM    4  O   UNL     1      -8.509   9.695  68.481  1.00  0.00    -0.116 OA 
HETATM    5  C   UNL     1      -9.899   9.532  68.036  1.00  0.00    -0.155 C  
HETATM    6  C   UNL     1     -10.097  10.415  66.754  1.00  0.00    -0.267 A  
HETATM    7  C   UNL     1     -10.106   7.972  67.728  1.00  0.00    -0.195 C  
HETATM    8  C   UNL     1     -10.881   9.832  69.225  1.00  0.00    -0.240 A  
HETATM    9  C   UNL     1      -9.893   9.921  65.456  1.00  0.00    -0.381 A  
HETATM   10  C   UNL     1     -10.649  12.597  65.736  1.00  0.00    -0.296 A  
HETATM   11  C   UNL     1     -12.021  10.648  69.104  1.00  0.00    -0.230 A  
HETATM   12  O   UNL     1     -10.910   7.502  66.927  1.00  0.00    -0.345 OA 
HETATM   13  C   UNL     1     -12.784  11.013  70.214  1.00  0.00    -0.256 A  
HETATM   14  C   UNL     1     -10.411  11.798  66.851  1.00  0.00    -0.256 A  
HETATM   15  C   UNL     1     -10.111  10.728  64.328  1.00  0.00    -0.427 A  
HETATM   16  C   UNL     1     -10.521  12.055  64.468  1.00  0.00    -0.341 A  
HETATM   17  C   UNL     1     -12.513  10.456  71.455  1.00  0.00    -0.508 A  
HETATM   18  C   UNL     1     -10.654   9.248  70.486  1.00  0.00    -0.309 A  
HETATM   19  C   UNL     1     -11.475   9.537  71.580  1.00  0.00    -0.466 A  
BRANCH   7  20
HETATM   20  O   UNL     1      -9.343   7.187  68.564  1.00  0.00    -0.138 OA 
BRANCH  20  21
HETATM   21  C   UNL     1      -9.647   5.772  68.643  1.00  0.00    -0.127 C  
HETATM   22  C   UNL     1      -8.380   4.938  68.836  1.00  0.00    -0.082 C  
HETATM   23  N   UNL     1      -8.591   5.086  71.338  1.00  0.00    -0.124 NA 
HETATM   24  C   UNL     1      -7.715   5.259  70.174  1.00  0.00    -0.072 C  
HETATM   25  C   UNL     1      -8.783   3.685  71.695  1.00  0.00    -0.090 C  
HETATM   26  C   UNL     1      -9.857   5.814  71.172  1.00  0.00    -0.180 C  
HETATM   27  C   UNL     1     -10.574   5.548  69.844  1.00  0.00    -0.387 C  
ENDBRANCH  20  21
ENDBRANCH   7  20
ENDBRANCH   3   4
ENDBRANCH   2   3
TORSDOF 4
ENDMDL
MODEL       28
REMARK 921   NORMALIZED FREE ENERGY PREDICTED BY IDOCK:   -5.15 KCAL/MOL
REMARK 922        TOTAL FREE ENERGY PREDICTED BY IDOCK:   -7.65 KCAL/MOL
REMARK 923 INTER-LIGAND FREE ENERGY PREDICTED BY IDOCK:   -7.11 KCAL/MOL
REMARK 924 INTRA-LIGAND FREE ENERGY PREDICTED BY IDOCK:   -0.55 KCAL/MOL
REMARK 927      BINDING AFFINITY PREDICTED BY RF-SCORE:    0.00 PKD
ROOT
HETATM    1  C   UNL     1      -9.288  14.859  66.257  1.00  0.00    -0.329 C  
HETATM    2  C   UNL     1      -9.004  14.097  67.547  1.00  0.00    -0.198 C  
ENDROOT
BRANCH   2   3
HETATM    3  C   UNL     1      -8.429  12.723  67.222  1.00  0.00    -0.194 C  
BRANCH   3   4
HETATM    4  O   UNL     1      -9.284  11.682  67.692  1.00  0.00    -0.170 OA 
HETATM    5  C   UNL     1      -9.684  10.680  66.697  1.00  0.00    -0.184 C  
HETATM    6  C   UNL     1      -8.379  10.004  66.147  1.00  0.00    -0.121 A  
HETATM    7  C   UNL     1     -10.631   9.630  67.452  1.00  0.00    -0.268 C  
HETATM    8  C   UNL     1     -10.613  11.340  65.615  1.00  0.00    -0.303 A  
HETATM    9  C   UNL     1      -7.830   8.845  66.717  1.00  0.00    -0.097 A  
HETATM   10  C   UNL     1      -6.503   9.990  64.540  1.00  0.00    -0.130 A  
HETATM   11  C   UNL     1     -10.451  11.149  64.231  1.00  0.00    -0.427 A  
HETATM   12  O   UNL     1     -10.781   8.450  67.142  1.00  0.00    -0.291 OA 
HETATM   13  C   UNL     1     -11.198  11.868  63.297  1.00  0.00    -0.382 A  
HETATM   14  C   UNL     1      -7.633  10.590  65.089  1.00  0.00    -0.046 A  
HETATM   15  C   UNL     1      -6.678   8.246  66.181  1.00  0.00    -0.054 A  
HETATM   16  C   UNL     1      -6.035   8.801  65.073  1.00  0.00    -0.059 A  
HETATM   17  C   UNL     1     -12.229  12.694  63.723  1.00  0.00    -0.600 A  
HETATM   18  C   UNL     1     -11.692  12.150  66.018  1.00  0.00    -0.388 A  
HETATM   19  C   UNL     1     -12.504  12.797  65.083  1.00  0.00    -0.565 A  
BRANCH   7  20
HETATM   20  O   UNL     1     -11.366  10.236  68.447  1.00  0.00    -0.256 OA 
BRANCH  20  21
HETATM   21  C   UNL     1     -10.769  10.363  69.761  1.00  0.00    -0.278 C  
HETATM   22  C   UNL     1     -11.811  10.748  70.813  1.00  0.00    -0.443 C  
HETATM   23  N   UNL     1     -12.293   8.329  71.306  1.00  0.00    -0.291 NA 
HETATM   24  C   UNL     1     -12.854   9.642  70.975  1.00  0.00    -0.262 C  
HETATM   25  C   UNL     1     -11.877   8.229  72.700  1.00  0.00    -0.315 C  
HETATM   26  C   UNL     1     -11.235   7.941  70.363  1.00  0.00    -0.234 C  
HETATM   27  C   UNL     1     -10.158   9.010  70.143  1.00  0.00    -0.220 C  
ENDBRANCH  20  21
ENDBRANCH   7  20
ENDBRANCH   3   4
ENDBRANCH   2   3
TORSDOF 4
ENDMDL
MODEL       29
REMARK 921   NORMALIZED FREE ENERGY PREDICTED BY IDOCK:   -5.09 KCAL/MOL
REMARK 922        TOTAL FREE ENERGY PREDICTED BY IDOCK:   -7.58 KCAL/MOL
REMARK 923 INTER-LIGAND FREE ENERGY PREDICTED BY IDOCK:   -6.86 KCAL/MOL
REMARK 924 INTRA-LIGAND FREE ENERGY PREDICTED BY IDOCK:   -0.72 KCAL/MOL
REMARK 927      BINDING AFFINITY PREDICTED BY RF-SCORE:    0.00 PKD
ROOT
HETATM    1  C   UNL     1     -11.531  13.260  63.920  1.00  0.00    -0.409 C  
HETATM    2  C   UNL     1     -12.422  14.290  64.608  1.00  0.00    -0.371 C  
ENDROOT
BRANCH   2   3
HETATM    3  C   UNL     1     -12.321  14.134  66.121  1.00  0.00    -0.436 C  
BRANCH   3   4
HETATM    4  O   UNL     1     -11.047  14.562  66.599  1.00  0.00    -0.318 OA 
HETATM    5  C   UNL     1     -10.457  13.752  67.672  1.00  0.00    -0.242 C  
HETATM    6  C   UNL     1     -10.288  12.290  67.129  1.00  0.00    -0.234 A  
HETATM    7  C   UNL     1      -9.047  14.423  68.037  1.00  0.00    -0.188 C  
HETATM    8  C   UNL     1     -11.312  13.894  68.982  1.00  0.00    -0.324 A  
HETATM    9  C   UNL     1      -9.114  11.848  66.499  1.00  0.00    -0.211 A  
HETATM   10  C   UNL     1     -11.228  10.037  66.749  1.00  0.00     0.347 A  
HETATM   11  C   UNL     1     -11.705  12.800  69.775  1.00  0.00    -0.352 A  
HETATM   12  O   UNL     1      -8.075  13.835  68.504  1.00  0.00    -0.144 OA 
HETATM   13  C   UNL     1     -12.588  12.949  70.846  1.00  0.00    -0.355 A  
HETATM   14  C   UNL     1     -11.360  11.358  67.170  1.00  0.00    -0.327 A  
HETATM   15  C   UNL     1      -8.983  10.523  66.053  1.00  0.00    -0.185 A  
HETATM   16  C   UNL     1     -10.027   9.610  66.208  1.00  0.00    -0.335 A  
HETATM   17  C   UNL     1     -12.989  14.217  71.243  1.00  0.00    -0.422 A  
HETATM   18  C   UNL     1     -11.699  15.171  69.432  1.00  0.00    -0.355 A  
HETATM   19  C   UNL     1     -12.506  15.331  70.562  1.00  0.00    -0.454 A  
BRANCH   7  20
HETATM   20  O   UNL     1      -9.081  15.790  67.873  1.00  0.00    -0.184 OA 
BRANCH  20  21
HETATM   21  C   UNL     1      -8.873  16.626  69.038  1.00  0.00    -0.201 C  
HETATM   22  C   UNL     1      -7.424  16.555  69.525  1.00  0.00     0.042 C  
HETATM   23  N   UNL     1      -6.775  18.496  68.063  1.00  0.00    -0.213 NA 
HETATM   24  C   UNL     1      -6.469  17.122  68.475  1.00  0.00    -0.164 C  
HETATM   25  C   UNL     1      -6.373  19.485  69.056  1.00  0.00    -0.286 C  
HETATM   26  C   UNL     1      -8.179  18.635  67.650  1.00  0.00    -0.258 C  
HETATM   27  C   UNL     1      -9.194  18.075  68.653  1.00  0.00    -0.276 C  
ENDBRANCH  20  21
ENDBRANCH   7  20
ENDBRANCH   3   4
ENDBRANCH   2   3
TORSDOF 4
ENDMDL
MODEL       30
REMARK 921   NORMALIZED FREE ENERGY PREDICTED BY IDOCK:   -4.98 KCAL/MOL
REMARK 922        TOTAL FREE ENERGY PREDICTED BY IDOCK:   -7.44 KCAL/MOL
REMARK 923 INTER-LIGAND FREE ENERGY PREDICTED BY IDOCK:   -6.50 KCAL/MOL
REMARK 924 INTRA-LIGAND FREE ENERGY PREDICTED BY IDOCK:   -0.94 KCAL/MOL
REMARK 927      BINDING AFFINITY PREDICTED BY RF-SCORE:    0.00 PKD
ROOT
HETATM    1  C   UNL     1     -12.251   9.021  71.929  1.00  0.00    -0.451 C  
HETATM    2  C   UNL     1     -12.229   9.863  70.658  1.00  0.00    -0.325 C  
ENDROOT
BRANCH   2   3
HETATM    3  C   UNL     1     -10.794  10.254  70.321  1.00  0.00    -0.286 C  
BRANCH   3   4
HETATM    4  O   UNL     1     -10.623  10.420  68.914  1.00  0.00    -0.190 OA 
HETATM    5  C   UNL     1      -9.557   9.621  68.297  1.00  0.00    -0.140 C  
HETATM    6  C   UNL     1      -9.883   8.108  68.556  1.00  0.00    -0.190 A  
HETATM    7  C   UNL     1      -9.558   9.977  66.734  1.00  0.00    -0.181 C  
HETATM    8  C   UNL     1      -8.156  10.110  68.811  1.00  0.00    -0.111 A  
HETATM    9  C   UNL     1     -10.633   7.332  67.658  1.00  0.00    -0.316 A  
HETATM   10  C   UNL     1      -9.730   6.115  70.005  1.00  0.00    -0.195 A  
HETATM   11  C   UNL     1      -7.142   9.238  69.251  1.00  0.00    -0.057 A  
HETATM   12  O   UNL     1      -9.184   9.232  65.831  1.00  0.00    -0.185 OA 
HETATM   13  C   UNL     1      -5.970   9.713  69.841  1.00  0.00    -0.041 A  
HETATM   14  C   UNL     1      -9.506   7.468  69.767  1.00  0.00    -0.156 A  
HETATM   15  C   UNL     1     -10.880   5.972  67.903  1.00  0.00    -0.378 A  
HETATM   16  C   UNL     1     -10.400   5.356  69.060  1.00  0.00    -0.282 A  
HETATM   17  C   UNL     1      -5.714  11.077  69.875  1.00  0.00    -0.072 A  
HETATM   18  C   UNL     1      -7.852  11.486  68.820  1.00  0.00    -0.117 A  
HETATM   19  C   UNL     1      -6.637  11.959  69.322  1.00  0.00    -0.110 A  
BRANCH   7  20
HETATM   20  O   UNL     1      -9.928  11.285  66.513  1.00  0.00    -0.202 OA 
BRANCH  20  21
HETATM   21  C   UNL     1     -11.280  11.550  66.065  1.00  0.00    -0.178 C  
HETATM   22  C   UNL     1     -11.868  12.779  66.761  1.00  0.00    -0.452 C  
HETATM   23  N   UNL     1     -11.010  14.291  64.944  1.00  0.00    -0.383 NA 
HETATM   24  C   UNL     1     -11.091  14.040  66.386  1.00  0.00    -0.316 C  
HETATM   25  C   UNL     1     -12.255  14.817  64.394  1.00  0.00    -0.428 C  
HETATM   26  C   UNL     1     -10.515  13.114  64.218  1.00  0.00    -0.389 C  
HETATM   27  C   UNL     1     -11.244  11.808  64.554  1.00  0.00    -0.368 C  
ENDBRANCH  20  21
ENDBRANCH   7  20
ENDBRANCH   3   4
ENDBRANCH   2   3
TORSDOF 4
ENDMDL
MODEL       31
REMARK 921   NORMALIZED FREE ENERGY PREDICTED BY IDOCK:   -4.91 KCAL/MOL
REMARK 922        TOTAL FREE ENERGY PREDICTED BY IDOCK:   -7.36 KCAL/MOL
REMARK 923 INTER-LIGAND FREE ENERGY PREDICTED BY IDOCK:   -6.27 KCAL/MOL
REMARK 924 INTRA-LIGAND FREE ENERGY PREDICTED BY IDOCK:   -1.09 KCAL/MOL
REMARK 927      BINDING AFFINITY PREDICTED BY RF-SCORE:    0.00 PKD
ROOT
HETATM    1  C   UNL     1     -12.148  10.093  70.476  1.00  0.00    -0.380 C  
HETATM    2  C   UNL     1     -12.024  11.561  70.079  1.00  0.00    -0.435 C  
ENDROOT
BRANCH   2   3
HETATM    3  C   UNL     1     -11.786  11.674  68.578  1.00  0.00    -0.292 C  
BRANCH   3   4
HETATM    4  O   UNL     1     -10.392  11.665  68.274  1.00  0.00    -0.186 OA 
HETATM    5  C   UNL     1      -9.911  12.764  67.427  1.00  0.00    -0.212 C  
HETATM    6  C   UNL     1     -10.223  14.111  68.170  1.00  0.00    -0.241 A  
HETATM    7  C   UNL     1      -8.337  12.539  67.227  1.00  0.00    -0.185 C  
HETATM    8  C   UNL     1     -10.515  12.631  65.983  1.00  0.00    -0.288 A  
HETATM    9  C   UNL     1      -9.308  14.723  69.041  1.00  0.00    -0.160 A  
HETATM   10  C   UNL     1     -11.785  15.959  68.662  1.00  0.00    -0.328 A  
HETATM   11  C   UNL     1     -11.085  13.706  65.277  1.00  0.00    -0.307 A  
HETATM   12  O   UNL     1      -7.510  13.421  67.011  1.00  0.00    -0.005 OA 
HETATM   13  C   UNL     1     -11.745  13.519  64.062  1.00  0.00    -0.440 A  
HETATM   14  C   UNL     1     -11.494  14.737  68.063  1.00  0.00    -0.351 A  
HETATM   15  C   UNL     1      -9.604  15.945  69.665  1.00  0.00    -0.177 A  
HETATM   16  C   UNL     1     -10.829  16.579  69.449  1.00  0.00    -0.311 A  
HETATM   17  C   UNL     1     -11.727  12.276  63.447  1.00  0.00    -0.542 A  
HETATM   18  C   UNL     1     -10.475  11.390  65.318  1.00  0.00    -0.340 A  
HETATM   19  C   UNL     1     -11.051  11.222  64.056  1.00  0.00    -0.316 A  
BRANCH   7  20
HETATM   20  O   UNL     1      -8.016  11.199  67.211  1.00  0.00    -0.126 OA 
BRANCH  20  21
HETATM   21  C   UNL     1      -6.850  10.764  67.954  1.00  0.00    -0.072 C  
HETATM   22  C   UNL     1      -7.162  10.612  69.444  1.00  0.00    -0.126 C  
HETATM   23  N   UNL     1      -7.810   8.203  69.121  1.00  0.00    -0.105 NA 
HETATM   24  C   UNL     1      -8.193   9.506  69.673  1.00  0.00    -0.141 C  
HETATM   25  C   UNL     1      -6.804   7.522  69.930  1.00  0.00    -0.047 C  
HETATM   26  C   UNL     1      -7.432   8.306  67.705  1.00  0.00    -0.094 C  
HETATM   27  C   UNL     1      -6.408   9.405  67.400  1.00  0.00    -0.062 C  
ENDBRANCH  20  21
ENDBRANCH   7  20
ENDBRANCH   3   4
ENDBRANCH   2   3
TORSDOF 4
ENDMDL
MODEL       32
REMARK 921   NORMALIZED FREE ENERGY PREDICTED BY IDOCK:   -4.91 KCAL/MOL
REMARK 922        TOTAL FREE ENERGY PREDICTED BY IDOCK:   -7.36 KCAL/MOL
REMARK 923 INTER-LIGAND FREE ENERGY PREDICTED BY IDOCK:   -6.30 KCAL/MOL
REMARK 924 INTRA-LIGAND FREE ENERGY PREDICTED BY IDOCK:   -1.06 KCAL/MOL
REMARK 927      BINDING AFFINITY PREDICTED BY RF-SCORE:    0.00 PKD
ROOT
HETATM    1  C   UNL     1      -5.913   9.265  69.864  1.00  0.00    -0.035 C  
HETATM    2  C   UNL     1      -6.917  10.374  70.160  1.00  0.00    -0.146 C  
ENDROOT
BRANCH   2   3
HETATM    3  C   UNL     1      -7.917  10.488  69.015  1.00  0.00    -0.136 C  
BRANCH   3   4
HETATM    4  O   UNL     1      -8.466   9.214  68.681  1.00  0.00    -0.124 OA 
HETATM    5  C   UNL     1      -9.853   9.217  68.200  1.00  0.00    -0.164 C  
HETATM    6  C   UNL     1      -9.909  10.106  66.909  1.00  0.00    -0.244 A  
HETATM    7  C   UNL     1     -10.241   7.691  67.896  1.00  0.00    -0.198 C  
HETATM    8  C   UNL     1     -10.821   9.645  69.360  1.00  0.00    -0.239 A  
HETATM    9  C   UNL     1      -9.733   9.578  65.619  1.00  0.00    -0.361 A  
HETATM   10  C   UNL     1     -10.163  12.329  65.863  1.00  0.00    -0.274 A  
HETATM   11  C   UNL     1     -11.849  10.593  69.204  1.00  0.00    -0.287 A  
HETATM   12  O   UNL     1     -11.075   7.315  67.077  1.00  0.00    -0.308 OA 
HETATM   13  C   UNL     1     -12.591  11.059  70.291  1.00  0.00    -0.321 A  
HETATM   14  C   UNL     1     -10.054  11.517  66.989  1.00  0.00    -0.237 A  
HETATM   15  C   UNL     1      -9.821  10.396  64.481  1.00  0.00    -0.405 A  
HETATM   16  C   UNL     1     -10.069  11.764  64.602  1.00  0.00    -0.310 A  
HETATM   17  C   UNL     1     -12.422  10.484  71.543  1.00  0.00    -0.493 A  
HETATM   18  C   UNL     1     -10.700   9.050  70.631  1.00  0.00    -0.292 A  
HETATM   19  C   UNL     1     -11.507   9.447  71.700  1.00  0.00    -0.463 A  
BRANCH   7  20
HETATM   20  O   UNL     1      -9.601   6.826  68.756  1.00  0.00    -0.134 OA 
BRANCH  20  21
HETATM   21  C   UNL     1     -10.239   5.560  69.056  1.00  0.00    -0.228 C  
HETATM   22  C   UNL     1      -9.380   4.380  68.601  1.00  0.00    -0.206 C  
HETATM   23  N   UNL     1      -8.224   4.284  70.833  1.00  0.00    -0.077 NA 
HETATM   24  C   UNL     1      -8.063   4.334  69.376  1.00  0.00    -0.059 C  
HETATM   25  C   UNL     1      -8.625   2.965  71.310  1.00  0.00    -0.064 C  
HETATM   26  C   UNL     1      -9.101   5.359  71.316  1.00  0.00    -0.142 C  
HETATM   27  C   UNL     1     -10.437   5.470  70.574  1.00  0.00    -0.347 C  
ENDBRANCH  20  21
ENDBRANCH   7  20
ENDBRANCH   3   4
ENDBRANCH   2   3
TORSDOF 4
ENDMDL
MODEL       33
REMARK 921   NORMALIZED FREE ENERGY PREDICTED BY IDOCK:   -4.90 KCAL/MOL
REMARK 922        TOTAL FREE ENERGY PREDICTED BY IDOCK:   -7.35 KCAL/MOL
REMARK 923 INTER-LIGAND FREE ENERGY PREDICTED BY IDOCK:   -6.77 KCAL/MOL
REMARK 924 INTRA-LIGAND FREE ENERGY PREDICTED BY IDOCK:   -0.58 KCAL/MOL
REMARK 927      BINDING AFFINITY PREDICTED BY RF-SCORE:    0.00 PKD
ROOT
HETATM    1  C   UNL     1     -11.801  13.333  64.521  1.00  0.00    -0.433 C  
HETATM    2  C   UNL     1     -12.939  13.726  65.457  1.00  0.00    -0.363 C  
ENDROOT
BRANCH   2   3
HETATM    3  C   UNL     1     -12.436  13.771  66.895  1.00  0.00    -0.152 C  
BRANCH   3   4
HETATM    4  O   UNL     1     -11.512  12.714  67.151  1.00  0.00    -0.305 OA 
HETATM    5  C   UNL     1     -10.698  12.851  68.365  1.00  0.00    -0.255 C  
HETATM    6  C   UNL     1     -11.675  12.928  69.590  1.00  0.00    -0.367 A  
HETATM    7  C   UNL     1      -9.750  11.560  68.434  1.00  0.00    -0.202 C  
HETATM    8  C   UNL     1      -9.707  14.060  68.211  1.00  0.00    -0.225 A  
HETATM    9  C   UNL     1     -12.086  11.790  70.303  1.00  0.00    -0.426 A  
HETATM   10  C   UNL     1     -13.094  14.272  71.101  1.00  0.00    -0.412 A  
HETATM   11  C   UNL     1      -9.508  15.033  69.208  1.00  0.00    -0.171 A  
HETATM   12  O   UNL     1      -9.292  11.063  69.460  1.00  0.00     0.074 OA 
HETATM   13  C   UNL     1      -8.735  16.172  68.978  1.00  0.00    -0.254 A  
HETATM   14  C   UNL     1     -12.268  14.157  69.986  1.00  0.00    -0.418 A  
HETATM   15  C   UNL     1     -12.936  11.897  71.415  1.00  0.00    -0.385 A  
HETATM   16  C   UNL     1     -13.413  13.141  71.833  1.00  0.00    -0.513 A  
HETATM   17  C   UNL     1      -8.021  16.299  67.795  1.00  0.00    -0.154 A  
HETATM   18  C   UNL     1      -8.939  14.192  67.038  1.00  0.00    -0.251 A  
HETATM   19  C   UNL     1      -8.089  15.285  66.844  1.00  0.00    -0.224 A  
BRANCH   7  20
HETATM   20  O   UNL     1      -9.401  11.121  67.176  1.00  0.00    -0.163 OA 
BRANCH  20  21
HETATM   21  C   UNL     1     -10.271  10.168  66.516  1.00  0.00    -0.223 C  
HETATM   22  C   UNL     1      -9.689   9.715  65.176  1.00  0.00    -0.287 C  
HETATM   23  N   UNL     1      -8.489   7.799  66.278  1.00  0.00    -0.133 NA 
HETATM   24  C   UNL     1      -8.379   8.954  65.381  1.00  0.00    -0.148 C  
HETATM   25  C   UNL     1      -9.131   6.653  65.644  1.00  0.00     0.110 C  
HETATM   26  C   UNL     1      -9.108   8.167  67.559  1.00  0.00    -0.137 C  
HETATM   27  C   UNL     1     -10.422   8.945  67.428  1.00  0.00    -0.347 C  
ENDBRANCH  20  21
ENDBRANCH   7  20
ENDBRANCH   3   4
ENDBRANCH   2   3
TORSDOF 4
ENDMDL
MODEL       34
REMARK 921   NORMALIZED FREE ENERGY PREDICTED BY IDOCK:   -4.81 KCAL/MOL
REMARK 922        TOTAL FREE ENERGY PREDICTED BY IDOCK:   -7.23 KCAL/MOL
REMARK 923 INTER-LIGAND FREE ENERGY PREDICTED BY IDOCK:   -6.03 KCAL/MOL
REMARK 924 INTRA-LIGAND FREE ENERGY PREDICTED BY IDOCK:   -1.20 KCAL/MOL
REMARK 927      BINDING AFFINITY PREDICTED BY RF-SCORE:    0.00 PKD
ROOT
HETATM    1  C   UNL     1     -11.643  10.113  71.170  1.00  0.00    -0.430 C  
HETATM    2  C   UNL     1     -11.106   8.754  71.608  1.00  0.00    -0.398 C  
ENDROOT
BRANCH   2   3
HETATM    3  C   UNL     1     -10.581   7.989  70.398  1.00  0.00    -0.224 C  
BRANCH   3   4
HETATM    4  O   UNL     1     -10.705   8.763  69.206  1.00  0.00    -0.221 OA 
HETATM    5  C   UNL     1      -9.690   8.522  68.174  1.00  0.00    -0.155 C  
HETATM    6  C   UNL     1      -9.774   7.009  67.764  1.00  0.00    -0.156 A  
HETATM    7  C   UNL     1     -10.034   9.496  66.949  1.00  0.00    -0.216 C  
HETATM    8  C   UNL     1      -8.285   9.008  68.681  1.00  0.00    -0.118 A  
HETATM    9  C   UNL     1     -10.584   6.555  66.711  1.00  0.00    -0.323 A  
HETATM   10  C   UNL     1      -9.105   4.661  68.137  1.00  0.00    -0.148 A  
HETATM   11  C   UNL     1      -7.108   8.247  68.560  1.00  0.00    -0.077 A  
HETATM   12  O   UNL     1      -9.754   9.289  65.770  1.00  0.00    -0.278 OA 
HETATM   13  C   UNL     1      -5.910   8.646  69.154  1.00  0.00    -0.039 A  
HETATM   14  C   UNL     1      -9.096   6.004  68.505  1.00  0.00    -0.112 A  
HETATM   15  C   UNL     1     -10.612   5.199  66.348  1.00  0.00    -0.336 A  
HETATM   16  C   UNL     1      -9.848   4.258  67.040  1.00  0.00    -0.216 A  
HETATM   17  C   UNL     1      -5.819   9.888  69.765  1.00  0.00    -0.042 A  
HETATM   18  C   UNL     1      -8.154  10.282  69.269  1.00  0.00    -0.156 A  
HETATM   19  C   UNL     1      -6.931  10.725  69.780  1.00  0.00    -0.141 A  
BRANCH   7  20
HETATM   20  O   UNL     1     -10.595  10.676  67.383  1.00  0.00    -0.222 OA 
BRANCH  20  21
HETATM   21  C   UNL     1     -10.641  11.794  66.463  1.00  0.00    -0.253 C  
HETATM   22  C   UNL     1     -11.909  12.627  66.658  1.00  0.00    -0.449 C  
HETATM   23  N   UNL     1     -10.752  14.103  68.335  1.00  0.00    -0.249 NA 
HETATM   24  C   UNL     1     -11.926  13.275  68.043  1.00  0.00    -0.313 C  
HETATM   25  C   UNL     1     -10.792  15.395  67.660  1.00  0.00    -0.304 C  
HETATM   26  C   UNL     1      -9.502  13.369  68.096  1.00  0.00    -0.218 C  
HETATM   27  C   UNL     1      -9.420  12.683  66.727  1.00  0.00    -0.237 C  
ENDBRANCH  20  21
ENDBRANCH   7  20
ENDBRANCH   3   4
ENDBRANCH   2   3
TORSDOF 4
ENDMDL
MODEL       35
REMARK 921   NORMALIZED FREE ENERGY PREDICTED BY IDOCK:   -4.80 KCAL/MOL
REMARK 922        TOTAL FREE ENERGY PREDICTED BY IDOCK:   -7.22 KCAL/MOL
REMARK 923 INTER-LIGAND FREE ENERGY PREDICTED BY IDOCK:   -6.03 KCAL/MOL
REMARK 924 INTRA-LIGAND FREE ENERGY PREDICTED BY IDOCK:   -1.19 KCAL/MOL
REMARK 927      BINDING AFFINITY PREDICTED BY RF-SCORE:    0.00 PKD
ROOT
HETATM    1  C   UNL     1      -9.790   7.105  66.800  1.00  0.00    -0.272 C  
HETATM    2  C   UNL     1     -10.443   6.331  67.940  1.00  0.00    -0.285 C  
ENDROOT
BRANCH   2   3
HETATM    3  C   UNL     1     -11.145   7.298  68.888  1.00  0.00     0.070 C  
BRANCH   3   4
HETATM    4  O   UNL     1     -11.136   6.805  70.227  1.00  0.00    -0.268 OA 
HETATM    5  C   UNL     1     -10.572   7.705  71.240  1.00  0.00    -0.219 C  
HETATM    6  C   UNL     1     -11.419   9.026  71.231  1.00  0.00    -0.390 A  
HETATM    7  C   UNL     1     -10.669   6.939  72.645  1.00  0.00    -0.244 C  
HETATM    8  C   UNL     1      -9.031   7.887  70.996  1.00  0.00    -0.152 A  
HETATM    9  C   UNL     1     -12.538   9.212  72.058  1.00  0.00    -0.463 A  
HETATM   10  C   UNL     1     -11.839  11.280  70.313  1.00  0.00    -0.446 A  
HETATM   11  C   UNL     1      -8.384   9.136  71.011  1.00  0.00    -0.205 A  
HETATM   12  O   UNL     1     -10.755   7.475  73.747  1.00  0.00    -0.315 OA 
HETATM   13  C   UNL     1      -7.045   9.275  70.643  1.00  0.00    -0.111 A  
HETATM   14  C   UNL     1     -11.144  10.074  70.311  1.00  0.00    -0.381 A  
HETATM   15  C   UNL     1     -13.256  10.419  72.049  1.00  0.00    -0.497 A  
HETATM   16  C   UNL     1     -12.886  11.464  71.200  1.00  0.00    -0.440 A  
HETATM   17  C   UNL     1      -6.275   8.148  70.389  1.00  0.00    -0.035 A  
HETATM   18  C   UNL     1      -8.218   6.758  70.776  1.00  0.00    -0.123 A  
HETATM   19  C   UNL     1      -6.853   6.887  70.501  1.00  0.00    -0.058 A  
BRANCH   7  20
HETATM   20  O   UNL     1     -10.528   5.578  72.490  1.00  0.00    -0.198 OA 
BRANCH  20  21
HETATM   21  C   UNL     1     -10.386   4.763  73.679  1.00  0.00    -0.206 C  
HETATM   22  C   UNL     1     -10.987   3.371  73.477  1.00  0.00    -0.328 C  
HETATM   23  N   UNL     1      -8.787   2.477  72.647  1.00  0.00    -0.073 NA 
HETATM   24  C   UNL     1     -10.226   2.602  72.396  1.00  0.00    -0.145 C  
HETATM   25  C   UNL     1      -8.476   1.480  73.666  1.00  0.00    -0.053 C  
HETATM   26  C   UNL     1      -8.172   3.784  72.917  1.00  0.00    -0.090 C  
HETATM   27  C   UNL     1      -8.891   4.616  73.984  1.00  0.00    -0.107 C  
ENDBRANCH  20  21
ENDBRANCH   7  20
ENDBRANCH   3   4
ENDBRANCH   2   3
TORSDOF 4
ENDMDL
MODEL       36
REMARK 921   NORMALIZED FREE ENERGY PREDICTED BY IDOCK:   -4.80 KCAL/MOL
REMARK 922        TOTAL FREE ENERGY PREDICTED BY IDOCK:   -7.22 KCAL/MOL
REMARK 923 INTER-LIGAND FREE ENERGY PREDICTED BY IDOCK:   -5.99 KCAL/MOL
REMARK 924 INTRA-LIGAND FREE ENERGY PREDICTED BY IDOCK:   -1.23 KCAL/MOL
REMARK 927      BINDING AFFINITY PREDICTED BY RF-SCORE:    0.00 PKD
ROOT
HETATM    1  C   UNL     1      -9.303   6.029  66.154  1.00  0.00    -0.140 C  
HETATM    2  C   UNL     1     -10.560   5.524  66.856  1.00  0.00    -0.348 C  
ENDROOT
BRANCH   2   3
HETATM    3  C   UNL     1     -10.857   6.391  68.074  1.00  0.00    -0.316 C  
BRANCH   3   4
HETATM    4  O   UNL     1     -10.230   7.668  67.964  1.00  0.00    -0.186 OA 
HETATM    5  C   UNL     1      -9.423   8.090  69.114  1.00  0.00    -0.155 C  
HETATM    6  C   UNL     1      -8.288   7.026  69.318  1.00  0.00    -0.129 A  
HETATM    7  C   UNL     1      -8.832   9.537  68.759  1.00  0.00    -0.132 C  
HETATM    8  C   UNL     1     -10.350   8.338  70.358  1.00  0.00    -0.214 A  
HETATM    9  C   UNL     1      -7.025   7.142  68.715  1.00  0.00    -0.082 A  
HETATM   10  C   UNL     1      -7.517   4.898  70.307  1.00  0.00    -0.058 A  
HETATM   11  C   UNL     1     -10.069   7.850  71.647  1.00  0.00    -0.228 A  
HETATM   12  O   UNL     1      -7.787  10.011  69.200  1.00  0.00    -0.093 OA 
HETATM   13  C   UNL     1     -10.988   7.961  72.691  1.00  0.00    -0.440 A  
HETATM   14  C   UNL     1      -8.516   5.836  70.060  1.00  0.00    -0.124 A  
HETATM   15  C   UNL     1      -6.020   6.189  68.944  1.00  0.00    -0.024 A  
HETATM   16  C   UNL     1      -6.256   5.085  69.766  1.00  0.00    -0.026 A  
HETATM   17  C   UNL     1     -12.154   8.692  72.514  1.00  0.00    -0.368 A  
HETATM   18  C   UNL     1     -11.520   9.110  70.217  1.00  0.00    -0.174 A  
HETATM   19  C   UNL     1     -12.397   9.305  71.288  1.00  0.00    -0.403 A  
BRANCH   7  20
HETATM   20  O   UNL     1      -9.702  10.259  67.972  1.00  0.00    -0.147 OA 
BRANCH  20  21
HETATM   21  C   UNL     1      -9.448  11.674  67.789  1.00  0.00    -0.178 C  
HETATM   22  C   UNL     1      -9.687  12.102  66.340  1.00  0.00    -0.243 C  
HETATM   23  N   UNL     1     -12.095  12.635  66.832  1.00  0.00    -0.499 NA 
HETATM   24  C   UNL     1     -11.157  11.927  65.957  1.00  0.00    -0.322 C  
HETATM   25  C   UNL     1     -12.133  14.070  66.575  1.00  0.00    -0.459 C  
HETATM   26  C   UNL     1     -11.862  12.312  68.247  1.00  0.00    -0.310 C  
HETATM   27  C   UNL     1     -10.405  12.455  68.699  1.00  0.00    -0.198 C  
ENDBRANCH  20  21
ENDBRANCH   7  20
ENDBRANCH   3   4
ENDBRANCH   2   3
TORSDOF 4
ENDMDL
MODEL       37
REMARK 921   NORMALIZED FREE ENERGY PREDICTED BY IDOCK:   -4.73 KCAL/MOL
REMARK 922        TOTAL FREE ENERGY PREDICTED BY IDOCK:   -7.14 KCAL/MOL
REMARK 923 INTER-LIGAND FREE ENERGY PREDICTED BY IDOCK:   -5.85 KCAL/MOL
REMARK 924 INTRA-LIGAND FREE ENERGY PREDICTED BY IDOCK:   -1.29 KCAL/MOL
REMARK 927      BINDING AFFINITY PREDICTED BY RF-SCORE:    0.00 PKD
ROOT
HETATM    1  C   UNL     1      -7.317   8.547  71.593  1.00  0.00    -0.118 C  
HETATM    2  C   UNL     1      -7.099   9.893  70.909  1.00  0.00     0.124 C  
ENDROOT
BRANCH   2   3
HETATM    3  C   UNL     1      -7.791   9.902  69.551  1.00  0.00    -0.140 C  
BRANCH   3   4
HETATM    4  O   UNL     1      -8.960  10.721  69.574  1.00  0.00    -0.047 OA 
HETATM    5  C   UNL     1     -10.116  10.213  68.825  1.00  0.00    -0.187 C  
HETATM    6  C   UNL     1     -10.505   8.820  69.434  1.00  0.00    -0.228 A  
HETATM    7  C   UNL     1     -11.289  11.291  68.997  1.00  0.00    -0.278 C  
HETATM    8  C   UNL     1      -9.801  10.215  67.286  1.00  0.00    -0.226 A  
HETATM    9  C   UNL     1     -11.441   8.683  70.472  1.00  0.00    -0.208 A  
HETATM   10  C   UNL     1     -10.215   6.368  69.499  1.00  0.00    -0.228 A  
HETATM   11  C   UNL     1     -10.073   9.128  66.436  1.00  0.00    -0.345 A  
HETATM   12  O   UNL     1     -12.493  11.053  68.947  1.00  0.00    -0.460 OA 
HETATM   13  C   UNL     1      -9.644   9.108  65.108  1.00  0.00     0.000 A  
HETATM   14  C   UNL     1      -9.856   7.625  69.021  1.00  0.00    -0.168 A  
HETATM   15  C   UNL     1     -11.791   7.419  70.973  1.00  0.00    -0.336 A  
HETATM   16  C   UNL     1     -11.202   6.260  70.464  1.00  0.00    -0.420 A  
HETATM   17  C   UNL     1      -9.055  10.235  64.553  1.00  0.00    -0.270 A  
HETATM   18  C   UNL     1      -9.240  11.360  66.687  1.00  0.00    -0.191 A  
HETATM   19  C   UNL     1      -8.896  11.377  65.333  1.00  0.00     0.018 A  
BRANCH   7  20
HETATM   20  O   UNL     1     -10.788  12.571  69.096  1.00  0.00    -0.189 OA 
BRANCH  20  21
HETATM   21  C   UNL     1     -11.593  13.664  68.588  1.00  0.00    -0.329 C  
HETATM   22  C   UNL     1     -12.020  14.611  69.710  1.00  0.00    -0.378 C  
HETATM   23  N   UNL     1      -9.964  16.022  69.383  1.00  0.00    -0.254 NA 
HETATM   24  C   UNL     1     -10.805  15.294  70.338  1.00  0.00    -0.266 C  
HETATM   25  C   UNL     1     -10.548  17.294  68.973  1.00  0.00    -0.247 C  
HETATM   26  C   UNL     1      -9.581  15.174  68.246  1.00  0.00    -0.211 C  
HETATM   27  C   UNL     1     -10.752  14.447  67.573  1.00  0.00    -0.271 C  
ENDBRANCH  20  21
ENDBRANCH   7  20
ENDBRANCH   3   4
ENDBRANCH   2   3
TORSDOF 4
ENDMDL
MODEL       38
REMARK 921   NORMALIZED FREE ENERGY PREDICTED BY IDOCK:   -4.65 KCAL/MOL
REMARK 922        TOTAL FREE ENERGY PREDICTED BY IDOCK:   -7.03 KCAL/MOL
REMARK 923 INTER-LIGAND FREE ENERGY PREDICTED BY IDOCK:   -6.27 KCAL/MOL
REMARK 924 INTRA-LIGAND FREE ENERGY PREDICTED BY IDOCK:   -0.77 KCAL/MOL
REMARK 927      BINDING AFFINITY PREDICTED BY RF-SCORE:    0.00 PKD
ROOT
HETATM    1  C   UNL     1      -8.208  15.262  67.071  1.00  0.00    -0.267 C  
HETATM    2  C   UNL     1      -7.604  14.081  67.825  1.00  0.00    -0.177 C  
ENDROOT
BRANCH   2   3
HETATM    3  C   UNL     1      -8.710  13.135  68.279  1.00  0.00    -0.165 C  
BRANCH   3   4
HETATM    4  O   UNL     1      -8.657  11.901  67.565  1.00  0.00    -0.147 OA 
HETATM    5  C   UNL     1      -9.949  11.258  67.297  1.00  0.00    -0.183 C  
HETATM    6  C   UNL     1     -10.813  12.256  66.448  1.00  0.00    -0.299 A  
HETATM    7  C   UNL     1      -9.635   9.905  66.496  1.00  0.00    -0.190 C  
HETATM    8  C   UNL     1     -10.598  10.776  68.644  1.00  0.00    -0.226 A  
HETATM    9  C   UNL     1     -10.811  12.253  65.044  1.00  0.00    -0.337 A  
HETATM   10  C   UNL     1     -12.401  14.144  66.349  1.00  0.00    -0.431 A  
HETATM   11  C   UNL     1     -11.945  11.001  68.982  1.00  0.00    -0.364 A  
HETATM   12  O   UNL     1     -10.394   9.349  65.706  1.00  0.00    -0.139 OA 
HETATM   13  C   UNL     1     -12.446  10.692  70.247  1.00  0.00    -0.381 A  
HETATM   14  C   UNL     1     -11.581  13.279  67.067  1.00  0.00    -0.404 A  
HETATM   15  C   UNL     1     -11.621  13.138  64.315  1.00  0.00    -0.440 A  
HETATM   16  C   UNL     1     -12.440  14.061  64.967  1.00  0.00    -0.446 A  
HETATM   17  C   UNL     1     -11.651  10.017  71.162  1.00  0.00    -0.460 A  
HETATM   18  C   UNL     1      -9.826  10.053  69.574  1.00  0.00    -0.249 A  
HETATM   19  C   UNL     1     -10.354   9.657  70.806  1.00  0.00    -0.356 A  
BRANCH   7  20
HETATM   20  O   UNL     1      -8.433   9.355  66.883  1.00  0.00    -0.125 OA 
BRANCH  20  21
HETATM   21  C   UNL     1      -7.381   9.240  65.894  1.00  0.00    -0.094 C  
HETATM   22  C   UNL     1      -6.042   8.880  66.542  1.00  0.00    -0.060 C  
HETATM   23  N   UNL     1      -6.508   6.423  66.279  1.00  0.00    -0.042 NA 
HETATM   24  C   UNL     1      -6.106   7.498  67.191  1.00  0.00    -0.051 C  
HETATM   25  C   UNL     1      -5.436   6.020  65.376  1.00  0.00    -0.016 C  
HETATM   26  C   UNL     1      -7.757   6.750  65.576  1.00  0.00    -0.101 C  
HETATM   27  C   UNL     1      -7.767   8.130  64.910  1.00  0.00    -0.116 C  
ENDBRANCH  20  21
ENDBRANCH   7  20
ENDBRANCH   3   4
ENDBRANCH   2   3
TORSDOF 4
ENDMDL
MODEL       39
REMARK 921   NORMALIZED FREE ENERGY PREDICTED BY IDOCK:   -4.62 KCAL/MOL
REMARK 922        TOTAL FREE ENERGY PREDICTED BY IDOCK:   -7.00 KCAL/MOL
REMARK 923 INTER-LIGAND FREE ENERGY PREDICTED BY IDOCK:   -5.81 KCAL/MOL
REMARK 924 INTRA-LIGAND FREE ENERGY PREDICTED BY IDOCK:   -1.19 KCAL/MOL
REMARK 927      BINDING AFFINITY PREDICTED BY RF-SCORE:    0.00 PKD
ROOT
HETATM    1  C   UNL     1      -7.815  10.381  69.091  1.00  0.00    -0.134 C  
HETATM    2  C   UNL     1      -9.229  10.191  68.552  1.00  0.00    -0.144 C  
ENDROOT
BRANCH   2   3
HETATM    3  C   UNL     1     -10.100   9.519  69.607  1.00  0.00    -0.212 C  
BRANCH   3   4
HETATM    4  O   UNL     1     -10.052   8.099  69.487  1.00  0.00    -0.184 OA 
HETATM    5  C   UNL     1     -10.312   7.340  70.717  1.00  0.00    -0.202 C  
HETATM    6  C   UNL     1     -11.749   7.721  71.219  1.00  0.00    -0.311 A  
HETATM    7  C   UNL     1     -10.203   5.787  70.334  1.00  0.00    -0.224 C  
HETATM    8  C   UNL     1      -9.151   7.575  71.747  1.00  0.00    -0.146 A  
HETATM    9  C   UNL     1     -12.897   7.007  70.839  1.00  0.00    -0.172 A  
HETATM   10  C   UNL     1     -13.222   9.211  72.527  1.00  0.00    -0.464 A  
HETATM   11  C   UNL     1      -9.365   7.868  73.106  1.00  0.00    -0.337 A  
HETATM   12  O   UNL     1     -10.784   4.867  70.905  1.00  0.00    -0.085 OA 
HETATM   13  C   UNL     1      -8.315   8.218  73.957  1.00  0.00    -0.259 A  
HETATM   14  C   UNL     1     -11.971   8.875  72.019  1.00  0.00    -0.439 A  
HETATM   15  C   UNL     1     -14.165   7.354  71.332  1.00  0.00    -0.508 A  
HETATM   16  C   UNL     1     -14.323   8.436  72.201  1.00  0.00    -0.520 A  
HETATM   17  C   UNL     1      -7.004   8.144  73.507  1.00  0.00    -0.155 A  
HETATM   18  C   UNL     1      -7.810   7.466  71.329  1.00  0.00    -0.095 A  
HETATM   19  C   UNL     1      -6.752   7.723  72.205  1.00  0.00    -0.059 A  
BRANCH   7  20
HETATM   20  O   UNL     1      -9.273   5.575  69.341  1.00  0.00    -0.114 OA 
BRANCH  20  21
HETATM   21  C   UNL     1      -9.612   4.666  68.266  1.00  0.00    -0.149 C  
HETATM   22  C   UNL     1     -10.422   5.368  67.174  1.00  0.00    -0.298 C  
HETATM   23  N   UNL     1      -8.323   5.990  65.935  1.00  0.00    -0.132 NA 
HETATM   24  C   UNL     1      -9.592   6.460  66.500  1.00  0.00    -0.145 C  
HETATM   25  C   UNL     1      -8.498   5.261  64.684  1.00  0.00    -0.142 C  
HETATM   26  C   UNL     1      -7.535   5.245  66.927  1.00  0.00    -0.088 C  
HETATM   27  C   UNL     1      -8.309   4.139  67.653  1.00  0.00    -0.098 C  
ENDBRANCH  20  21
ENDBRANCH   7  20
ENDBRANCH   3   4
ENDBRANCH   2   3
TORSDOF 4
ENDMDL
MODEL       40
REMARK 921   NORMALIZED FREE ENERGY PREDICTED BY IDOCK:   -4.58 KCAL/MOL
REMARK 922        TOTAL FREE ENERGY PREDICTED BY IDOCK:   -6.95 KCAL/MOL
REMARK 923 INTER-LIGAND FREE ENERGY PREDICTED BY IDOCK:   -6.50 KCAL/MOL
REMARK 924 INTRA-LIGAND FREE ENERGY PREDICTED BY IDOCK:   -0.45 KCAL/MOL
REMARK 927      BINDING AFFINITY PREDICTED BY RF-SCORE:    0.00 PKD
ROOT
HETATM    1  C   UNL     1     -12.350  14.149  64.619  1.00  0.00    -0.432 C  
HETATM    2  C   UNL     1     -12.037  12.658  64.546  1.00  0.00    -0.485 C  
ENDROOT
BRANCH   2   3
HETATM    3  C   UNL     1     -10.697  12.376  65.217  1.00  0.00    -0.287 C  
BRANCH   3   4
HETATM    4  O   UNL     1     -10.840  11.433  66.278  1.00  0.00    -0.272 OA 
HETATM    5  C   UNL     1     -10.157  11.769  67.533  1.00  0.00    -0.192 C  
HETATM    6  C   UNL     1     -10.733  13.138  68.039  1.00  0.00    -0.248 A  
HETATM    7  C   UNL     1     -10.460  10.574  68.558  1.00  0.00    -0.188 C  
HETATM    8  C   UNL     1      -8.601  11.725  67.325  1.00  0.00    -0.162 A  
HETATM    9  C   UNL     1     -11.830  13.220  68.912  1.00  0.00    -0.367 A  
HETATM   10  C   UNL     1     -10.672  15.607  68.033  1.00  0.00    -0.287 A  
HETATM   11  C   UNL     1      -7.727  12.729  67.779  1.00  0.00    -0.152 A  
HETATM   12  O   UNL     1     -10.488  10.673  69.783  1.00  0.00    -0.222 OA 
HETATM   13  C   UNL     1      -6.372  12.730  67.446  1.00  0.00    -0.139 A  
HETATM   14  C   UNL     1     -10.223  14.376  67.563  1.00  0.00    -0.240 A  
HETATM   15  C   UNL     1     -12.301  14.460  69.372  1.00  0.00    -0.228 A  
HETATM   16  C   UNL     1     -11.702  15.651  68.958  1.00  0.00    -0.408 A  
HETATM   17  C   UNL     1      -5.823  11.650  66.769  1.00  0.00    -0.140 A  
HETATM   18  C   UNL     1      -8.011  10.621  66.677  1.00  0.00    -0.134 A  
HETATM   19  C   UNL     1      -6.637  10.574  66.426  1.00  0.00    -0.106 A  
BRANCH   7  20
HETATM   20  O   UNL     1     -10.577   9.366  67.907  1.00  0.00    -0.237 OA 
BRANCH  20  21
HETATM   21  C   UNL     1      -9.456   8.449  67.956  1.00  0.00    -0.143 C  
HETATM   22  C   UNL     1      -9.367   7.748  69.313  1.00  0.00    -0.148 C  
HETATM   23  N   UNL     1     -10.825   5.866  68.502  1.00  0.00    -0.269 NA 
HETATM   24  C   UNL     1     -10.592   6.864  69.550  1.00  0.00    -0.236 C  
HETATM   25  C   UNL     1      -9.910   4.733  68.590  1.00  0.00    -0.138 C  
HETATM   26  C   UNL     1     -10.850   6.480  67.167  1.00  0.00    -0.401 C  
HETATM   27  C   UNL     1      -9.654   7.390  66.865  1.00  0.00    -0.240 C  
ENDBRANCH  20  21
ENDBRANCH   7  20
ENDBRANCH   3   4
ENDBRANCH   2   3
TORSDOF 4
ENDMDL
MODEL       41
REMARK 921   NORMALIZED FREE ENERGY PREDICTED BY IDOCK:   -4.56 KCAL/MOL
REMARK 922        TOTAL FREE ENERGY PREDICTED BY IDOCK:   -6.92 KCAL/MOL
REMARK 923 INTER-LIGAND FREE ENERGY PREDICTED BY IDOCK:   -5.92 KCAL/MOL
REMARK 924 INTRA-LIGAND FREE ENERGY PREDICTED BY IDOCK:   -1.01 KCAL/MOL
REMARK 927      BINDING AFFINITY PREDICTED BY RF-SCORE:    0.00 PKD
ROOT
HETATM    1  C   UNL     1     -12.711   8.658  71.778  1.00  0.00    -0.401 C  
HETATM    2  C   UNL     1     -13.012   7.189  71.497  1.00  0.00    -0.431 C  
ENDROOT
BRANCH   2   3
HETATM    3  C   UNL     1     -11.867   6.568  70.706  1.00  0.00    -0.332 C  
BRANCH   3   4
HETATM    4  O   UNL     1     -11.196   7.547  69.915  1.00  0.00    -0.216 OA 
HETATM    5  C   UNL     1      -9.780   7.283  69.629  1.00  0.00    -0.159 C  
HETATM    6  C   UNL     1      -9.694   5.918  68.860  1.00  0.00    -0.168 A  
HETATM    7  C   UNL     1      -9.251   8.507  68.740  1.00  0.00    -0.142 C  
HETATM    8  C   UNL     1      -8.941   7.368  70.954  1.00  0.00    -0.149 A  
HETATM    9  C   UNL     1      -9.727   5.836  67.459  1.00  0.00    -0.128 A  
HETATM   10  C   UNL     1      -9.535   3.454  68.908  1.00  0.00    -0.201 A  
HETATM   11  C   UNL     1      -7.981   6.410  71.330  1.00  0.00    -0.112 A  
HETATM   12  O   UNL     1      -8.329   8.457  67.930  1.00  0.00    -0.128 OA 
HETATM   13  C   UNL     1      -7.365   6.438  72.582  1.00  0.00    -0.087 A  
HETATM   14  C   UNL     1      -9.667   4.679  69.555  1.00  0.00    -0.278 A  
HETATM   15  C   UNL     1      -9.616   4.601  66.801  1.00  0.00    -0.195 A  
HETATM   16  C   UNL     1      -9.486   3.414  67.524  1.00  0.00    -0.227 A  
HETATM   17  C   UNL     1      -7.585   7.508  73.438  1.00  0.00    -0.124 A  
HETATM   18  C   UNL     1      -9.113   8.463  71.824  1.00  0.00    -0.283 A  
HETATM   19  C   UNL     1      -8.425   8.543  73.038  1.00  0.00    -0.110 A  
BRANCH   7  20
HETATM   20  O   UNL     1      -9.886   9.684  69.071  1.00  0.00    -0.169 OA 
BRANCH  20  21
HETATM   21  C   UNL     1     -10.917  10.181  68.184  1.00  0.00    -0.259 C  
HETATM   22  C   UNL     1     -12.051  10.849  68.964  1.00  0.00    -0.240 C  
HETATM   23  N   UNL     1     -10.908  13.085  68.826  1.00  0.00    -0.254 NA 
HETATM   24  C   UNL     1     -11.548  12.093  69.695  1.00  0.00    -0.291 C  
HETATM   25  C   UNL     1     -11.870  13.854  68.045  1.00  0.00    -0.375 C  
HETATM   26  C   UNL     1      -9.854  12.478  68.001  1.00  0.00    -0.214 C  
HETATM   27  C   UNL     1     -10.286  11.217  67.246  1.00  0.00    -0.243 C  
ENDBRANCH  20  21
ENDBRANCH   7  20
ENDBRANCH   3   4
ENDBRANCH   2   3
TORSDOF 4
ENDMDL
MODEL       42
REMARK 921   NORMALIZED FREE ENERGY PREDICTED BY IDOCK:   -4.54 KCAL/MOL
REMARK 922        TOTAL FREE ENERGY PREDICTED BY IDOCK:   -6.90 KCAL/MOL
REMARK 923 INTER-LIGAND FREE ENERGY PREDICTED BY IDOCK:   -5.81 KCAL/MOL
REMARK 924 INTRA-LIGAND FREE ENERGY PREDICTED BY IDOCK:   -1.08 KCAL/MOL
REMARK 927      BINDING AFFINITY PREDICTED BY RF-SCORE:    0.00 PKD
ROOT
HETATM    1  C   UNL     1     -10.775   4.623  65.375  1.00  0.00    -0.143 C  
HETATM    2  C   UNL     1     -10.492   5.241  66.740  1.00  0.00    -0.330 C  
ENDROOT
BRANCH   2   3
HETATM    3  C   UNL     1     -10.820   6.730  66.714  1.00  0.00    -0.226 C  
BRANCH   3   4
HETATM    4  O   UNL     1     -10.773   7.291  68.024  1.00  0.00    -0.200 OA 
HETATM    5  C   UNL     1      -9.823   8.393  68.218  1.00  0.00    -0.169 C  
HETATM    6  C   UNL     1     -10.218   9.544  67.227  1.00  0.00    -0.295 A  
HETATM    7  C   UNL     1      -9.951   8.850  69.750  1.00  0.00    -0.191 C  
HETATM    8  C   UNL     1      -8.351   7.861  68.087  1.00  0.00    -0.124 A  
HETATM    9  C   UNL     1     -11.097  10.580  67.582  1.00  0.00    -0.375 A  
HETATM   10  C   UNL     1     -10.052  10.578  64.990  1.00  0.00    -0.390 A  
HETATM   11  C   UNL     1      -7.358   8.504  67.326  1.00  0.00    -0.088 A  
HETATM   12  O   UNL     1      -9.712   9.975  70.183  1.00  0.00    -0.233 OA 
HETATM   13  C   UNL     1      -6.106   7.924  67.111  1.00  0.00    -0.053 A  
HETATM   14  C   UNL     1      -9.768   9.545  65.879  1.00  0.00    -0.352 A  
HETATM   15  C   UNL     1     -11.404  11.613  66.683  1.00  0.00    -0.338 A  
HETATM   16  C   UNL     1     -10.856  11.629  65.399  1.00  0.00    -0.336 A  
HETATM   17  C   UNL     1      -5.763   6.752  67.770  1.00  0.00    -0.019 A  
HETATM   18  C   UNL     1      -7.963   6.696  68.777  1.00  0.00    -0.118 A  
HETATM   19  C   UNL     1      -6.678   6.164  68.640  1.00  0.00    -0.061 A  
BRANCH   7  20
HETATM   20  O   UNL     1     -10.257   7.787  70.570  1.00  0.00    -0.199 OA 
BRANCH  20  21
HETATM   21  C   UNL     1     -10.061   7.943  71.997  1.00  0.00    -0.202 C  
HETATM   22  C   UNL     1     -11.305   7.523  72.781  1.00  0.00    -0.388 C  
HETATM   23  N   UNL     1     -10.465   5.159  72.963  1.00  0.00    -0.194 NA 
HETATM   24  C   UNL     1     -11.585   6.032  72.598  1.00  0.00    -0.221 C  
HETATM   25  C   UNL     1     -10.307   5.018  74.406  1.00  0.00    -0.284 C  
HETATM   26  C   UNL     1      -9.224   5.564  72.288  1.00  0.00    -0.142 C  
HETATM   27  C   UNL     1      -8.886   7.053  72.421  1.00  0.00    -0.141 C  
ENDBRANCH  20  21
ENDBRANCH   7  20
ENDBRANCH   3   4
ENDBRANCH   2   3
TORSDOF 4
ENDMDL
MODEL       43
REMARK 921   NORMALIZED FREE ENERGY PREDICTED BY IDOCK:   -4.53 KCAL/MOL
REMARK 922        TOTAL FREE ENERGY PREDICTED BY IDOCK:   -6.88 KCAL/MOL
REMARK 923 INTER-LIGAND FREE ENERGY PREDICTED BY IDOCK:   -6.00 KCAL/MOL
REMARK 924 INTRA-LIGAND FREE ENERGY PREDICTED BY IDOCK:   -0.88 KCAL/MOL
REMARK 927      BINDING AFFINITY PREDICTED BY RF-SCORE:    0.00 PKD
ROOT
HETATM    1  C   UNL     1      -5.550  12.249  67.849  1.00  0.00    -0.075 C  
HETATM    2  C   UNL     1      -6.335  10.974  68.143  1.00  0.00    -0.056 C  
ENDROOT
BRANCH   2   3
HETATM    3  C   UNL     1      -7.589  10.926  67.278  1.00  0.00    -0.104 C  
BRANCH   3   4
HETATM    4  O   UNL     1      -8.696  11.536  67.940  1.00  0.00    -0.134 OA 
HETATM    5  C   UNL     1     -10.027  11.096  67.505  1.00  0.00    -0.181 C  
HETATM    6  C   UNL     1     -10.124   9.550  67.754  1.00  0.00    -0.244 A  
HETATM    7  C   UNL     1     -11.093  11.913  68.380  1.00  0.00    -0.244 C  
HETATM    8  C   UNL     1     -10.290  11.562  66.028  1.00  0.00    -0.290 A  
HETATM    9  C   UNL     1     -10.617   9.006  68.951  1.00  0.00    -0.203 A  
HETATM   10  C   UNL     1      -9.752   7.239  66.967  1.00  0.00    -0.235 A  
HETATM   11  C   UNL     1     -10.817  10.722  65.030  1.00  0.00    -0.055 A  
HETATM   12  O   UNL     1     -12.225  11.532  68.667  1.00  0.00    -0.492 OA 
HETATM   13  C   UNL     1     -10.896  11.126  63.696  1.00  0.00    -0.319 A  
HETATM   14  C   UNL     1      -9.631   8.616  66.804  1.00  0.00    -0.269 A  
HETATM   15  C   UNL     1     -10.721   7.618  69.130  1.00  0.00    -0.153 A  
HETATM   16  C   UNL     1     -10.319   6.736  68.126  1.00  0.00    -0.219 A  
HETATM   17  C   UNL     1     -10.585  12.432  63.348  1.00  0.00    -0.375 A  
HETATM   18  C   UNL     1     -10.022  12.894  65.655  1.00  0.00    -0.245 A  
HETATM   19  C   UNL     1     -10.191  13.328  64.338  1.00  0.00    -0.300 A  
BRANCH   7  20
HETATM   20  O   UNL     1     -10.632  13.174  68.691  1.00  0.00    -0.249 OA 
BRANCH  20  21
HETATM   21  C   UNL     1     -11.601  14.240  68.843  1.00  0.00    -0.305 C  
HETATM   22  C   UNL     1     -11.315  15.081  70.089  1.00  0.00    -0.303 C  
HETATM   23  N   UNL     1      -9.854  16.646  68.770  1.00  0.00    -0.241 NA 
HETATM   24  C   UNL     1      -9.973  15.802  69.963  1.00  0.00    -0.108 C  
HETATM   25  C   UNL     1     -10.589  17.900  68.891  1.00  0.00    -0.013 C  
HETATM   26  C   UNL     1     -10.186  15.903  67.547  1.00  0.00    -0.269 C  
HETATM   27  C   UNL     1     -11.517  15.145  67.607  1.00  0.00    -0.319 C  
ENDBRANCH  20  21
ENDBRANCH   7  20
ENDBRANCH   3   4
ENDBRANCH   2   3
TORSDOF 4
ENDMDL
MODEL       44
REMARK 921   NORMALIZED FREE ENERGY PREDICTED BY IDOCK:   -4.47 KCAL/MOL
REMARK 922        TOTAL FREE ENERGY PREDICTED BY IDOCK:   -6.81 KCAL/MOL
REMARK 923 INTER-LIGAND FREE ENERGY PREDICTED BY IDOCK:   -7.27 KCAL/MOL
REMARK 924 INTRA-LIGAND FREE ENERGY PREDICTED BY IDOCK:    0.46 KCAL/MOL
REMARK 927      BINDING AFFINITY PREDICTED BY RF-SCORE:    0.00 PKD
ROOT
HETATM    1  C   UNL     1     -12.307  13.856  71.210  1.00  0.00    -0.419 C  
HETATM    2  C   UNL     1     -12.051  15.344  70.995  1.00  0.00    -0.417 C  
ENDROOT
BRANCH   2   3
HETATM    3  C   UNL     1     -10.685  15.548  70.350  1.00  0.00    -0.320 C  
BRANCH   3   4
HETATM    4  O   UNL     1     -10.716  15.218  68.962  1.00  0.00    -0.225 OA 
HETATM    5  C   UNL     1      -9.525  15.585  68.186  1.00  0.00    -0.198 C  
HETATM    6  C   UNL     1      -8.295  14.844  68.818  1.00  0.00    -0.170 A  
HETATM    7  C   UNL     1      -9.795  15.121  66.676  1.00  0.00    -0.252 C  
HETATM    8  C   UNL     1      -9.403  17.149  68.101  1.00  0.00    -0.264 A  
HETATM    9  C   UNL     1      -7.872  13.577  68.385  1.00  0.00    -0.143 A  
HETATM   10  C   UNL     1      -6.469  14.783  70.481  1.00  0.00    -0.034 A  
HETATM   11  C   UNL     1      -8.205  17.849  68.333  1.00  0.00    -0.303 A  
HETATM   12  O   UNL     1      -8.932  14.814  65.857  1.00  0.00    -0.062 OA 
HETATM   13  C   UNL     1      -8.168  19.242  68.397  1.00  0.00    -0.383 A  
HETATM   14  C   UNL     1      -7.598  15.386  69.931  1.00  0.00     0.005 A  
HETATM   15  C   UNL     1      -6.747  12.955  68.950  1.00  0.00    -0.097 A  
HETATM   16  C   UNL     1      -6.027  13.572  69.975  1.00  0.00    -0.143 A  
HETATM   17  C   UNL     1      -9.301  19.981  68.086  1.00  0.00    -0.357 A  
HETATM   18  C   UNL     1     -10.527  17.922  67.749  1.00  0.00    -0.409 A  
HETATM   19  C   UNL     1     -10.468  19.318  67.718  1.00  0.00    -0.539 A  
BRANCH   7  20
HETATM   20  O   UNL     1     -11.130  15.212  66.350  1.00  0.00    -0.339 OA 
BRANCH  20  21
HETATM   21  C   UNL     1     -11.938  14.012  66.425  1.00  0.00    -0.438 C  
HETATM   22  C   UNL     1     -13.054  14.024  65.379  1.00  0.00    -0.215 C  
HETATM   23  N   UNL     1     -11.574  12.876  63.700  1.00  0.00    -0.476 NA 
HETATM   24  C   UNL     1     -12.475  14.003  63.965  1.00  0.00    -0.190 C  
HETATM   25  C   UNL     1     -12.287  11.620  63.496  1.00  0.00    -0.238 C  
HETATM   26  C   UNL     1     -10.520  12.778  64.719  1.00  0.00    -0.335 C  
HETATM   27  C   UNL     1     -11.030  12.804  66.165  1.00  0.00    -0.310 C  
ENDBRANCH  20  21
ENDBRANCH   7  20
ENDBRANCH   3   4
ENDBRANCH   2   3
TORSDOF 4
ENDMDL
MODEL       45
REMARK 921   NORMALIZED FREE ENERGY PREDICTED BY IDOCK:   -4.40 KCAL/MOL
REMARK 922        TOTAL FREE ENERGY PREDICTED BY IDOCK:   -6.73 KCAL/MOL
REMARK 923 INTER-LIGAND FREE ENERGY PREDICTED BY IDOCK:   -5.93 KCAL/MOL
REMARK 924 INTRA-LIGAND FREE ENERGY PREDICTED BY IDOCK:   -0.80 KCAL/MOL
REMARK 927      BINDING AFFINITY PREDICTED BY RF-SCORE:    0.00 PKD
ROOT
HETATM    1  C   UNL     1      -8.715  14.663  66.975  1.00  0.00    -0.258 C  
HETATM    2  C   UNL     1      -7.913  13.415  67.328  1.00  0.00    -0.130 C  
ENDROOT
BRANCH   2   3
HETATM    3  C   UNL     1      -8.749  12.493  68.209  1.00  0.00    -0.171 C  
BRANCH   3   4
HETATM    4  O   UNL     1      -8.678  11.142  67.755  1.00  0.00    -0.128 OA 
HETATM    5  C   UNL     1      -9.963  10.489  67.475  1.00  0.00    -0.172 C  
HETATM    6  C   UNL     1     -10.690  11.322  66.362  1.00  0.00    -0.320 A  
HETATM    7  C   UNL     1      -9.628   8.999  66.988  1.00  0.00    -0.176 C  
HETATM    8  C   UNL     1     -10.767  10.296  68.810  1.00  0.00    -0.247 A  
HETATM    9  C   UNL     1     -10.543  11.045  64.993  1.00  0.00    -0.315 A  
HETATM   10  C   UNL     1     -12.174  13.192  65.728  1.00  0.00    -0.514 A  
HETATM   11  C   UNL     1     -12.131  10.614  68.950  1.00  0.00    -0.014 A  
HETATM   12  O   UNL     1     -10.326   8.317  66.241  1.00  0.00    -0.134 OA 
HETATM   13  C   UNL     1     -12.773  10.571  70.188  1.00  0.00    -0.191 A  
HETATM   14  C   UNL     1     -11.471  12.464  66.685  1.00  0.00    -0.429 A  
HETATM   15  C   UNL     1     -11.234  11.789  64.023  1.00  0.00    -0.461 A  
HETATM   16  C   UNL     1     -12.074  12.840  64.393  1.00  0.00    -0.484 A  
HETATM   17  C   UNL     1     -12.107  10.069  71.297  1.00  0.00    -0.487 A  
HETATM   18  C   UNL     1     -10.128   9.751  69.941  1.00  0.00    -0.288 A  
HETATM   19  C   UNL     1     -10.798   9.616  71.161  1.00  0.00    -0.404 A  
BRANCH   7  20
HETATM   20  O   UNL     1      -8.498   8.508  67.603  1.00  0.00    -0.127 OA 
BRANCH  20  21
HETATM   21  C   UNL     1      -8.614   7.291  68.381  1.00  0.00    -0.124 C  
HETATM   22  C   UNL     1      -8.669   6.056  67.481  1.00  0.00    -0.107 C  
HETATM   23  N   UNL     1      -6.166   5.819  67.554  1.00  0.00    -0.029 NA 
HETATM   24  C   UNL     1      -7.361   5.888  66.707  1.00  0.00    -0.079 C  
HETATM   25  C   UNL     1      -6.016   4.527  68.213  1.00  0.00    -0.027 C  
HETATM   26  C   UNL     1      -6.101   6.951  68.489  1.00  0.00    -0.026 C  
HETATM   27  C   UNL     1      -7.385   7.185  69.292  1.00  0.00    -0.091 C  
ENDBRANCH  20  21
ENDBRANCH   7  20
ENDBRANCH   3   4
ENDBRANCH   2   3
TORSDOF 4
ENDMDL
MODEL       46
REMARK 921   NORMALIZED FREE ENERGY PREDICTED BY IDOCK:   -4.40 KCAL/MOL
REMARK 922        TOTAL FREE ENERGY PREDICTED BY IDOCK:   -6.73 KCAL/MOL
REMARK 923 INTER-LIGAND FREE ENERGY PREDICTED BY IDOCK:   -5.48 KCAL/MOL
REMARK 924 INTRA-LIGAND FREE ENERGY PREDICTED BY IDOCK:   -1.25 KCAL/MOL
REMARK 927      BINDING AFFINITY PREDICTED BY RF-SCORE:    0.00 PKD
ROOT
HETATM    1  C   UNL     1      -9.160  10.952  66.504  1.00  0.00    -0.183 C  
HETATM    2  C   UNL     1      -9.988   9.698  66.246  1.00  0.00    -0.335 C  
ENDROOT
BRANCH   2   3
HETATM    3  C   UNL     1     -10.660   9.245  67.537  1.00  0.00    -0.262 C  
BRANCH   3   4
HETATM    4  O   UNL     1     -10.296   7.905  67.864  1.00  0.00    -0.208 OA 
HETATM    5  C   UNL     1      -9.775   7.692  69.220  1.00  0.00    -0.164 C  
HETATM    6  C   UNL     1     -10.886   8.139  70.234  1.00  0.00    -0.244 A  
HETATM    7  C   UNL     1      -9.439   6.130  69.348  1.00  0.00    -0.138 C  
HETATM    8  C   UNL     1      -8.386   8.408  69.378  1.00  0.00    -0.120 A  
HETATM    9  C   UNL     1     -11.849   7.251  70.741  1.00  0.00    -0.324 A  
HETATM   10  C   UNL     1     -11.965   9.919  71.563  1.00  0.00    -0.473 A  
HETATM   11  C   UNL     1      -8.047   9.210  70.483  1.00  0.00    -0.182 A  
HETATM   12  O   UNL     1      -9.442   5.481  70.391  1.00  0.00    -0.154 OA 
HETATM   13  C   UNL     1      -6.863   9.950  70.518  1.00  0.00    -0.122 A  
HETATM   14  C   UNL     1     -11.027   9.498  70.624  1.00  0.00    -0.370 A  
HETATM   15  C   UNL     1     -12.810   7.675  71.673  1.00  0.00    -0.378 A  
HETATM   16  C   UNL     1     -12.847   9.001  72.108  1.00  0.00    -0.478 A  
HETATM   17  C   UNL     1      -5.919   9.795  69.514  1.00  0.00    -0.037 A  
HETATM   18  C   UNL     1      -7.393   8.237  68.394  1.00  0.00    -0.094 A  
HETATM   19  C   UNL     1      -6.167   8.902  68.475  1.00  0.00    -0.053 A  
BRANCH   7  20
HETATM   20  O   UNL     1      -9.025   5.602  68.145  1.00  0.00    -0.112 OA 
BRANCH  20  21
HETATM   21  C   UNL     1      -9.781   4.502  67.581  1.00  0.00    -0.157 C  
HETATM   22  C   UNL     1     -10.189   4.787  66.135  1.00  0.00    -0.313 C  
HETATM   23  N   UNL     1      -8.077   3.731  65.268  1.00  0.00    -0.096 NA 
HETATM   24  C   UNL     1      -8.958   4.902  65.235  1.00  0.00    -0.152 C  
HETATM   25  C   UNL     1      -8.608   2.605  64.508  1.00  0.00    -0.093 C  
HETATM   26  C   UNL     1      -7.710   3.371  66.645  1.00  0.00    -0.080 C  
HETATM   27  C   UNL     1      -8.897   3.249  67.607  1.00  0.00    -0.157 C  
ENDBRANCH  20  21
ENDBRANCH   7  20
ENDBRANCH   3   4
ENDBRANCH   2   3
TORSDOF 4
ENDMDL
MODEL       47
REMARK 921   NORMALIZED FREE ENERGY PREDICTED BY IDOCK:   -4.38 KCAL/MOL
REMARK 922        TOTAL FREE ENERGY PREDICTED BY IDOCK:   -6.70 KCAL/MOL
REMARK 923 INTER-LIGAND FREE ENERGY PREDICTED BY IDOCK:   -5.63 KCAL/MOL
REMARK 924 INTRA-LIGAND FREE ENERGY PREDICTED BY IDOCK:   -1.08 KCAL/MOL
REMARK 927      BINDING AFFINITY PREDICTED BY RF-SCORE:    0.00 PKD
ROOT
HETATM    1  C   UNL     1     -10.308   5.345  67.922  1.00  0.00    -0.222 C  
HETATM    2  C   UNL     1     -11.091   6.504  67.316  1.00  0.00    -0.429 C  
ENDROOT
BRANCH   2   3
HETATM    3  C   UNL     1     -10.337   7.811  67.535  1.00  0.00    -0.264 C  
BRANCH   3   4
HETATM    4  O   UNL     1     -10.341   8.613  66.355  1.00  0.00    -0.262 OA 
HETATM    5  C   UNL     1      -9.025   9.018  65.847  1.00  0.00    -0.190 C  
HETATM    6  C   UNL     1      -8.215   7.713  65.526  1.00  0.00    -0.135 A  
HETATM    7  C   UNL     1      -9.286   9.900  64.535  1.00  0.00    -0.275 C  
HETATM    8  C   UNL     1      -8.342  10.007  66.858  1.00  0.00    -0.125 A  
HETATM    9  C   UNL     1      -8.231   7.105  64.260  1.00  0.00     0.036 A  
HETATM   10  C   UNL     1      -6.714   5.900  66.273  1.00  0.00    -0.060 A  
HETATM   11  C   UNL     1      -7.003   9.892  67.274  1.00  0.00    -0.084 A  
HETATM   12  O   UNL     1      -8.511  10.024  63.590  1.00  0.00    -0.153 OA 
HETATM   13  C   UNL     1      -6.476  10.697  68.285  1.00  0.00    -0.058 A  
HETATM   14  C   UNL     1      -7.488   7.027  66.536  1.00  0.00    -0.081 A  
HETATM   15  C   UNL     1      -7.469   5.956  63.996  1.00  0.00    -0.078 A  
HETATM   16  C   UNL     1      -6.685   5.373  64.993  1.00  0.00    -0.048 A  
HETATM   17  C   UNL     1      -7.230  11.738  68.807  1.00  0.00    -0.113 A  
HETATM   18  C   UNL     1      -9.071  11.097  67.373  1.00  0.00    -0.143 A  
HETATM   19  C   UNL     1      -8.513  11.964  68.316  1.00  0.00    -0.161 A  
BRANCH   7  20
HETATM   20  O   UNL     1     -10.459  10.617  64.633  1.00  0.00    -0.336 OA 
BRANCH  20  21
HETATM   21  C   UNL     1     -10.726  11.634  63.637  1.00  0.00    -0.435 C  
HETATM   22  C   UNL     1     -12.213  11.990  63.587  1.00  0.00    -0.642 C  
HETATM   23  N   UNL     1     -11.899  13.803  65.301  1.00  0.00    -0.337 NA 
HETATM   24  C   UNL     1     -12.667  12.619  64.904  1.00  0.00    -0.370 C  
HETATM   25  C   UNL     1     -12.258  14.991  64.535  1.00  0.00    -0.331 C  
HETATM   26  C   UNL     1     -10.454  13.534  65.298  1.00  0.00    -0.336 C  
HETATM   27  C   UNL     1      -9.931  12.891  64.009  1.00  0.00     0.001 C  
ENDBRANCH  20  21
ENDBRANCH   7  20
ENDBRANCH   3   4
ENDBRANCH   2   3
TORSDOF 4
ENDMDL
MODEL       48
REMARK 921   NORMALIZED FREE ENERGY PREDICTED BY IDOCK:   -4.38 KCAL/MOL
REMARK 922        TOTAL FREE ENERGY PREDICTED BY IDOCK:   -6.70 KCAL/MOL
REMARK 923 INTER-LIGAND FREE ENERGY PREDICTED BY IDOCK:   -6.32 KCAL/MOL
REMARK 924 INTRA-LIGAND FREE ENERGY PREDICTED BY IDOCK:   -0.38 KCAL/MOL
REMARK 927      BINDING AFFINITY PREDICTED BY RF-SCORE:    0.00 PKD
ROOT
HETATM    1  C   UNL     1      -7.471   7.630  72.899  1.00  0.00    -0.114 C  
HETATM    2  C   UNL     1      -7.806   8.786  71.963  1.00  0.00    -0.040 C  
ENDROOT
BRANCH   2   3
HETATM    3  C   UNL     1      -8.935   8.381  71.022  1.00  0.00    -0.165 C  
BRANCH   3   4
HETATM    4  O   UNL     1      -9.451   9.511  70.320  1.00  0.00    -0.228 OA 
HETATM    5  C   UNL     1     -10.648   9.271  69.505  1.00  0.00    -0.224 C  
HETATM    6  C   UNL     1     -11.781   8.754  70.460  1.00  0.00    -0.115 A  
HETATM    7  C   UNL     1     -11.032  10.669  68.821  1.00  0.00    -0.246 C  
HETATM    8  C   UNL     1     -10.295   8.327  68.300  1.00  0.00    -0.242 A  
HETATM    9  C   UNL     1     -12.694   9.617  71.087  1.00  0.00    -0.407 A  
HETATM   10  C   UNL     1     -12.906   6.880  71.610  1.00  0.00    -0.383 A  
HETATM   11  C   UNL     1     -11.076   7.217  67.928  1.00  0.00    -0.067 A  
HETATM   12  O   UNL     1     -12.160  11.010  68.476  1.00  0.00    -0.573 OA 
HETATM   13  C   UNL     1     -10.653   6.315  66.950  1.00  0.00    -0.374 A  
HETATM   14  C   UNL     1     -11.882   7.380  70.811  1.00  0.00    -0.288 A  
HETATM   15  C   UNL     1     -13.716   9.120  71.911  1.00  0.00    -0.485 A  
HETATM   16  C   UNL     1     -13.842   7.749  72.146  1.00  0.00    -0.198 A  
HETATM   17  C   UNL     1      -9.505   6.579  66.214  1.00  0.00    -0.126 A  
HETATM   18  C   UNL     1      -9.159   8.592  67.511  1.00  0.00    -0.146 A  
HETATM   19  C   UNL     1      -8.785   7.743  66.466  1.00  0.00    -0.162 A  
BRANCH   7  20
HETATM   20  O   UNL     1      -9.911  11.424  68.552  1.00  0.00    -0.190 OA 
BRANCH  20  21
HETATM   21  C   UNL     1      -9.671  11.830  67.182  1.00  0.00    -0.183 C  
HETATM   22  C   UNL     1     -10.716  12.840  66.707  1.00  0.00    -0.278 C  
HETATM   23  N   UNL     1      -9.297  14.764  67.487  1.00  0.00    -0.191 NA 
HETATM   24  C   UNL     1     -10.623  14.138  67.509  1.00  0.00    -0.257 C  
HETATM   25  C   UNL     1      -9.018  15.447  66.228  1.00  0.00    -0.306 C  
HETATM   26  C   UNL     1      -8.245  13.813  67.869  1.00  0.00    -0.166 C  
HETATM   27  C   UNL     1      -8.285  12.482  67.111  1.00  0.00    -0.168 C  
ENDBRANCH  20  21
ENDBRANCH   7  20
ENDBRANCH   3   4
ENDBRANCH   2   3
TORSDOF 4
ENDMDL
MODEL       49
REMARK 921   NORMALIZED FREE ENERGY PREDICTED BY IDOCK:   -4.37 KCAL/MOL
REMARK 922        TOTAL FREE ENERGY PREDICTED BY IDOCK:   -6.70 KCAL/MOL
REMARK 923 INTER-LIGAND FREE ENERGY PREDICTED BY IDOCK:   -5.65 KCAL/MOL
REMARK 924 INTRA-LIGAND FREE ENERGY PREDICTED BY IDOCK:   -1.05 KCAL/MOL
REMARK 927      BINDING AFFINITY PREDICTED BY RF-SCORE:    0.00 PKD
ROOT
HETATM    1  C   UNL     1      -6.464   8.434  72.034  1.00  0.00    -0.069 C  
HETATM    2  C   UNL     1      -7.078   7.531  70.969  1.00  0.00    -0.058 C  
ENDROOT
BRANCH   2   3
HETATM    3  C   UNL     1      -7.991   8.347  70.061  1.00  0.00    -0.109 C  
BRANCH   3   4
HETATM    4  O   UNL     1      -8.523   7.544  69.009  1.00  0.00    -0.131 OA 
HETATM    5  C   UNL     1      -9.987   7.509  68.904  1.00  0.00    -0.168 C  
HETATM    6  C   UNL     1     -10.485   8.979  68.671  1.00  0.00    -0.229 A  
HETATM    7  C   UNL     1     -10.340   6.553  67.666  1.00  0.00    -0.194 C  
HETATM    8  C   UNL     1     -10.596   6.776  70.153  1.00  0.00    -0.254 A  
HETATM    9  C   UNL     1     -10.662   9.523  67.389  1.00  0.00    -0.297 A  
HETATM   10  C   UNL     1     -11.193  11.158  69.593  1.00  0.00    -0.333 A  
HETATM   11  C   UNL     1     -11.689   7.272  70.888  1.00  0.00    -0.348 A  
HETATM   12  O   UNL     1     -11.351   6.625  66.972  1.00  0.00    -0.348 OA 
HETATM   13  C   UNL     1     -12.106   6.673  72.077  1.00  0.00    -0.353 A  
HETATM   14  C   UNL     1     -10.699   9.867  69.760  1.00  0.00    -0.298 A  
HETATM   15  C   UNL     1     -11.141  10.832  67.216  1.00  0.00    -0.339 A  
HETATM   16  C   UNL     1     -11.437  11.637  68.317  1.00  0.00    -0.369 A  
HETATM   17  C   UNL     1     -11.535   5.478  72.490  1.00  0.00    -0.303 A  
HETATM   18  C   UNL     1     -10.063   5.541  70.570  1.00  0.00    -0.293 A  
HETATM   19  C   UNL     1     -10.544   4.889  71.709  1.00  0.00    -0.164 A  
BRANCH   7  20
HETATM   20  O   UNL     1      -9.415   5.541  67.529  1.00  0.00    -0.113 OA 
BRANCH  20  21
HETATM   21  C   UNL     1      -9.874   4.253  67.050  1.00  0.00    -0.179 C  
HETATM   22  C   UNL     1      -9.482   4.028  65.589  1.00  0.00    -0.176 C  
HETATM   23  N   UNL     1      -7.311   2.959  66.274  1.00  0.00    -0.066 NA 
HETATM   24  C   UNL     1      -7.962   3.971  65.436  1.00  0.00    -0.093 C  
HETATM   25  C   UNL     1      -7.478   1.606  65.756  1.00  0.00    -0.061 C  
HETATM   26  C   UNL     1      -7.709   3.087  67.682  1.00  0.00    -0.065 C  
HETATM   27  C   UNL     1      -9.223   3.162  67.909  1.00  0.00    -0.243 C  
ENDBRANCH  20  21
ENDBRANCH   7  20
ENDBRANCH   3   4
ENDBRANCH   2   3
TORSDOF 4
ENDMDL
MODEL       50
REMARK 921   NORMALIZED FREE ENERGY PREDICTED BY IDOCK:   -4.35 KCAL/MOL
REMARK 922        TOTAL FREE ENERGY PREDICTED BY IDOCK:   -6.66 KCAL/MOL
REMARK 923 INTER-LIGAND FREE ENERGY PREDICTED BY IDOCK:   -5.95 KCAL/MOL
REMARK 924 INTRA-LIGAND FREE ENERGY PREDICTED BY IDOCK:   -0.71 KCAL/MOL
REMARK 927      BINDING AFFINITY PREDICTED BY RF-SCORE:    0.00 PKD
ROOT
HETATM    1  C   UNL     1     -10.374   5.967  67.300  1.00  0.00    -0.275 C  
HETATM    2  C   UNL     1     -10.299   7.417  66.831  1.00  0.00    -0.367 C  
ENDROOT
BRANCH   2   3
HETATM    3  C   UNL     1     -10.877   8.338  67.899  1.00  0.00     0.033 C  
BRANCH   3   4
HETATM    4  O   UNL     1     -10.591   7.851  69.210  1.00  0.00    -0.221 OA 
HETATM    5  C   UNL     1      -9.969   8.810  70.131  1.00  0.00    -0.184 C  
HETATM    6  C   UNL     1     -10.946  10.028  70.284  1.00  0.00    -0.377 A  
HETATM    7  C   UNL     1      -9.746   8.041  71.519  1.00  0.00    -0.167 C  
HETATM    8  C   UNL     1      -8.519   9.163  69.639  1.00  0.00    -0.133 A  
HETATM    9  C   UNL     1     -11.925  10.090  71.289  1.00  0.00    -0.483 A  
HETATM   10  C   UNL     1     -11.758  12.220  69.487  1.00  0.00    -0.398 A  
HETATM   11  C   UNL     1      -8.020  10.476  69.567  1.00  0.00    -0.119 A  
HETATM   12  O   UNL     1      -9.706   8.566  72.629  1.00  0.00    -0.277 OA 
HETATM   13  C   UNL     1      -6.785  10.763  68.985  1.00  0.00    -0.070 A  
HETATM   14  C   UNL     1     -10.945  11.099  69.350  1.00  0.00    -0.298 A  
HETATM   15  C   UNL     1     -12.763  11.209  71.419  1.00  0.00    -0.524 A  
HETATM   16  C   UNL     1     -12.657  12.288  70.539  1.00  0.00    -0.173 A  
HETATM   17  C   UNL     1      -5.949   9.728  68.588  1.00  0.00    -0.042 A  
HETATM   18  C   UNL     1      -7.635   8.131  69.267  1.00  0.00    -0.095 A  
HETATM   19  C   UNL     1      -6.358   8.411  68.773  1.00  0.00    -0.049 A  
BRANCH   7  20
HETATM   20  O   UNL     1      -9.483   6.703  71.320  1.00  0.00    -0.162 OA 
BRANCH  20  21
HETATM   21  C   UNL     1     -10.605   5.791  71.224  1.00  0.00    -0.257 C  
HETATM   22  C   UNL     1     -10.137   4.353  70.992  1.00  0.00    -0.195 C  
HETATM   23  N   UNL     1     -10.046   3.922  73.469  1.00  0.00    -0.126 NA 
HETATM   24  C   UNL     1      -9.334   3.843  72.189  1.00  0.00    -0.125 C  
HETATM   25  C   UNL     1     -11.054   2.878  73.618  1.00  0.00    -0.229 C  
HETATM   26  C   UNL     1     -10.578   5.271  73.708  1.00  0.00    -0.287 C  
HETATM   27  C   UNL     1     -11.386   5.850  72.541  1.00  0.00    -0.352 C  
ENDBRANCH  20  21
ENDBRANCH   7  20
ENDBRANCH   3   4
ENDBRANCH   2   3
TORSDOF 4
ENDMDL
MODEL       51
REMARK 921   NORMALIZED FREE ENERGY PREDICTED BY IDOCK:   -4.34 KCAL/MOL
REMARK 922        TOTAL FREE ENERGY PREDICTED BY IDOCK:   -6.65 KCAL/MOL
REMARK 923 INTER-LIGAND FREE ENERGY PREDICTED BY IDOCK:   -5.57 KCAL/MOL
REMARK 924 INTRA-LIGAND FREE ENERGY PREDICTED BY IDOCK:   -1.09 KCAL/MOL
REMARK 927      BINDING AFFINITY PREDICTED BY RF-SCORE:    0.00 PKD
ROOT
HETATM    1  C   UNL     1     -12.925  10.706  70.333  1.00  0.00    -0.210 C  
HETATM    2  C   UNL     1     -12.002  11.845  69.913  1.00  0.00    -0.398 C  
ENDROOT
BRANCH   2   3
HETATM    3  C   UNL     1     -11.987  11.967  68.393  1.00  0.00    -0.194 C  
BRANCH   3   4
HETATM    4  O   UNL     1     -10.996  11.118  67.817  1.00  0.00    -0.222 OA 
HETATM    5  C   UNL     1     -10.055  11.762  66.892  1.00  0.00    -0.207 C  
HETATM    6  C   UNL     1      -9.305  12.891  67.683  1.00  0.00    -0.195 A  
HETATM    7  C   UNL     1      -9.053  10.620  66.382  1.00  0.00    -0.164 C  
HETATM    8  C   UNL     1     -10.812  12.230  65.598  1.00  0.00    -0.321 A  
HETATM    9  C   UNL     1      -8.093  12.666  68.355  1.00  0.00    -0.137 A  
HETATM   10  C   UNL     1      -9.205  15.227  68.479  1.00  0.00    -0.200 A  
HETATM   11  C   UNL     1     -10.651  13.503  65.021  1.00  0.00    -0.382 A  
HETATM   12  O   UNL     1      -7.897  10.799  66.005  1.00  0.00    -0.156 OA 
HETATM   13  C   UNL     1     -11.450  13.936  63.962  1.00  0.00    -0.183 A  
HETATM   14  C   UNL     1      -9.868  14.187  67.833  1.00  0.00    -0.224 A  
HETATM   15  C   UNL     1      -7.430  13.706  69.026  1.00  0.00     0.021 A  
HETATM   16  C   UNL     1      -7.971  14.993  69.060  1.00  0.00    -0.180 A  
HETATM   17  C   UNL     1     -12.334  13.055  63.354  1.00  0.00    -0.478 A  
HETATM   18  C   UNL     1     -11.685  11.343  64.937  1.00  0.00     0.153 A  
HETATM   19  C   UNL     1     -12.416  11.744  63.815  1.00  0.00    -0.436 A  
BRANCH   7  20
HETATM   20  O   UNL     1      -9.680   9.396  66.300  1.00  0.00    -0.220 OA 
BRANCH  20  21
HETATM   21  C   UNL     1      -8.959   8.224  66.752  1.00  0.00    -0.147 C  
HETATM   22  C   UNL     1      -8.831   8.201  68.277  1.00  0.00    -0.133 C  
HETATM   23  N   UNL     1     -10.981   6.915  68.496  1.00  0.00    -0.174 NA 
HETATM   24  C   UNL     1     -10.204   8.078  68.936  1.00  0.00    -0.209 C  
HETATM   25  C   UNL     1     -10.514   5.668  69.091  1.00  0.00    -0.269 C  
HETATM   26  C   UNL     1     -11.076   6.852  67.031  1.00  0.00    -0.245 C  
HETATM   27  C   UNL     1      -9.734   6.980  66.303  1.00  0.00    -0.053 C  
ENDBRANCH  20  21
ENDBRANCH   7  20
ENDBRANCH   3   4
ENDBRANCH   2   3
TORSDOF 4
ENDMDL
MODEL       52
REMARK 921   NORMALIZED FREE ENERGY PREDICTED BY IDOCK:   -4.32 KCAL/MOL
REMARK 922        TOTAL FREE ENERGY PREDICTED BY IDOCK:   -6.63 KCAL/MOL
REMARK 923 INTER-LIGAND FREE ENERGY PREDICTED BY IDOCK:   -5.72 KCAL/MOL
REMARK 924 INTRA-LIGAND FREE ENERGY PREDICTED BY IDOCK:   -0.92 KCAL/MOL
REMARK 927      BINDING AFFINITY PREDICTED BY RF-SCORE:    0.00 PKD
ROOT
HETATM    1  C   UNL     1      -9.633   6.334  66.569  1.00  0.00    -0.183 C  
HETATM    2  C   UNL     1      -8.283   7.043  66.601  1.00  0.00    -0.112 C  
ENDROOT
BRANCH   2   3
HETATM    3  C   UNL     1      -8.476   8.509  66.972  1.00  0.00    -0.114 C  
BRANCH   3   4
HETATM    4  O   UNL     1      -9.294   8.643  68.133  1.00  0.00    -0.137 OA 
HETATM    5  C   UNL     1      -9.405   9.997  68.689  1.00  0.00    -0.156 C  
HETATM    6  C   UNL     1     -10.012  10.922  67.576  1.00  0.00    -0.201 A  
HETATM    7  C   UNL     1     -10.361   9.895  69.972  1.00  0.00    -0.272 C  
HETATM    8  C   UNL     1      -8.018  10.455  69.267  1.00  0.00    -0.157 A  
HETATM    9  C   UNL     1     -11.393  11.140  67.445  1.00  0.00    -0.329 A  
HETATM   10  C   UNL     1      -9.688  12.390  65.616  1.00  0.00    -0.183 A  
HETATM   11  C   UNL     1      -7.448  11.716  69.014  1.00  0.00    -0.051 A  
HETATM   12  O   UNL     1     -11.063  10.800  70.415  1.00  0.00    -0.266 OA 
HETATM   13  C   UNL     1      -6.150  12.031  69.420  1.00  0.00    -0.098 A  
HETATM   14  C   UNL     1      -9.191  11.520  66.583  1.00  0.00    -0.194 A  
HETATM   15  C   UNL     1     -11.902  11.999  66.458  1.00  0.00    -0.237 A  
HETATM   16  C   UNL     1     -11.048  12.649  65.566  1.00  0.00    -0.329 A  
HETATM   17  C   UNL     1      -5.438  11.144  70.215  1.00  0.00    -0.102 A  
HETATM   18  C   UNL     1      -7.291   9.591  70.110  1.00  0.00    -0.124 A  
HETATM   19  C   UNL     1      -6.029   9.943  70.598  1.00  0.00    -0.087 A  
BRANCH   7  20
HETATM   20  O   UNL     1     -10.222   8.682  70.610  1.00  0.00    -0.187 OA 
BRANCH  20  21
HETATM   21  C   UNL     1     -11.420   7.928  70.919  1.00  0.00    -0.281 C  
HETATM   22  C   UNL     1     -11.255   6.448  70.568  1.00  0.00    -0.414 C  
HETATM   23  N   UNL     1     -10.384   5.938  72.871  1.00  0.00    -0.191 NA 
HETATM   24  C   UNL     1     -10.168   5.803  71.427  1.00  0.00    -0.216 C  
HETATM   25  C   UNL     1     -11.410   5.031  73.374  1.00  0.00    -0.269 C  
HETATM   26  C   UNL     1     -10.618   7.337  73.253  1.00  0.00    -0.382 C  
HETATM   27  C   UNL     1     -11.690   8.051  72.423  1.00  0.00    -0.444 C  
ENDBRANCH  20  21
ENDBRANCH   7  20
ENDBRANCH   3   4
ENDBRANCH   2   3
TORSDOF 4
ENDMDL
MODEL       53
REMARK 921   NORMALIZED FREE ENERGY PREDICTED BY IDOCK:   -4.22 KCAL/MOL
REMARK 922        TOTAL FREE ENERGY PREDICTED BY IDOCK:   -6.51 KCAL/MOL
REMARK 923 INTER-LIGAND FREE ENERGY PREDICTED BY IDOCK:   -5.58 KCAL/MOL
REMARK 924 INTRA-LIGAND FREE ENERGY PREDICTED BY IDOCK:   -0.93 KCAL/MOL
REMARK 927      BINDING AFFINITY PREDICTED BY RF-SCORE:    0.00 PKD
ROOT
HETATM    1  C   UNL     1      -9.539   4.655  66.064  1.00  0.00    -0.189 C  
HETATM    2  C   UNL     1     -10.519   5.428  66.941  1.00  0.00    -0.337 C  
ENDROOT
BRANCH   2   3
HETATM    3  C   UNL     1     -10.588   6.881  66.485  1.00  0.00     0.036 C  
BRANCH   3   4
HETATM    4  O   UNL     1     -10.584   7.771  67.600  1.00  0.00    -0.239 OA 
HETATM    5  C   UNL     1      -9.532   8.795  67.601  1.00  0.00    -0.141 C  
HETATM    6  C   UNL     1      -9.709   9.664  66.306  1.00  0.00    -0.303 A  
HETATM    7  C   UNL     1      -9.730   9.661  68.935  1.00  0.00    -0.162 C  
HETATM    8  C   UNL     1      -8.125   8.119  67.775  1.00  0.00    -0.127 A  
HETATM    9  C   UNL     1     -10.490  10.831  66.279  1.00  0.00    -0.287 A  
HETATM   10  C   UNL     1      -9.245  10.031  63.908  1.00  0.00    -0.317 A  
HETATM   11  C   UNL     1      -7.006   8.439  66.985  1.00  0.00    -0.074 A  
HETATM   12  O   UNL     1      -9.399  10.835  69.082  1.00  0.00    -0.190 OA 
HETATM   13  C   UNL     1      -5.816   7.713  67.068  1.00  0.00    -0.039 A  
HETATM   14  C   UNL     1      -9.154   9.258  65.062  1.00  0.00    -0.245 A  
HETATM   15  C   UNL     1     -10.602  11.603  65.112  1.00  0.00    -0.343 A  
HETATM   16  C   UNL     1      -9.953  11.220  63.936  1.00  0.00    -0.368 A  
HETATM   17  C   UNL     1      -5.665   6.739  68.045  1.00  0.00    -0.016 A  
HETATM   18  C   UNL     1      -7.931   7.156  68.785  1.00  0.00    -0.123 A  
HETATM   19  C   UNL     1      -6.709   6.494  68.933  1.00  0.00    -0.057 A  
BRANCH   7  20
HETATM   20  O   UNL     1     -10.222   8.893  69.967  1.00  0.00    -0.187 OA 
BRANCH  20  21
HETATM   21  C   UNL     1     -10.598   9.558  71.198  1.00  0.00    -0.318 C  
HETATM   22  C   UNL     1     -11.794  10.489  70.988  1.00  0.00    -0.438 C  
HETATM   23  N   UNL     1     -13.406   8.639  71.539  1.00  0.00    -0.328 NA 
HETATM   24  C   UNL     1     -13.038   9.694  70.590  1.00  0.00     0.041 C  
HETATM   25  C   UNL     1     -14.045   9.160  72.742  1.00  0.00    -0.097 C  
HETATM   26  C   UNL     1     -12.269   7.755  71.830  1.00  0.00    -0.306 C  
HETATM   27  C   UNL     1     -10.982   8.486  72.226  1.00  0.00    -0.426 C  
ENDBRANCH  20  21
ENDBRANCH   7  20
ENDBRANCH   3   4
ENDBRANCH   2   3
TORSDOF 4
ENDMDL
MODEL       54
REMARK 921   NORMALIZED FREE ENERGY PREDICTED BY IDOCK:   -4.22 KCAL/MOL
REMARK 922        TOTAL FREE ENERGY PREDICTED BY IDOCK:   -6.51 KCAL/MOL
REMARK 923 INTER-LIGAND FREE ENERGY PREDICTED BY IDOCK:   -5.22 KCAL/MOL
REMARK 924 INTRA-LIGAND FREE ENERGY PREDICTED BY IDOCK:   -1.29 KCAL/MOL
REMARK 927      BINDING AFFINITY PREDICTED BY RF-SCORE:    0.00 PKD
ROOT
HETATM    1  C   UNL     1      -9.896  10.875  62.982  1.00  0.00    -0.358 C  
HETATM    2  C   UNL     1      -9.024  10.030  63.906  1.00  0.00    -0.271 C  
ENDROOT
BRANCH   2   3
HETATM    3  C   UNL     1      -8.419  10.909  64.995  1.00  0.00    -0.009 C  
BRANCH   3   4
HETATM    4  O   UNL     1      -9.007  10.634  66.265  1.00  0.00    -0.157 OA 
HETATM    5  C   UNL     1      -9.374  11.805  67.071  1.00  0.00    -0.184 C  
HETATM    6  C   UNL     1     -10.409  12.648  66.246  1.00  0.00    -0.269 A  
HETATM    7  C   UNL     1     -10.005  11.249  68.436  1.00  0.00    -0.197 C  
HETATM    8  C   UNL     1      -8.080  12.574  67.520  1.00  0.00    -0.176 A  
HETATM    9  C   UNL     1     -11.796  12.458  66.354  1.00  0.00    -0.421 A  
HETATM   10  C   UNL     1     -10.874  14.396  64.564  1.00  0.00    -0.271 A  
HETATM   11  C   UNL     1      -7.933  13.970  67.425  1.00  0.00    -0.191 A  
HETATM   12  O   UNL     1     -10.829  11.835  69.133  1.00  0.00    -0.224 OA 
HETATM   13  C   UNL     1      -6.717  14.600  67.692  1.00  0.00    -0.196 A  
HETATM   14  C   UNL     1      -9.985  13.592  65.273  1.00  0.00    -0.229 A  
HETATM   15  C   UNL     1     -12.697  13.251  65.626  1.00  0.00    -0.373 A  
HETATM   16  C   UNL     1     -12.237  14.241  64.756  1.00  0.00    -0.456 A  
HETATM   17  C   UNL     1      -5.653  13.868  68.201  1.00  0.00    -0.118 A  
HETATM   18  C   UNL     1      -7.000  11.862  68.078  1.00  0.00    -0.078 A  
HETATM   19  C   UNL     1      -5.812  12.506  68.436  1.00  0.00    -0.057 A  
BRANCH   7  20
HETATM   20  O   UNL     1      -9.423  10.059  68.813  1.00  0.00    -0.150 OA 
BRANCH  20  21
HETATM   21  C   UNL     1     -10.289   8.976  69.235  1.00  0.00    -0.219 C  
HETATM   22  C   UNL     1     -10.949   8.290  68.038  1.00  0.00     0.127 C  
HETATM   23  N   UNL     1      -9.049   6.651  67.855  1.00  0.00    -0.115 NA 
HETATM   24  C   UNL     1      -9.901   7.615  67.152  1.00  0.00    -0.202 C  
HETATM   25  C   UNL     1      -9.729   5.388  68.123  1.00  0.00    -0.137 C  
HETATM   26  C   UNL     1      -8.444   7.242  69.057  1.00  0.00    -0.129 C  
HETATM   27  C   UNL     1      -9.437   7.946  69.987  1.00  0.00    -0.157 C  
ENDBRANCH  20  21
ENDBRANCH   7  20
ENDBRANCH   3   4
ENDBRANCH   2   3
TORSDOF 4
ENDMDL
MODEL       55
REMARK 921   NORMALIZED FREE ENERGY PREDICTED BY IDOCK:   -4.21 KCAL/MOL
REMARK 922        TOTAL FREE ENERGY PREDICTED BY IDOCK:   -6.50 KCAL/MOL
REMARK 923 INTER-LIGAND FREE ENERGY PREDICTED BY IDOCK:   -5.30 KCAL/MOL
REMARK 924 INTRA-LIGAND FREE ENERGY PREDICTED BY IDOCK:   -1.19 KCAL/MOL
REMARK 927      BINDING AFFINITY PREDICTED BY RF-SCORE:    0.00 PKD
ROOT
HETATM    1  C   UNL     1      -9.976  10.168  66.273  1.00  0.00    -0.304 C  
HETATM    2  C   UNL     1     -10.887   8.995  66.622  1.00  0.00     0.151 C  
ENDROOT
BRANCH   2   3
HETATM    3  C   UNL     1     -10.167   8.046  67.573  1.00  0.00    -0.245 C  
BRANCH   3   4
HETATM    4  O   UNL     1      -9.173   8.732  68.332  1.00  0.00    -0.138 OA 
HETATM    5  C   UNL     1      -9.258   8.580  69.790  1.00  0.00    -0.157 C  
HETATM    6  C   UNL     1      -9.130   7.051  70.119  1.00  0.00    -0.149 A  
HETATM    7  C   UNL     1      -8.052   9.432  70.415  1.00  0.00    -0.175 C  
HETATM    8  C   UNL     1     -10.556   9.282  70.326  1.00  0.00    -0.278 A  
HETATM    9  C   UNL     1      -7.896   6.435  70.384  1.00  0.00    -0.107 A  
HETATM   10  C   UNL     1     -10.191   4.841  70.419  1.00  0.00    -0.261 A  
HETATM   11  C   UNL     1     -11.439   8.685  71.245  1.00  0.00    -0.341 A  
HETATM   12  O   UNL     1      -7.497   9.205  71.487  1.00  0.00    -0.307 OA 
HETATM   13  C   UNL     1     -12.658   9.277  71.584  1.00  0.00    -0.446 A  
HETATM   14  C   UNL     1     -10.259   6.189  70.078  1.00  0.00    -0.250 A  
HETATM   15  C   UNL     1      -7.819   5.071  70.708  1.00  0.00    -0.083 A  
HETATM   16  C   UNL     1      -8.970   4.282  70.757  1.00  0.00    -0.154 A  
HETATM   17  C   UNL     1     -12.962  10.550  71.124  1.00  0.00    -0.506 A  
HETATM   18  C   UNL     1     -10.870  10.590  69.909  1.00  0.00    -0.334 A  
HETATM   19  C   UNL     1     -12.044  11.224  70.323  1.00  0.00    -0.459 A  
BRANCH   7  20
HETATM   20  O   UNL     1      -7.771  10.544  69.653  1.00  0.00    -0.154 OA 
BRANCH  20  21
HETATM   21  C   UNL     1      -6.423  10.707  69.148  1.00  0.00    -0.056 C  
HETATM   22  C   UNL     1      -6.425  11.181  67.694  1.00  0.00    -0.065 C  
HETATM   23  N   UNL     1      -6.406  13.590  68.416  1.00  0.00    -0.084 NA 
HETATM   24  C   UNL     1      -7.045  12.573  67.575  1.00  0.00    -0.151 C  
HETATM   25  C   UNL     1      -5.128  14.043  67.877  1.00  0.00    -0.053 C  
HETATM   26  C   UNL     1      -6.316  13.154  69.816  1.00  0.00    -0.065 C  
HETATM   27  C   UNL     1      -5.712  11.758  70.009  1.00  0.00    -0.135 C  
ENDBRANCH  20  21
ENDBRANCH   7  20
ENDBRANCH   3   4
ENDBRANCH   2   3
TORSDOF 4
ENDMDL
MODEL       56
REMARK 921   NORMALIZED FREE ENERGY PREDICTED BY IDOCK:   -4.21 KCAL/MOL
REMARK 922        TOTAL FREE ENERGY PREDICTED BY IDOCK:   -6.49 KCAL/MOL
REMARK 923 INTER-LIGAND FREE ENERGY PREDICTED BY IDOCK:   -5.20 KCAL/MOL
REMARK 924 INTRA-LIGAND FREE ENERGY PREDICTED BY IDOCK:   -1.30 KCAL/MOL
REMARK 927      BINDING AFFINITY PREDICTED BY RF-SCORE:    0.00 PKD
ROOT
HETATM    1  C   UNL     1     -11.735  12.518  66.189  1.00  0.00    -0.466 C  
HETATM    2  C   UNL     1     -11.687  12.698  67.703  1.00  0.00    -0.420 C  
ENDROOT
BRANCH   2   3
HETATM    3  C   UNL     1     -10.257  12.980  68.147  1.00  0.00    -0.239 C  
BRANCH   3   4
HETATM    4  O   UNL     1      -9.747  11.916  68.950  1.00  0.00    -0.093 OA 
HETATM    5  C   UNL     1      -8.448  11.367  68.542  1.00  0.00    -0.152 C  
HETATM    6  C   UNL     1      -7.401  12.535  68.589  1.00  0.00    -0.099 A  
HETATM    7  C   UNL     1      -8.092  10.199  69.581  1.00  0.00    -0.168 C  
HETATM    8  C   UNL     1      -8.585  10.636  67.159  1.00  0.00    -0.127 A  
HETATM    9  C   UNL     1      -6.635  12.818  69.732  1.00  0.00     0.071 A  
HETATM   10  C   UNL     1      -6.282  14.438  67.482  1.00  0.00     0.009 A  
HETATM   11  C   UNL     1      -7.686  10.816  66.092  1.00  0.00    -0.149 A  
HETATM   12  O   UNL     1      -6.959   9.832  69.882  1.00  0.00    -0.065 OA 
HETATM   13  C   UNL     1      -7.923  10.268  64.830  1.00  0.00    -0.146 A  
HETATM   14  C   UNL     1      -7.239  13.428  67.495  1.00  0.00    -0.163 A  
HETATM   15  C   UNL     1      -5.682  13.850  69.731  1.00  0.00    -0.110 A  
HETATM   16  C   UNL     1      -5.483  14.638  68.596  1.00  0.00    -0.094 A  
HETATM   17  C   UNL     1      -8.992   9.403  64.640  1.00  0.00    -0.233 A  
HETATM   18  C   UNL     1      -9.637   9.723  66.950  1.00  0.00    -0.228 A  
HETATM   19  C   UNL     1      -9.821   9.096  65.714  1.00  0.00    -0.248 A  
BRANCH   7  20
HETATM   20  O   UNL     1      -9.226   9.557  70.027  1.00  0.00    -0.200 OA 
BRANCH  20  21
HETATM   21  C   UNL     1      -9.069   8.447  70.945  1.00  0.00    -0.160 C  
HETATM   22  C   UNL     1      -9.937   8.626  72.191  1.00  0.00    -0.386 C  
HETATM   23  N   UNL     1     -11.851   7.409  71.105  1.00  0.00    -0.292 NA 
HETATM   24  C   UNL     1     -11.421   8.610  71.827  1.00  0.00    -0.324 C  
HETATM   25  C   UNL     1     -11.987   6.246  71.976  1.00  0.00    -0.300 C  
HETATM   26  C   UNL     1     -11.003   7.152  69.933  1.00  0.00    -0.253 C  
HETATM   27  C   UNL     1      -9.498   7.164  70.224  1.00  0.00    -0.162 C  
ENDBRANCH  20  21
ENDBRANCH   7  20
ENDBRANCH   3   4
ENDBRANCH   2   3
TORSDOF 4
ENDMDL
MODEL       57
REMARK 921   NORMALIZED FREE ENERGY PREDICTED BY IDOCK:   -4.15 KCAL/MOL
REMARK 922        TOTAL FREE ENERGY PREDICTED BY IDOCK:   -6.42 KCAL/MOL
REMARK 923 INTER-LIGAND FREE ENERGY PREDICTED BY IDOCK:   -5.15 KCAL/MOL
REMARK 924 INTRA-LIGAND FREE ENERGY PREDICTED BY IDOCK:   -1.27 KCAL/MOL
REMARK 927      BINDING AFFINITY PREDICTED BY RF-SCORE:    0.00 PKD
ROOT
HETATM    1  C   UNL     1      -6.674   9.261  70.838  1.00  0.00    -0.094 C  
HETATM    2  C   UNL     1      -6.324   8.416  69.617  1.00  0.00    -0.036 C  
ENDROOT
BRANCH   2   3
HETATM    3  C   UNL     1      -7.115   8.900  68.407  1.00  0.00    -0.077 C  
BRANCH   3   4
HETATM    4  O   UNL     1      -7.983   7.879  67.917  1.00  0.00    -0.123 OA 
HETATM    5  C   UNL     1      -9.414   8.205  67.899  1.00  0.00    -0.146 C  
HETATM    6  C   UNL     1      -9.605   9.465  66.983  1.00  0.00    -0.209 A  
HETATM    7  C   UNL     1     -10.175   6.920  67.318  1.00  0.00    -0.220 C  
HETATM    8  C   UNL     1      -9.949   8.349  69.369  1.00  0.00    -0.191 A  
HETATM    9  C   UNL     1      -9.872   9.367  65.608  1.00  0.00    -0.294 A  
HETATM   10  C   UNL     1      -9.645  11.921  66.720  1.00  0.00    -0.214 A  
HETATM   11  C   UNL     1     -10.764   9.413  69.799  1.00  0.00    -0.250 A  
HETATM   12  O   UNL     1     -11.247   6.933  66.719  1.00  0.00    -0.279 OA 
HETATM   13  C   UNL     1     -11.095   9.587  71.143  1.00  0.00    -0.450 A  
HETATM   14  C   UNL     1      -9.428  10.781  67.490  1.00  0.00    -0.168 A  
HETATM   15  C   UNL     1     -10.070  10.514  64.823  1.00  0.00    -0.406 A  
HETATM   16  C   UNL     1      -9.989  11.789  65.386  1.00  0.00    -0.284 A  
HETATM   17  C   UNL     1     -10.742   8.621  72.075  1.00  0.00    -0.427 A  
HETATM   18  C   UNL     1      -9.641   7.363  70.327  1.00  0.00    -0.165 A  
HETATM   19  C   UNL     1     -10.054   7.486  71.656  1.00  0.00    -0.204 A  
BRANCH   7  20
HETATM   20  O   UNL     1      -9.535   5.752  67.670  1.00  0.00    -0.111 OA 
BRANCH  20  21
HETATM   21  C   UNL     1      -9.754   4.576  66.852  1.00  0.00    -0.205 C  
HETATM   22  C   UNL     1      -8.783   4.528  65.671  1.00  0.00    -0.124 C  
HETATM   23  N   UNL     1      -7.108   3.229  67.024  1.00  0.00    -0.057 NA 
HETATM   24  C   UNL     1      -7.341   4.388  66.158  1.00  0.00    -0.077 C  
HETATM   25  C   UNL     1      -7.047   1.974  66.283  1.00  0.00    -0.051 C  
HETATM   26  C   UNL     1      -8.064   3.189  68.140  1.00  0.00    -0.073 C  
HETATM   27  C   UNL     1      -9.531   3.335  67.725  1.00  0.00    -0.217 C  
ENDBRANCH  20  21
ENDBRANCH   7  20
ENDBRANCH   3   4
ENDBRANCH   2   3
TORSDOF 4
ENDMDL
MODEL       58
REMARK 921   NORMALIZED FREE ENERGY PREDICTED BY IDOCK:   -4.14 KCAL/MOL
REMARK 922        TOTAL FREE ENERGY PREDICTED BY IDOCK:   -6.41 KCAL/MOL
REMARK 923 INTER-LIGAND FREE ENERGY PREDICTED BY IDOCK:   -5.42 KCAL/MOL
REMARK 924 INTRA-LIGAND FREE ENERGY PREDICTED BY IDOCK:   -0.99 KCAL/MOL
REMARK 927      BINDING AFFINITY PREDICTED BY RF-SCORE:    0.00 PKD
ROOT
HETATM    1  C   UNL     1      -5.331   9.859  70.813  1.00  0.00    -0.056 C  
HETATM    2  C   UNL     1      -6.540   9.538  69.941  1.00  0.00    -0.059 C  
ENDROOT
BRANCH   2   3
HETATM    3  C   UNL     1      -7.572   8.760  70.750  1.00  0.00    -0.094 C  
BRANCH   3   4
HETATM    4  O   UNL     1      -8.804   9.474  70.836  1.00  0.00    -0.229 OA 
HETATM    5  C   UNL     1     -10.025   8.660  70.769  1.00  0.00    -0.197 C  
HETATM    6  C   UNL     1      -9.986   7.641  71.961  1.00  0.00    -0.220 A  
HETATM    7  C   UNL     1     -11.262   9.673  70.884  1.00  0.00    -0.352 C  
HETATM    8  C   UNL     1     -10.166   8.025  69.339  1.00  0.00    -0.210 A  
HETATM    9  C   UNL     1     -10.551   7.923  73.216  1.00  0.00    -0.239 A  
HETATM   10  C   UNL     1      -9.287   5.455  72.872  1.00  0.00    -0.145 A  
HETATM   11  C   UNL     1     -10.486   6.673  69.118  1.00  0.00    -0.250 A  
HETATM   12  O   UNL     1     -12.373   9.396  71.330  1.00  0.00    -0.313 OA 
HETATM   13  C   UNL     1     -10.456   6.111  67.841  1.00  0.00    -0.286 A  
HETATM   14  C   UNL     1      -9.293   6.405  71.855  1.00  0.00    -0.154 A  
HETATM   15  C   UNL     1     -10.528   6.976  74.252  1.00  0.00     0.140 A  
HETATM   16  C   UNL     1      -9.925   5.731  74.069  1.00  0.00    -0.221 A  
HETATM   17  C   UNL     1     -10.247   6.919  66.732  1.00  0.00    -0.276 A  
HETATM   18  C   UNL     1      -9.999   8.830  68.195  1.00  0.00    -0.206 A  
HETATM   19  C   UNL     1     -10.064   8.287  66.909  1.00  0.00    -0.366 A  
BRANCH   7  20
HETATM   20  O   UNL     1     -10.974  10.891  70.309  1.00  0.00    -0.197 OA 
BRANCH  20  21
HETATM   21  C   UNL     1     -12.034  11.586  69.608  1.00  0.00    -0.339 C  
HETATM   22  C   UNL     1     -12.625  12.710  70.461  1.00  0.00    -0.178 C  
HETATM   23  N   UNL     1     -10.974  14.364  69.530  1.00  0.00    -0.230 NA 
HETATM   24  C   UNL     1     -11.579  13.791  70.736  1.00  0.00     0.168 C  
HETATM   25  C   UNL     1     -11.859  15.303  68.848  1.00  0.00    -0.320 C  
HETATM   26  C   UNL     1     -10.452  13.319  68.640  1.00  0.00    -0.228 C  
HETATM   27  C   UNL     1     -11.445  12.194  68.329  1.00  0.00    -0.360 C  
ENDBRANCH  20  21
ENDBRANCH   7  20
ENDBRANCH   3   4
ENDBRANCH   2   3
TORSDOF 4
ENDMDL
MODEL       59
REMARK 921   NORMALIZED FREE ENERGY PREDICTED BY IDOCK:   -4.10 KCAL/MOL
REMARK 922        TOTAL FREE ENERGY PREDICTED BY IDOCK:   -6.36 KCAL/MOL
REMARK 923 INTER-LIGAND FREE ENERGY PREDICTED BY IDOCK:   -5.10 KCAL/MOL
REMARK 924 INTRA-LIGAND FREE ENERGY PREDICTED BY IDOCK:   -1.25 KCAL/MOL
REMARK 927      BINDING AFFINITY PREDICTED BY RF-SCORE:    0.00 PKD
ROOT
HETATM    1  C   UNL     1      -7.513   7.404  72.635  1.00  0.00    -0.084 C  
HETATM    2  C   UNL     1      -6.538   6.431  71.980  1.00  0.00    -0.059 C  
ENDROOT
BRANCH   2   3
HETATM    3  C   UNL     1      -7.216   5.722  70.814  1.00  0.00    -0.079 C  
BRANCH   3   4
HETATM    4  O   UNL     1      -8.353   6.454  70.357  1.00  0.00    -0.123 OA 
HETATM    5  C   UNL     1      -9.548   5.660  70.048  1.00  0.00    -0.166 C  
HETATM    6  C   UNL     1      -9.971   4.904  71.356  1.00  0.00    -0.266 A  
HETATM    7  C   UNL     1     -10.675   6.690  69.559  1.00  0.00    -0.260 C  
HETATM    8  C   UNL     1      -9.277   4.750  68.797  1.00  0.00    -0.170 A  
HETATM    9  C   UNL     1     -10.881   5.442  72.280  1.00  0.00    -0.286 A  
HETATM   10  C   UNL     1      -9.770   2.939  72.839  1.00  0.00    -0.174 A  
HETATM   11  C   UNL     1      -9.615   3.385  68.741  1.00  0.00    -0.120 A  
HETATM   12  O   UNL     1     -11.888   6.524  69.661  1.00  0.00    -0.310 OA 
HETATM   13  C   UNL     1      -9.225   2.574  67.674  1.00  0.00    -0.225 A  
HETATM   14  C   UNL     1      -9.379   3.663  71.716  1.00  0.00    -0.195 A  
HETATM   15  C   UNL     1     -11.263   4.725  73.425  1.00  0.00    -0.425 A  
HETATM   16  C   UNL     1     -10.732   3.461  73.687  1.00  0.00    -0.302 A  
HETATM   17  C   UNL     1      -8.611   3.137  66.563  1.00  0.00    -0.119 A  
HETATM   18  C   UNL     1      -8.693   5.303  67.640  1.00  0.00    -0.106 A  
HETATM   19  C   UNL     1      -8.387   4.511  66.530  1.00  0.00    -0.106 A  
BRANCH   7  20
HETATM   20  O   UNL     1     -10.125   7.762  68.892  1.00  0.00    -0.185 OA 
BRANCH  20  21
HETATM   21  C   UNL     1     -10.651   9.084  69.166  1.00  0.00    -0.203 C  
HETATM   22  C   UNL     1      -9.654   9.928  69.962  1.00  0.00    -0.260 C  
HETATM   23  N   UNL     1      -8.626  10.817  67.845  1.00  0.00    -0.123 NA 
HETATM   24  C   UNL     1      -8.387  10.186  69.147  1.00  0.00    -0.154 C  
HETATM   25  C   UNL     1      -8.922  12.241  67.955  1.00  0.00    -0.190 C  
HETATM   26  C   UNL     1      -9.632  10.081  67.066  1.00  0.00    -0.172 C  
HETATM   27  C   UNL     1     -10.927   9.778  67.827  1.00  0.00    -0.242 C  
ENDBRANCH  20  21
ENDBRANCH   7  20
ENDBRANCH   3   4
ENDBRANCH   2   3
TORSDOF 4
ENDMDL
MODEL       60
REMARK 921   NORMALIZED FREE ENERGY PREDICTED BY IDOCK:   -4.10 KCAL/MOL
REMARK 922        TOTAL FREE ENERGY PREDICTED BY IDOCK:   -6.36 KCAL/MOL
REMARK 923 INTER-LIGAND FREE ENERGY PREDICTED BY IDOCK:   -5.50 KCAL/MOL
REMARK 924 INTRA-LIGAND FREE ENERGY PREDICTED BY IDOCK:   -0.85 KCAL/MOL
REMARK 927      BINDING AFFINITY PREDICTED BY RF-SCORE:    0.00 PKD
ROOT
HETATM    1  C   UNL     1      -6.116   8.999  71.757  1.00  0.00    -0.075 C  
HETATM    2  C   UNL     1      -7.395   8.226  71.453  1.00  0.00    -0.085 C  
ENDROOT
BRANCH   2   3
HETATM    3  C   UNL     1      -8.250   9.007  70.461  1.00  0.00    -0.168 C  
BRANCH   3   4
HETATM    4  O   UNL     1      -8.570   8.213  69.320  1.00  0.00    -0.133 OA 
HETATM    5  C   UNL     1      -9.999   8.053  69.028  1.00  0.00    -0.185 C  
HETATM    6  C   UNL     1     -10.601   9.482  68.790  1.00  0.00    -0.240 A  
HETATM    7  C   UNL     1     -10.104   7.132  67.720  1.00  0.00    -0.172 C  
HETATM    8  C   UNL     1     -10.686   7.208  70.160  1.00  0.00    -0.260 A  
HETATM    9  C   UNL     1     -10.669  10.072  67.518  1.00  0.00    -0.339 A  
HETATM   10  C   UNL     1     -11.620  11.542  69.696  1.00  0.00    -0.403 A  
HETATM   11  C   UNL     1     -11.903   7.568  70.768  1.00  0.00    -0.254 A  
HETATM   12  O   UNL     1     -11.024   7.149  66.906  1.00  0.00    -0.363 OA 
HETATM   13  C   UNL     1     -12.406   6.876  71.871  1.00  0.00    -0.364 A  
HETATM   14  C   UNL     1     -11.030  10.293  69.875  1.00  0.00    -0.358 A  
HETATM   15  C   UNL     1     -11.244  11.340  67.334  1.00  0.00    -0.370 A  
HETATM   16  C   UNL     1     -11.748  12.060  68.419  1.00  0.00    -0.390 A  
HETATM   17  C   UNL     1     -11.780   5.717  72.307  1.00  0.00    -0.265 A  
HETATM   18  C   UNL     1     -10.095   6.006  70.595  1.00  0.00    -0.246 A  
HETATM   19  C   UNL     1     -10.649   5.259  71.638  1.00  0.00    -0.261 A  
BRANCH   7  20
HETATM   20  O   UNL     1      -9.079   6.214  67.664  1.00  0.00    -0.113 OA 
BRANCH  20  21
HETATM   21  C   UNL     1      -8.071   6.373  66.635  1.00  0.00    -0.110 C  
HETATM   22  C   UNL     1      -6.668   6.468  67.237  1.00  0.00    -0.060 C  
HETATM   23  N   UNL     1      -6.372   3.975  67.089  1.00  0.00    -0.039 NA 
HETATM   24  C   UNL     1      -6.289   5.165  67.941  1.00  0.00    -0.040 C  
HETATM   25  C   UNL     1      -5.256   3.870  66.156  1.00  0.00    -0.009 C  
HETATM   26  C   UNL     1      -7.682   3.873  66.430  1.00  0.00    -0.089 C  
HETATM   27  C   UNL     1      -8.131   5.150  65.712  1.00  0.00    -0.110 C  
ENDBRANCH  20  21
ENDBRANCH   7  20
ENDBRANCH   3   4
ENDBRANCH   2   3
TORSDOF 4
ENDMDL
MODEL       61
REMARK 921   NORMALIZED FREE ENERGY PREDICTED BY IDOCK:   -4.09 KCAL/MOL
REMARK 922        TOTAL FREE ENERGY PREDICTED BY IDOCK:   -6.35 KCAL/MOL
REMARK 923 INTER-LIGAND FREE ENERGY PREDICTED BY IDOCK:   -6.06 KCAL/MOL
REMARK 924 INTRA-LIGAND FREE ENERGY PREDICTED BY IDOCK:   -0.29 KCAL/MOL
REMARK 927      BINDING AFFINITY PREDICTED BY RF-SCORE:    0.00 PKD
ROOT
HETATM    1  C   UNL     1     -10.081  12.705  65.104  1.00  0.00    -0.257 C  
HETATM    2  C   UNL     1     -10.487  14.112  64.679  1.00  0.00    -0.366 C  
ENDROOT
BRANCH   2   3
HETATM    3  C   UNL     1      -9.790  15.141  65.561  1.00  0.00    -0.321 C  
BRANCH   3   4
HETATM    4  O   UNL     1     -10.261  15.070  66.906  1.00  0.00    -0.252 OA 
HETATM    5  C   UNL     1      -9.448  15.768  67.910  1.00  0.00    -0.212 C  
HETATM    6  C   UNL     1      -9.394  17.284  67.511  1.00  0.00    -0.236 A  
HETATM    7  C   UNL     1     -10.169  15.545  69.325  1.00  0.00    -0.252 C  
HETATM    8  C   UNL     1      -8.056  15.057  68.061  1.00  0.00    -0.132 A  
HETATM    9  C   UNL     1     -10.324  18.225  67.983  1.00  0.00    -0.410 A  
HETATM   10  C   UNL     1      -8.331  19.114  66.237  1.00  0.00    -0.307 A  
HETATM   11  C   UNL     1      -6.830  15.746  68.088  1.00  0.00    -0.128 A  
HETATM   12  O   UNL     1     -10.103  16.305  70.288  1.00  0.00     0.097 OA 
HETATM   13  C   UNL     1      -5.607  15.073  68.072  1.00  0.00    -0.145 A  
HETATM   14  C   UNL     1      -8.443  17.767  66.571  1.00  0.00    -0.288 A  
HETATM   15  C   UNL     1     -10.228  19.581  67.632  1.00  0.00    -0.556 A  
HETATM   16  C   UNL     1      -9.212  20.030  66.786  1.00  0.00    -0.494 A  
HETATM   17  C   UNL     1      -5.577  13.689  68.174  1.00  0.00    -0.115 A  
HETATM   18  C   UNL     1      -7.996  13.657  68.208  1.00  0.00    -0.150 A  
HETATM   19  C   UNL     1      -6.773  12.986  68.289  1.00  0.00    -0.096 A  
BRANCH   7  20
HETATM   20  O   UNL     1     -10.796  14.320  69.386  1.00  0.00    -0.235 OA 
BRANCH  20  21
HETATM   21  C   UNL     1     -12.243  14.287  69.334  1.00  0.00    -0.278 C  
HETATM   22  C   UNL     1     -12.780  12.881  69.607  1.00  0.00     0.501 C  
HETATM   23  N   UNL     1     -12.915  13.347  72.075  1.00  0.00    -0.329 NA 
HETATM   24  C   UNL     1     -12.440  12.435  71.029  1.00  0.00    -0.256 C  
HETATM   25  C   UNL     1     -14.350  13.233  72.313  1.00  0.00    -0.100 C  
HETATM   26  C   UNL     1     -12.484  14.729  71.822  1.00  0.00    -0.343 C  
HETATM   27  C   UNL     1     -12.784  15.239  70.408  1.00  0.00    -0.400 C  
ENDBRANCH  20  21
ENDBRANCH   7  20
ENDBRANCH   3   4
ENDBRANCH   2   3
TORSDOF 4
ENDMDL
MODEL       62
REMARK 921   NORMALIZED FREE ENERGY PREDICTED BY IDOCK:   -4.05 KCAL/MOL
REMARK 922        TOTAL FREE ENERGY PREDICTED BY IDOCK:   -6.30 KCAL/MOL
REMARK 923 INTER-LIGAND FREE ENERGY PREDICTED BY IDOCK:   -5.13 KCAL/MOL
REMARK 924 INTRA-LIGAND FREE ENERGY PREDICTED BY IDOCK:   -1.17 KCAL/MOL
REMARK 927      BINDING AFFINITY PREDICTED BY RF-SCORE:    0.00 PKD
ROOT
HETATM    1  C   UNL     1     -11.065   6.206  71.673  1.00  0.00    -0.330 C  
HETATM    2  C   UNL     1     -11.575   7.004  70.478  1.00  0.00    -0.364 C  
ENDROOT
BRANCH   2   3
HETATM    3  C   UNL     1     -11.256   6.261  69.185  1.00  0.00    -0.371 C  
BRANCH   3   4
HETATM    4  O   UNL     1     -10.878   7.167  68.150  1.00  0.00    -0.183 OA 
HETATM    5  C   UNL     1      -9.503   7.037  67.652  1.00  0.00    -0.121 C  
HETATM    6  C   UNL     1      -9.334   5.582  67.088  1.00  0.00    -0.115 A  
HETATM    7  C   UNL     1      -9.318   8.148  66.511  1.00  0.00    -0.206 C  
HETATM    8  C   UNL     1      -8.486   7.451  68.774  1.00  0.00    -0.129 A  
HETATM    9  C   UNL     1      -9.580   5.259  65.744  1.00  0.00    -0.108 A  
HETATM   10  C   UNL     1      -8.795   3.202  67.465  1.00  0.00    -0.160 A  
HETATM   11  C   UNL     1      -7.343   6.699  69.103  1.00  0.00    -0.093 A  
HETATM   12  O   UNL     1      -8.540   8.076  65.562  1.00  0.00    -0.155 OA 
HETATM   13  C   UNL     1      -6.545   7.017  70.203  1.00  0.00    -0.047 A  
HETATM   14  C   UNL     1      -9.007   4.493  67.940  1.00  0.00    -0.133 A  
HETATM   15  C   UNL     1      -9.388   3.954  65.264  1.00  0.00    -0.159 A  
HETATM   16  C   UNL     1      -8.964   2.933  66.118  1.00  0.00    -0.149 A  
HETATM   17  C   UNL     1      -6.785   8.181  70.920  1.00  0.00    -0.038 A  
HETATM   18  C   UNL     1      -8.681   8.648  69.491  1.00  0.00    -0.139 A  
HETATM   19  C   UNL     1      -7.827   9.020  70.533  1.00  0.00    -0.138 A  
BRANCH   7  20
HETATM   20  O   UNL     1     -10.063   9.276  66.777  1.00  0.00    -0.225 OA 
BRANCH  20  21
HETATM   21  C   UNL     1      -9.485  10.568  66.470  1.00  0.00    -0.166 C  
HETATM   22  C   UNL     1     -10.152  11.203  65.249  1.00  0.00    -0.329 C  
HETATM   23  N   UNL     1     -11.854  12.351  66.702  1.00  0.00    -0.563 NA 
HETATM   24  C   UNL     1     -11.625  11.502  65.528  1.00  0.00     0.097 C  
HETATM   25  C   UNL     1     -11.550  13.755  66.450  1.00  0.00    -0.360 C  
HETATM   26  C   UNL     1     -11.174  11.821  67.891  1.00  0.00    -0.267 C  
HETATM   27  C   UNL     1      -9.693  11.487  67.680  1.00  0.00    -0.182 C  
ENDBRANCH  20  21
ENDBRANCH   7  20
ENDBRANCH   3   4
ENDBRANCH   2   3
TORSDOF 4
ENDMDL
MODEL       63
REMARK 921   NORMALIZED FREE ENERGY PREDICTED BY IDOCK:   -3.95 KCAL/MOL
REMARK 922        TOTAL FREE ENERGY PREDICTED BY IDOCK:   -6.17 KCAL/MOL
REMARK 923 INTER-LIGAND FREE ENERGY PREDICTED BY IDOCK:   -5.29 KCAL/MOL
REMARK 924 INTRA-LIGAND FREE ENERGY PREDICTED BY IDOCK:   -0.88 KCAL/MOL
REMARK 927      BINDING AFFINITY PREDICTED BY RF-SCORE:    0.00 PKD
ROOT
HETATM    1  C   UNL     1      -9.897   6.712  67.293  1.00  0.00    -0.184 C  
HETATM    2  C   UNL     1     -10.468   8.068  67.692  1.00  0.00    -0.301 C  
ENDROOT
BRANCH   2   3
HETATM    3  C   UNL     1      -9.341   9.086  67.828  1.00  0.00    -0.140 C  
BRANCH   3   4
HETATM    4  O   UNL     1      -9.836  10.420  67.730  1.00  0.00    -0.164 OA 
HETATM    5  C   UNL     1      -9.073  11.328  66.865  1.00  0.00    -0.167 C  
HETATM    6  C   UNL     1      -9.071  10.720  65.419  1.00  0.00    -0.216 A  
HETATM    7  C   UNL     1      -9.814  12.749  66.918  1.00  0.00    -0.236 C  
HETATM    8  C   UNL     1      -7.657  11.598  67.489  1.00  0.00    -0.128 A  
HETATM    9  C   UNL     1     -10.047  11.041  64.462  1.00  0.00    -0.380 A  
HETATM   10  C   UNL     1      -8.055   9.218  63.742  1.00  0.00    -0.155 A  
HETATM   11  C   UNL     1      -6.460  11.546  66.751  1.00  0.00    -0.128 A  
HETATM   12  O   UNL     1      -9.798  13.596  66.028  1.00  0.00    -0.295 OA 
HETATM   13  C   UNL     1      -5.212  11.644  67.368  1.00  0.00    -0.069 A  
HETATM   14  C   UNL     1      -8.121   9.736  65.032  1.00  0.00    -0.134 A  
HETATM   15  C   UNL     1      -9.997  10.505  63.165  1.00  0.00    -0.204 A  
HETATM   16  C   UNL     1      -8.983   9.619  62.796  1.00  0.00    -0.264 A  
HETATM   17  C   UNL     1      -5.129  11.940  68.721  1.00  0.00    -0.050 A  
HETATM   18  C   UNL     1      -7.545  11.941  68.851  1.00  0.00    -0.036 A  
HETATM   19  C   UNL     1      -6.298  12.134  69.451  1.00  0.00    -0.116 A  
BRANCH   7  20
HETATM   20  O   UNL     1     -10.393  12.972  68.147  1.00  0.00    -0.227 OA 
BRANCH  20  21
HETATM   21  C   UNL     1     -11.700  13.595  68.187  1.00  0.00    -0.357 C  
HETATM   22  C   UNL     1     -12.533  13.072  69.359  1.00  0.00     0.160 C  
HETATM   23  N   UNL     1     -11.662  14.889  70.865  1.00  0.00    -0.309 NA 
HETATM   24  C   UNL     1     -11.891  13.451  70.694  1.00  0.00    -0.081 C  
HETATM   25  C   UNL     1     -12.886  15.622  71.172  1.00  0.00    -0.480 C  
HETATM   26  C   UNL     1     -10.924  15.457  69.728  1.00  0.00    -0.287 C  
HETATM   27  C   UNL     1     -11.507  15.107  68.355  1.00  0.00    -0.347 C  
ENDBRANCH  20  21
ENDBRANCH   7  20
ENDBRANCH   3   4
ENDBRANCH   2   3
TORSDOF 4
ENDMDL
MODEL       64
REMARK 921   NORMALIZED FREE ENERGY PREDICTED BY IDOCK:   -3.92 KCAL/MOL
REMARK 922        TOTAL FREE ENERGY PREDICTED BY IDOCK:   -6.14 KCAL/MOL
REMARK 923 INTER-LIGAND FREE ENERGY PREDICTED BY IDOCK:   -4.89 KCAL/MOL
REMARK 924 INTRA-LIGAND FREE ENERGY PREDICTED BY IDOCK:   -1.25 KCAL/MOL
REMARK 927      BINDING AFFINITY PREDICTED BY RF-SCORE:    0.00 PKD
ROOT
HETATM    1  C   UNL     1      -6.341   5.944  68.485  1.00  0.00    -0.040 C  
HETATM    2  C   UNL     1      -5.714   6.945  67.521  1.00  0.00    -0.020 C  
ENDROOT
BRANCH   2   3
HETATM    3  C   UNL     1      -6.705   8.062  67.215  1.00  0.00    -0.065 C  
BRANCH   3   4
HETATM    4  O   UNL     1      -7.995   7.766  67.750  1.00  0.00    -0.120 OA 
HETATM    5  C   UNL     1      -9.087   7.662  66.774  1.00  0.00    -0.151 C  
HETATM    6  C   UNL     1      -8.721   6.515  65.768  1.00  0.00    -0.129 A  
HETATM    7  C   UNL     1     -10.418   7.330  67.603  1.00  0.00    -0.242 C  
HETATM    8  C   UNL     1      -9.365   9.066  66.128  1.00  0.00    -0.294 A  
HETATM    9  C   UNL     1      -9.113   5.181  65.966  1.00  0.00    -0.149 A  
HETATM   10  C   UNL     1      -7.591   5.777  63.699  1.00  0.00    -0.083 A  
HETATM   11  C   UNL     1      -9.527   9.267  64.745  1.00  0.00     0.024 A  
HETATM   12  O   UNL     1     -11.396   6.722  67.174  1.00  0.00    -0.330 OA 
HETATM   13  C   UNL     1      -9.622  10.546  64.195  1.00  0.00    -0.369 A  
HETATM   14  C   UNL     1      -7.890   6.758  64.641  1.00  0.00    -0.116 A  
HETATM   15  C   UNL     1      -8.796   4.184  65.030  1.00  0.00    -0.131 A  
HETATM   16  C   UNL     1      -8.064   4.488  63.881  1.00  0.00    -0.098 A  
HETATM   17  C   UNL     1      -9.704  11.654  65.026  1.00  0.00    -0.237 A  
HETATM   18  C   UNL     1      -9.493  10.203  66.950  1.00  0.00    -0.203 A  
HETATM   19  C   UNL     1      -9.686  11.476  66.406  1.00  0.00    -0.231 A  
BRANCH   7  20
HETATM   20  O   UNL     1     -10.395   7.914  68.851  1.00  0.00    -0.210 OA 
BRANCH  20  21
HETATM   21  C   UNL     1     -10.613   7.069  70.008  1.00  0.00    -0.230 C  
HETATM   22  C   UNL     1      -9.289   6.581  70.600  1.00  0.00    -0.166 C  
HETATM   23  N   UNL     1      -9.168   8.576  72.126  1.00  0.00    -0.249 NA 
HETATM   24  C   UNL     1      -8.468   7.753  71.135  1.00  0.00    -0.112 C  
HETATM   25  C   UNL     1      -9.237   7.941  73.438  1.00  0.00    -0.286 C  
HETATM   26  C   UNL     1     -10.481   9.015  71.632  1.00  0.00    -0.355 C  
HETATM   27  C   UNL     1     -11.356   7.889  71.069  1.00  0.00    -0.292 C  
ENDBRANCH  20  21
ENDBRANCH   7  20
ENDBRANCH   3   4
ENDBRANCH   2   3
TORSDOF 4
ENDMDL
MODEL       65
REMARK 921   NORMALIZED FREE ENERGY PREDICTED BY IDOCK:   -3.91 KCAL/MOL
REMARK 922        TOTAL FREE ENERGY PREDICTED BY IDOCK:   -6.12 KCAL/MOL
REMARK 923 INTER-LIGAND FREE ENERGY PREDICTED BY IDOCK:   -5.05 KCAL/MOL
REMARK 924 INTRA-LIGAND FREE ENERGY PREDICTED BY IDOCK:   -1.08 KCAL/MOL
REMARK 927      BINDING AFFINITY PREDICTED BY RF-SCORE:    0.00 PKD
ROOT
HETATM    1  C   UNL     1     -11.885  12.661  64.698  1.00  0.00    -0.437 C  
HETATM    2  C   UNL     1     -11.377  11.344  64.120  1.00  0.00    -0.263 C  
ENDROOT
BRANCH   2   3
HETATM    3  C   UNL     1     -10.065  10.955  64.792  1.00  0.00    -0.321 C  
BRANCH   3   4
HETATM    4  O   UNL     1     -10.229   9.799  65.612  1.00  0.00    -0.265 OA 
HETATM    5  C   UNL     1      -9.672   9.886  66.967  1.00  0.00    -0.182 C  
HETATM    6  C   UNL     1     -10.376  11.084  67.697  1.00  0.00    -0.223 A  
HETATM    7  C   UNL     1      -9.975   8.485  67.684  1.00  0.00    -0.198 C  
HETATM    8  C   UNL     1      -8.105   9.962  66.898  1.00  0.00    -0.113 A  
HETATM    9  C   UNL     1     -11.542  10.923  68.463  1.00  0.00    -0.360 A  
HETATM   10  C   UNL     1     -10.478  13.496  68.219  1.00  0.00    -0.258 A  
HETATM   11  C   UNL     1      -7.338  10.885  67.633  1.00  0.00    -0.094 A  
HETATM   12  O   UNL     1     -10.108   8.314  68.893  1.00  0.00    -0.189 OA 
HETATM   13  C   UNL     1      -5.964  11.023  67.433  1.00  0.00    -0.049 A  
HETATM   14  C   UNL     1      -9.913  12.419  67.542  1.00  0.00    -0.196 A  
HETATM   15  C   UNL     1     -12.129  12.010  69.130  1.00  0.00    -0.241 A  
HETATM   16  C   UNL     1     -11.578  13.289  69.034  1.00  0.00    -0.359 A  
HETATM   17  C   UNL     1      -5.293  10.142  66.596  1.00  0.00    -0.045 A  
HETATM   18  C   UNL     1      -7.394   9.055  66.088  1.00  0.00    -0.091 A  
HETATM   19  C   UNL     1      -6.004   9.129  65.960  1.00  0.00    -0.051 A  
BRANCH   7  20
HETATM   20  O   UNL     1      -9.960   7.443  66.783  1.00  0.00    -0.217 OA 
BRANCH  20  21
HETATM   21  C   UNL     1     -10.179   6.101  67.283  1.00  0.00    -0.191 C  
HETATM   22  C   UNL     1     -10.610   5.151  66.164  1.00  0.00    -0.293 C  
HETATM   23  N   UNL     1      -8.218   4.540  65.682  1.00  0.00    -0.109 NA 
HETATM   24  C   UNL     1      -9.498   4.993  65.127  1.00  0.00    -0.002 C  
HETATM   25  C   UNL     1      -8.213   3.116  65.999  1.00  0.00    -0.094 C  
HETATM   26  C   UNL     1      -7.792   5.380  66.810  1.00  0.00    -0.101 C  
HETATM   27  C   UNL     1      -8.864   5.591  67.885  1.00  0.00    -0.105 C  
ENDBRANCH  20  21
ENDBRANCH   7  20
ENDBRANCH   3   4
ENDBRANCH   2   3
TORSDOF 4
ENDMDL
MODEL       66
REMARK 921   NORMALIZED FREE ENERGY PREDICTED BY IDOCK:   -3.86 KCAL/MOL
REMARK 922        TOTAL FREE ENERGY PREDICTED BY IDOCK:   -6.07 KCAL/MOL
REMARK 923 INTER-LIGAND FREE ENERGY PREDICTED BY IDOCK:   -5.16 KCAL/MOL
REMARK 924 INTRA-LIGAND FREE ENERGY PREDICTED BY IDOCK:   -0.90 KCAL/MOL
REMARK 927      BINDING AFFINITY PREDICTED BY RF-SCORE:    0.00 PKD
ROOT
HETATM    1  C   UNL     1      -7.997  14.647  67.446  1.00  0.00    -0.223 C  
HETATM    2  C   UNL     1      -7.015  13.490  67.596  1.00  0.00    -0.176 C  
ENDROOT
BRANCH   2   3
HETATM    3  C   UNL     1      -7.762  12.163  67.525  1.00  0.00    -0.159 C  
BRANCH   3   4
HETATM    4  O   UNL     1      -7.799  11.663  66.189  1.00  0.00     0.026 OA 
HETATM    5  C   UNL     1      -9.043  10.996  65.786  1.00  0.00    -0.202 C  
HETATM    6  C   UNL     1     -10.211  12.034  65.932  1.00  0.00    -0.263 A  
HETATM    7  C   UNL     1      -8.844  10.526  64.266  1.00  0.00    -0.197 C  
HETATM    8  C   UNL     1      -9.220   9.660  66.592  1.00  0.00    -0.187 A  
HETATM    9  C   UNL     1     -10.618  12.868  64.878  1.00  0.00    -0.342 A  
HETATM   10  C   UNL     1     -11.937  13.114  67.329  1.00  0.00    -0.389 A  
HETATM   11  C   UNL     1     -10.425   9.278  67.209  1.00  0.00    -0.334 A  
HETATM   12  O   UNL     1      -9.742  10.375  63.441  1.00  0.00    -0.309 OA 
HETATM   13  C   UNL     1     -10.502   8.160  68.041  1.00  0.00    -0.242 A  
HETATM   14  C   UNL     1     -10.861  12.244  67.178  1.00  0.00    -0.282 A  
HETATM   15  C   UNL     1     -11.688  13.763  65.032  1.00  0.00    -0.356 A  
HETATM   16  C   UNL     1     -12.368  13.863  66.247  1.00  0.00    -0.489 A  
HETATM   17  C   UNL     1      -9.413   7.309  68.163  1.00  0.00    -0.134 A  
HETATM   18  C   UNL     1      -8.143   8.758  66.699  1.00  0.00    -0.103 A  
HETATM   19  C   UNL     1      -8.247   7.586  67.454  1.00  0.00    -0.116 A  
BRANCH   7  20
HETATM   20  O   UNL     1      -7.533  10.191  64.008  1.00  0.00    -0.139 OA 
BRANCH  20  21
HETATM   21  C   UNL     1      -7.224   9.556  62.743  1.00  0.00    -0.102 C  
HETATM   22  C   UNL     1      -5.719   9.336  62.582  1.00  0.00    -0.085 C  
HETATM   23  N   UNL     1      -5.878   7.061  63.644  1.00  0.00    -0.036 NA 
HETATM   24  C   UNL     1      -5.196   8.359  63.636  1.00  0.00    -0.057 C  
HETATM   25  C   UNL     1      -5.460   6.199  62.544  1.00  0.00    -0.022 C  
HETATM   26  C   UNL     1      -7.336   7.219  63.727  1.00  0.00    -0.089 C  
HETATM   27  C   UNL     1      -7.929   8.195  62.705  1.00  0.00    -0.156 C  
ENDBRANCH  20  21
ENDBRANCH   7  20
ENDBRANCH   3   4
ENDBRANCH   2   3
TORSDOF 4
ENDMDL
MODEL       67
REMARK 921   NORMALIZED FREE ENERGY PREDICTED BY IDOCK:   -3.86 KCAL/MOL
REMARK 922        TOTAL FREE ENERGY PREDICTED BY IDOCK:   -6.06 KCAL/MOL
REMARK 923 INTER-LIGAND FREE ENERGY PREDICTED BY IDOCK:   -5.06 KCAL/MOL
REMARK 924 INTRA-LIGAND FREE ENERGY PREDICTED BY IDOCK:   -1.00 KCAL/MOL
REMARK 927      BINDING AFFINITY PREDICTED BY RF-SCORE:    0.00 PKD
ROOT
HETATM    1  C   UNL     1     -11.885  12.773  63.578  1.00  0.00    -0.618 C  
HETATM    2  C   UNL     1     -12.438  12.530  64.979  1.00  0.00    -0.494 C  
ENDROOT
BRANCH   2   3
HETATM    3  C   UNL     1     -11.378  11.858  65.844  1.00  0.00    -0.308 C  
BRANCH   3   4
HETATM    4  O   UNL     1     -11.719  11.932  67.227  1.00  0.00    -0.518 OA 
HETATM    5  C   UNL     1     -10.784  12.674  68.082  1.00  0.00    -0.225 C  
HETATM    6  C   UNL     1     -10.703  14.144  67.538  1.00  0.00    -0.270 A  
HETATM    7  C   UNL     1     -11.374  12.617  69.572  1.00  0.00    -0.158 C  
HETATM    8  C   UNL     1      -9.416  11.908  68.170  1.00  0.00    -0.195 A  
HETATM    9  C   UNL     1     -11.542  15.169  68.003  1.00  0.00    -0.345 A  
HETATM   10  C   UNL     1      -9.690  15.794  66.005  1.00  0.00    -0.377 A  
HETATM   11  C   UNL     1      -8.164  12.533  68.019  1.00  0.00    -0.166 A  
HETATM   12  O   UNL     1     -11.183  13.456  70.449  1.00  0.00     0.204 OA 
HETATM   13  C   UNL     1      -6.979  11.798  67.954  1.00  0.00    -0.085 A  
HETATM   14  C   UNL     1      -9.828  14.491  66.474  1.00  0.00    -0.297 A  
HETATM   15  C   UNL     1     -11.422  16.482  67.519  1.00  0.00     0.275 A  
HETATM   16  C   UNL     1     -10.474  16.800  66.544  1.00  0.00    -0.258 A  
HETATM   17  C   UNL     1      -6.999  10.430  68.184  1.00  0.00    -0.073 A  
HETATM   18  C   UNL     1      -9.403  10.526  68.442  1.00  0.00    -0.158 A  
HETATM   19  C   UNL     1      -8.207   9.802  68.473  1.00  0.00    -0.106 A  
BRANCH   7  20
HETATM   20  O   UNL     1     -12.044  11.437  69.805  1.00  0.00    -0.311 OA 
BRANCH  20  21
HETATM   21  C   UNL     1     -12.070  10.918  71.158  1.00  0.00    -0.281 C  
HETATM   22  C   UNL     1     -13.469  10.434  71.544  1.00  0.00    -0.303 C  
HETATM   23  N   UNL     1     -12.962   8.117  70.705  1.00  0.00     0.219 NA 
HETATM   24  C   UNL     1     -13.893   9.249  70.675  1.00  0.00     0.472 C  
HETATM   25  C   UNL     1     -13.064   7.336  71.933  1.00  0.00    -0.242 C  
HETATM   26  C   UNL     1     -11.587   8.542  70.409  1.00  0.00    -0.069 C  
HETATM   27  C   UNL     1     -11.098   9.735  71.237  1.00  0.00    -0.375 C  
ENDBRANCH  20  21
ENDBRANCH   7  20
ENDBRANCH   3   4
ENDBRANCH   2   3
TORSDOF 4
ENDMDL
MODEL       68
REMARK 921   NORMALIZED FREE ENERGY PREDICTED BY IDOCK:   -3.85 KCAL/MOL
REMARK 922        TOTAL FREE ENERGY PREDICTED BY IDOCK:   -6.04 KCAL/MOL
REMARK 923 INTER-LIGAND FREE ENERGY PREDICTED BY IDOCK:   -5.11 KCAL/MOL
REMARK 924 INTRA-LIGAND FREE ENERGY PREDICTED BY IDOCK:   -0.93 KCAL/MOL
REMARK 927      BINDING AFFINITY PREDICTED BY RF-SCORE:    0.00 PKD
ROOT
HETATM    1  C   UNL     1     -10.649  11.989  64.255  1.00  0.00    -0.377 C  
HETATM    2  C   UNL     1     -11.159  10.823  65.098  1.00  0.00     0.212 C  
ENDROOT
BRANCH   2   3
HETATM    3  C   UNL     1     -10.009  10.220  65.897  1.00  0.00    -0.256 C  
BRANCH   3   4
HETATM    4  O   UNL     1      -9.179  11.238  66.455  1.00  0.00    -0.180 OA 
HETATM    5  C   UNL     1      -8.673  10.984  67.809  1.00  0.00    -0.130 C  
HETATM    6  C   UNL     1      -7.830   9.662  67.764  1.00  0.00    -0.094 A  
HETATM    7  C   UNL     1      -7.780  12.252  68.215  1.00  0.00    -0.143 C  
HETATM    8  C   UNL     1      -9.862  10.995  68.836  1.00  0.00    -0.189 A  
HETATM    9  C   UNL     1      -6.446   9.655  67.523  1.00  0.00    -0.069 A  
HETATM   10  C   UNL     1      -7.724   7.198  67.900  1.00  0.00    -0.113 A  
HETATM   11  C   UNL     1     -10.039  10.015  69.830  1.00  0.00    -0.284 A  
HETATM   12  O   UNL     1      -6.841  12.242  69.006  1.00  0.00    -0.097 OA 
HETATM   13  C   UNL     1     -11.186   9.974  70.625  1.00  0.00    -0.425 A  
HETATM   14  C   UNL     1      -8.447   8.387  67.880  1.00  0.00    -0.131 A  
HETATM   15  C   UNL     1      -5.715   8.457  67.521  1.00  0.00    -0.039 A  
HETATM   16  C   UNL     1      -6.348   7.232  67.743  1.00  0.00    -0.048 A  
HETATM   17  C   UNL     1     -12.120  10.997  70.547  1.00  0.00    -0.470 A  
HETATM   18  C   UNL     1     -10.803  12.043  68.808  1.00  0.00    -0.267 A  
HETATM   19  C   UNL     1     -11.903  12.055  69.669  1.00  0.00    -0.401 A  
BRANCH   7  20
HETATM   20  O   UNL     1      -8.263  13.412  67.650  1.00  0.00    -0.151 OA 
BRANCH  20  21
HETATM   21  C   UNL     1      -8.413  14.577  68.498  1.00  0.00    -0.166 C  
HETATM   22  C   UNL     1      -7.291  15.590  68.258  1.00  0.00    -0.117 C  
HETATM   23  N   UNL     1      -8.641  16.754  66.484  1.00  0.00    -0.252 NA 
HETATM   24  C   UNL     1      -7.355  16.145  66.836  1.00  0.00    -0.220 C  
HETATM   25  C   UNL     1      -8.820  18.075  67.077  1.00  0.00    -0.254 C  
HETATM   26  C   UNL     1      -9.762  15.845  66.762  1.00  0.00    -0.238 C  
HETATM   27  C   UNL     1      -9.756  15.241  68.170  1.00  0.00    -0.212 C  
ENDBRANCH  20  21
ENDBRANCH   7  20
ENDBRANCH   3   4
ENDBRANCH   2   3
TORSDOF 4
ENDMDL
MODEL       69
REMARK 921   NORMALIZED FREE ENERGY PREDICTED BY IDOCK:   -3.84 KCAL/MOL
REMARK 922        TOTAL FREE ENERGY PREDICTED BY IDOCK:   -6.04 KCAL/MOL
REMARK 923 INTER-LIGAND FREE ENERGY PREDICTED BY IDOCK:   -4.75 KCAL/MOL
REMARK 924 INTRA-LIGAND FREE ENERGY PREDICTED BY IDOCK:   -1.29 KCAL/MOL
REMARK 927      BINDING AFFINITY PREDICTED BY RF-SCORE:    0.00 PKD
ROOT
HETATM    1  C   UNL     1      -8.797   6.358  67.019  1.00  0.00    -0.115 C  
HETATM    2  C   UNL     1      -9.818   7.449  66.718  1.00  0.00    -0.290 C  
ENDROOT
BRANCH   2   3
HETATM    3  C   UNL     1     -10.476   7.915  68.011  1.00  0.00    -0.185 C  
BRANCH   3   4
HETATM    4  O   UNL     1      -9.659   7.617  69.142  1.00  0.00    -0.154 OA 
HETATM    5  C   UNL     1      -9.286   8.760  69.985  1.00  0.00    -0.168 C  
HETATM    6  C   UNL     1     -10.610   9.410  70.521  1.00  0.00    -0.331 A  
HETATM    7  C   UNL     1      -8.378   8.182  71.173  1.00  0.00    -0.120 C  
HETATM    8  C   UNL     1      -8.331   9.722  69.192  1.00  0.00    -0.137 A  
HETATM    9  C   UNL     1     -11.200   9.032  71.738  1.00  0.00    -0.448 A  
HETATM   10  C   UNL     1     -12.477  10.998  70.217  1.00  0.00    -0.365 A  
HETATM   11  C   UNL     1      -8.492  11.119  69.155  1.00  0.00     0.029 A  
HETATM   12  O   UNL     1      -8.265   8.676  72.292  1.00  0.00    -0.314 OA 
HETATM   13  C   UNL     1      -7.716  11.926  68.321  1.00  0.00    -0.127 A  
HETATM   14  C   UNL     1     -11.331  10.361  69.749  1.00  0.00    -0.353 A  
HETATM   15  C   UNL     1     -12.367   9.657  72.204  1.00  0.00    -0.290 A  
HETATM   16  C   UNL     1     -12.987  10.662  71.459  1.00  0.00    -0.566 A  
HETATM   17  C   UNL     1      -6.661  11.375  67.608  1.00  0.00    -0.074 A  
HETATM   18  C   UNL     1      -7.227   9.195  68.493  1.00  0.00    -0.073 A  
HETATM   19  C   UNL     1      -6.390  10.015  67.732  1.00  0.00    -0.058 A  
BRANCH   7  20
HETATM   20  O   UNL     1      -7.629   7.103  70.758  1.00  0.00    -0.086 OA 
BRANCH  20  21
HETATM   21  C   UNL     1      -7.497   5.973  71.654  1.00  0.00    -0.094 C  
HETATM   22  C   UNL     1      -8.808   5.193  71.766  1.00  0.00    -0.144 C  
HETATM   23  N   UNL     1      -8.152   3.701  69.850  1.00  0.00    -0.053 NA 
HETATM   24  C   UNL     1      -9.186   4.569  70.423  1.00  0.00    -0.128 C  
HETATM   25  C   UNL     1      -8.082   2.400  70.507  1.00  0.00    -0.041 C  
HETATM   26  C   UNL     1      -6.852   4.382  69.785  1.00  0.00    -0.041 C  
HETATM   27  C   UNL     1      -6.414   5.041  71.097  1.00  0.00    -0.023 C  
ENDBRANCH  20  21
ENDBRANCH   7  20
ENDBRANCH   3   4
ENDBRANCH   2   3
TORSDOF 4
ENDMDL
MODEL       70
REMARK 921   NORMALIZED FREE ENERGY PREDICTED BY IDOCK:   -3.83 KCAL/MOL
REMARK 922        TOTAL FREE ENERGY PREDICTED BY IDOCK:   -6.03 KCAL/MOL
REMARK 923 INTER-LIGAND FREE ENERGY PREDICTED BY IDOCK:   -5.43 KCAL/MOL
REMARK 924 INTRA-LIGAND FREE ENERGY PREDICTED BY IDOCK:   -0.59 KCAL/MOL
REMARK 927      BINDING AFFINITY PREDICTED BY RF-SCORE:    0.00 PKD
ROOT
HETATM    1  C   UNL     1      -6.600   7.618  71.961  1.00  0.00    -0.054 C  
HETATM    2  C   UNL     1      -7.796   8.563  72.010  1.00  0.00    -0.150 C  
ENDROOT
BRANCH   2   3
HETATM    3  C   UNL     1      -8.058   9.138  70.622  1.00  0.00    -0.172 C  
BRANCH   3   4
HETATM    4  O   UNL     1      -8.658   8.167  69.767  1.00  0.00    -0.130 OA 
HETATM    5  C   UNL     1      -9.888   8.584  69.083  1.00  0.00    -0.186 C  
HETATM    6  C   UNL     1      -9.544   9.837  68.203  1.00  0.00    -0.158 A  
HETATM    7  C   UNL     1     -10.368   7.340  68.193  1.00  0.00    -0.194 C  
HETATM    8  C   UNL     1     -11.041   8.788  70.130  1.00  0.00    -0.214 A  
HETATM    9  C   UNL     1      -9.139   9.732  66.863  1.00  0.00    -0.162 A  
HETATM   10  C   UNL     1      -9.295  12.285  67.989  1.00  0.00    -0.195 A  
HETATM   11  C   UNL     1     -11.891   9.909  70.142  1.00  0.00    -0.191 A  
HETATM   12  O   UNL     1     -11.030   7.412  67.160  1.00  0.00    -0.312 OA 
HETATM   13  C   UNL     1     -12.803  10.128  71.175  1.00  0.00    -0.494 A  
HETATM   14  C   UNL     1      -9.541  11.148  68.753  1.00  0.00    -0.180 A  
HETATM   15  C   UNL     1      -8.869  10.875  66.093  1.00  0.00    -0.195 A  
HETATM   16  C   UNL     1      -8.979  12.152  66.647  1.00  0.00    -0.198 A  
HETATM   17  C   UNL     1     -12.994   9.159  72.150  1.00  0.00    -0.498 A  
HETATM   18  C   UNL     1     -11.284   7.801  71.106  1.00  0.00    -0.285 A  
HETATM   19  C   UNL     1     -12.264   7.975  72.087  1.00  0.00    -0.377 A  
BRANCH   7  20
HETATM   20  O   UNL     1     -10.047   6.140  68.788  1.00  0.00    -0.149 OA 
BRANCH  20  21
HETATM   21  C   UNL     1      -8.715   5.608  68.583  1.00  0.00    -0.106 C  
HETATM   22  C   UNL     1      -8.437   4.424  69.511  1.00  0.00    -0.095 C  
HETATM   23  N   UNL     1      -9.308   2.801  67.799  1.00  0.00    -0.206 NA 
HETATM   24  C   UNL     1      -9.366   3.253  69.192  1.00  0.00    -0.163 C  
HETATM   25  C   UNL     1      -8.113   2.015  67.511  1.00  0.00    -0.065 C  
HETATM   26  C   UNL     1      -9.500   3.916  66.861  1.00  0.00    -0.202 C  
HETATM   27  C   UNL     1      -8.606   5.132  67.129  1.00  0.00    -0.105 C  
ENDBRANCH  20  21
ENDBRANCH   7  20
ENDBRANCH   3   4
ENDBRANCH   2   3
TORSDOF 4
ENDMDL
MODEL       71
REMARK 921   NORMALIZED FREE ENERGY PREDICTED BY IDOCK:   -3.82 KCAL/MOL
REMARK 922        TOTAL FREE ENERGY PREDICTED BY IDOCK:   -6.02 KCAL/MOL
REMARK 923 INTER-LIGAND FREE ENERGY PREDICTED BY IDOCK:   -6.47 KCAL/MOL
REMARK 924 INTRA-LIGAND FREE ENERGY PREDICTED BY IDOCK:    0.45 KCAL/MOL
REMARK 927      BINDING AFFINITY PREDICTED BY RF-SCORE:    0.00 PKD
ROOT
HETATM    1  C   UNL     1     -11.733  13.214  64.100  1.00  0.00    -0.472 C  
HETATM    2  C   UNL     1     -12.521  13.681  65.320  1.00  0.00    -0.517 C  
ENDROOT
BRANCH   2   3
HETATM    3  C   UNL     1     -11.833  14.886  65.951  1.00  0.00    -0.113 C  
BRANCH   3   4
HETATM    4  O   UNL     1     -11.807  14.779  67.374  1.00  0.00    -0.377 OA 
HETATM    5  C   UNL     1     -10.492  14.532  67.977  1.00  0.00    -0.236 C  
HETATM    6  C   UNL     1      -9.552  15.724  67.578  1.00  0.00    -0.224 A  
HETATM    7  C   UNL     1     -10.718  14.451  69.562  1.00  0.00    -0.107 C  
HETATM    8  C   UNL     1      -9.980  13.102  67.578  1.00  0.00    -0.223 A  
HETATM    9  C   UNL     1      -9.414  16.876  68.369  1.00  0.00    -0.258 A  
HETATM   10  C   UNL     1      -7.971  16.746  65.980  1.00  0.00    -0.110 A  
HETATM   11  C   UNL     1      -8.674  12.844  67.121  1.00  0.00    -0.205 A  
HETATM   12  O   UNL     1      -9.881  14.724  70.419  1.00  0.00     0.380 OA 
HETATM   13  C   UNL     1      -8.301  11.590  66.634  1.00  0.00    -0.167 A  
HETATM   14  C   UNL     1      -8.855  15.733  66.340  1.00  0.00    -0.371 A  
HETATM   15  C   UNL     1      -8.539  17.910  68.000  1.00  0.00    -0.256 A  
HETATM   16  C   UNL     1      -7.794  17.830  66.823  1.00  0.00    -0.262 A  
HETATM   17  C   UNL     1      -9.180  10.521  66.726  1.00  0.00    -0.175 A  
HETATM   18  C   UNL     1     -10.837  11.991  67.699  1.00  0.00    -0.273 A  
HETATM   19  C   UNL     1     -10.433  10.714  67.301  1.00  0.00    -0.293 A  
BRANCH   7  20
HETATM   20  O   UNL     1     -11.950  13.918  69.870  1.00  0.00    -0.300 OA 
BRANCH  20  21
HETATM   21  C   UNL     1     -13.007  14.823  70.275  1.00  0.00    -0.135 C  
HETATM   22  C   UNL     1     -13.908  14.190  71.337  1.00  0.00    -0.321 C  
HETATM   23  N   UNL     1     -12.469  15.104  73.186  1.00  0.00    -0.411 NA 
HETATM   24  C   UNL     1     -13.126  13.920  72.623  1.00  0.00    -0.429 C  
HETATM   25  C   UNL     1     -13.401  15.997  73.865  1.00  0.00     0.057 C  
HETATM   26  C   UNL     1     -11.643  15.790  72.184  1.00  0.00    -0.436 C  
HETATM   27  C   UNL     1     -12.361  16.083  70.862  1.00  0.00    -0.234 C  
ENDBRANCH  20  21
ENDBRANCH   7  20
ENDBRANCH   3   4
ENDBRANCH   2   3
TORSDOF 4
ENDMDL
MODEL       72
REMARK 921   NORMALIZED FREE ENERGY PREDICTED BY IDOCK:   -3.82 KCAL/MOL
REMARK 922        TOTAL FREE ENERGY PREDICTED BY IDOCK:   -6.01 KCAL/MOL
REMARK 923 INTER-LIGAND FREE ENERGY PREDICTED BY IDOCK:   -4.94 KCAL/MOL
REMARK 924 INTRA-LIGAND FREE ENERGY PREDICTED BY IDOCK:   -1.07 KCAL/MOL
REMARK 927      BINDING AFFINITY PREDICTED BY RF-SCORE:    0.00 PKD
ROOT
HETATM    1  C   UNL     1     -13.118  10.749  70.956  1.00  0.00    -0.338 C  
HETATM    2  C   UNL     1     -12.188   9.674  71.510  1.00  0.00    -0.483 C  
ENDROOT
BRANCH   2   3
HETATM    3  C   UNL     1     -10.773   9.895  70.989  1.00  0.00    -0.171 C  
BRANCH   3   4
HETATM    4  O   UNL     1      -9.895   8.859  71.428  1.00  0.00    -0.251 OA 
HETATM    5  C   UNL     1      -8.881   8.423  70.461  1.00  0.00    -0.148 C  
HETATM    6  C   UNL     1      -7.996   9.668  70.101  1.00  0.00    -0.189 A  
HETATM    7  C   UNL     1      -8.028   7.267  71.173  1.00  0.00    -0.101 C  
HETATM    8  C   UNL     1      -9.572   7.709  69.244  1.00  0.00    -0.159 A  
HETATM    9  C   UNL     1      -6.821   9.989  70.800  1.00  0.00     0.016 A  
HETATM   10  C   UNL     1      -7.606  11.674  68.713  1.00  0.00    -0.119 A  
HETATM   11  C   UNL     1      -9.254   7.980  67.901  1.00  0.00    -0.137 A  
HETATM   12  O   UNL     1      -6.859   6.984  70.924  1.00  0.00    -0.052 OA 
HETATM   13  C   UNL     1      -9.992   7.438  66.847  1.00  0.00    -0.307 A  
HETATM   14  C   UNL     1      -8.393  10.591  69.096  1.00  0.00    -0.154 A  
HETATM   15  C   UNL     1      -6.035  11.092  70.432  1.00  0.00    -0.141 A  
HETATM   16  C   UNL     1      -6.410  11.914  69.369  1.00  0.00    -0.115 A  
HETATM   17  C   UNL     1     -10.978   6.496  67.104  1.00  0.00    -0.480 A  
HETATM   18  C   UNL     1     -10.549   6.720  69.475  1.00  0.00    -0.265 A  
HETATM   19  C   UNL     1     -11.224   6.105  68.417  1.00  0.00    -0.215 A  
BRANCH   7  20
HETATM   20  O   UNL     1      -8.803   6.529  72.041  1.00  0.00    -0.133 OA 
BRANCH  20  21
HETATM   21  C   UNL     1      -8.243   5.315  72.598  1.00  0.00    -0.113 C  
HETATM   22  C   UNL     1      -8.712   5.093  74.037  1.00  0.00    -0.117 C  
HETATM   23  N   UNL     1     -10.700   3.770  73.248  1.00  0.00    -0.186 NA 
HETATM   24  C   UNL     1     -10.223   4.872  74.089  1.00  0.00    -0.241 C  
HETATM   25  C   UNL     1     -10.424   2.459  73.828  1.00  0.00    -0.136 C  
HETATM   26  C   UNL     1     -10.218   3.898  71.866  1.00  0.00    -0.073 C  
HETATM   27  C   UNL     1      -8.709   4.133  71.739  1.00  0.00    -0.135 C  
ENDBRANCH  20  21
ENDBRANCH   7  20
ENDBRANCH   3   4
ENDBRANCH   2   3
TORSDOF 4
ENDMDL
MODEL       73
REMARK 921   NORMALIZED FREE ENERGY PREDICTED BY IDOCK:   -3.81 KCAL/MOL
REMARK 922        TOTAL FREE ENERGY PREDICTED BY IDOCK:   -6.00 KCAL/MOL
REMARK 923 INTER-LIGAND FREE ENERGY PREDICTED BY IDOCK:   -4.62 KCAL/MOL
REMARK 924 INTRA-LIGAND FREE ENERGY PREDICTED BY IDOCK:   -1.38 KCAL/MOL
REMARK 927      BINDING AFFINITY PREDICTED BY RF-SCORE:    0.00 PKD
ROOT
HETATM    1  C   UNL     1      -6.635  11.430  68.655  1.00  0.00    -0.062 C  
HETATM    2  C   UNL     1      -6.346   9.971  68.993  1.00  0.00    -0.044 C  
ENDROOT
BRANCH   2   3
HETATM    3  C   UNL     1      -6.325   9.138  67.717  1.00  0.00    -0.055 C  
BRANCH   3   4
HETATM    4  O   UNL     1      -7.197   8.013  67.821  1.00  0.00    -0.087 OA 
HETATM    5  C   UNL     1      -8.231   7.902  66.785  1.00  0.00    -0.116 C  
HETATM    6  C   UNL     1      -7.508   7.809  65.396  1.00  0.00    -0.081 A  
HETATM    7  C   UNL     1      -9.074   6.578  67.112  1.00  0.00    -0.120 C  
HETATM    8  C   UNL     1      -9.266   9.074  66.933  1.00  0.00    -0.179 A  
HETATM    9  C   UNL     1      -7.151   6.584  64.809  1.00  0.00    -0.053 A  
HETATM   10  C   UNL     1      -6.503   8.933  63.439  1.00  0.00    -0.089 A  
HETATM   11  C   UNL     1      -9.720   9.851  65.852  1.00  0.00    -0.326 A  
HETATM   12  O   UNL     1      -9.676   5.892  66.290  1.00  0.00    -0.154 OA 
HETATM   13  C   UNL     1     -10.522  10.978  66.042  1.00  0.00    -0.304 A  
HETATM   14  C   UNL     1      -7.095   8.977  64.698  1.00  0.00    -0.089 A  
HETATM   15  C   UNL     1      -6.534   6.535  63.549  1.00  0.00    -0.037 A  
HETATM   16  C   UNL     1      -6.240   7.707  62.850  1.00  0.00    -0.063 A  
HETATM   17  C   UNL     1     -11.010  11.276  67.307  1.00  0.00    -0.342 A  
HETATM   18  C   UNL     1      -9.809   9.374  68.198  1.00  0.00    -0.183 A  
HETATM   19  C   UNL     1     -10.689  10.445  68.376  1.00  0.00    -0.263 A  
BRANCH   7  20
HETATM   20  O   UNL     1      -9.147   6.348  68.468  1.00  0.00    -0.127 OA 
BRANCH  20  21
HETATM   21  C   UNL     1     -10.185   5.463  68.959  1.00  0.00    -0.221 C  
HETATM   22  C   UNL     1      -9.659   4.546  70.065  1.00  0.00    -0.267 C  
HETATM   23  N   UNL     1     -10.298   6.215  71.834  1.00  0.00    -0.204 NA 
HETATM   24  C   UNL     1      -9.241   5.357  71.291  1.00  0.00    -0.146 C  
HETATM   25  C   UNL     1     -11.297   5.468  72.590  1.00  0.00    -0.291 C  
HETATM   26  C   UNL     1     -10.886   7.070  70.794  1.00  0.00    -0.246 C  
HETATM   27  C   UNL     1     -11.319   6.323  69.528  1.00  0.00    -0.475 C  
ENDBRANCH  20  21
ENDBRANCH   7  20
ENDBRANCH   3   4
ENDBRANCH   2   3
TORSDOF 4
ENDMDL
MODEL       74
REMARK 921   NORMALIZED FREE ENERGY PREDICTED BY IDOCK:   -3.80 KCAL/MOL
REMARK 922        TOTAL FREE ENERGY PREDICTED BY IDOCK:   -5.99 KCAL/MOL
REMARK 923 INTER-LIGAND FREE ENERGY PREDICTED BY IDOCK:   -4.88 KCAL/MOL
REMARK 924 INTRA-LIGAND FREE ENERGY PREDICTED BY IDOCK:   -1.11 KCAL/MOL
REMARK 927      BINDING AFFINITY PREDICTED BY RF-SCORE:    0.00 PKD
ROOT
HETATM    1  C   UNL     1      -6.180  12.689  68.365  1.00  0.00    -0.067 C  
HETATM    2  C   UNL     1      -6.913  14.004  68.611  1.00  0.00    -0.106 C  
ENDROOT
BRANCH   2   3
HETATM    3  C   UNL     1      -8.318  13.724  69.132  1.00  0.00     0.369 C  
BRANCH   3   4
HETATM    4  O   UNL     1      -9.052  12.908  68.221  1.00  0.00    -0.199 OA 
HETATM    5  C   UNL     1     -10.397  13.382  67.872  1.00  0.00    -0.238 C  
HETATM    6  C   UNL     1     -10.248  14.801  67.217  1.00  0.00    -0.241 A  
HETATM    7  C   UNL     1     -11.015  12.312  66.851  1.00  0.00    -0.267 C  
HETATM    8  C   UNL     1     -11.334  13.312  69.130  1.00  0.00    -0.336 A  
HETATM    9  C   UNL     1     -10.103  14.983  65.833  1.00  0.00    -0.343 A  
HETATM   10  C   UNL     1     -10.087  17.253  67.463  1.00  0.00    -0.315 A  
HETATM   11  C   UNL     1     -12.185  14.361  69.525  1.00  0.00    -0.325 A  
HETATM   12  O   UNL     1     -11.862  12.549  65.992  1.00  0.00    -0.407 OA 
HETATM   13  C   UNL     1     -12.889  14.322  70.730  1.00  0.00    -0.404 A  
HETATM   14  C   UNL     1     -10.163  15.976  68.012  1.00  0.00    -0.245 A  
HETATM   15  C   UNL     1     -10.004  16.268  65.275  1.00  0.00     0.058 A  
HETATM   16  C   UNL     1     -10.030  17.403  66.087  1.00  0.00    -0.281 A  
HETATM   17  C   UNL     1     -12.874  13.171  71.505  1.00  0.00    -0.401 A  
HETATM   18  C   UNL     1     -11.369  12.142  69.913  1.00  0.00    -0.109 A  
HETATM   19  C   UNL     1     -12.149  12.065  71.071  1.00  0.00    -0.083 A  
BRANCH   7  20
HETATM   20  O   UNL     1     -10.565  11.038  67.120  1.00  0.00    -0.223 OA 
BRANCH  20  21
HETATM   21  C   UNL     1     -10.259  10.169  66.003  1.00  0.00    -0.218 C  
HETATM   22  C   UNL     1      -8.773  10.226  65.642  1.00  0.00    -0.176 C  
HETATM   23  N   UNL     1      -8.259   8.329  67.212  1.00  0.00    -0.119 NA 
HETATM   24  C   UNL     1      -7.914   9.690  66.787  1.00  0.00    -0.105 C  
HETATM   25  C   UNL     1      -7.774   7.311  66.286  1.00  0.00    -0.097 C  
HETATM   26  C   UNL     1      -9.693   8.202  67.504  1.00  0.00    -0.161 C  
HETATM   27  C   UNL     1     -10.615   8.732  66.401  1.00  0.00     0.163 C  
ENDBRANCH  20  21
ENDBRANCH   7  20
ENDBRANCH   3   4
ENDBRANCH   2   3
TORSDOF 4
ENDMDL
MODEL       75
REMARK 921   NORMALIZED FREE ENERGY PREDICTED BY IDOCK:   -3.73 KCAL/MOL
REMARK 922        TOTAL FREE ENERGY PREDICTED BY IDOCK:   -5.90 KCAL/MOL
REMARK 923 INTER-LIGAND FREE ENERGY PREDICTED BY IDOCK:   -4.91 KCAL/MOL
REMARK 924 INTRA-LIGAND FREE ENERGY PREDICTED BY IDOCK:   -0.99 KCAL/MOL
REMARK 927      BINDING AFFINITY PREDICTED BY RF-SCORE:    0.00 PKD
ROOT
HETATM    1  C   UNL     1      -7.636   9.325  71.295  1.00  0.00     0.012 C  
HETATM    2  C   UNL     1      -6.858  10.314  70.434  1.00  0.00    -0.109 C  
ENDROOT
BRANCH   2   3
HETATM    3  C   UNL     1      -7.820  11.116  69.565  1.00  0.00     0.173 C  
BRANCH   3   4
HETATM    4  O   UNL     1      -8.472  10.280  68.610  1.00  0.00    -0.114 OA 
HETATM    5  C   UNL     1      -9.868  10.616  68.307  1.00  0.00    -0.163 C  
HETATM    6  C   UNL     1      -9.896  12.081  67.746  1.00  0.00    -0.190 A  
HETATM    7  C   UNL     1     -10.376   9.549  67.224  1.00  0.00    -0.255 C  
HETATM    8  C   UNL     1     -10.768  10.357  69.568  1.00  0.00    -0.284 A  
HETATM    9  C   UNL     1      -9.797  12.368  66.375  1.00  0.00    -0.249 A  
HETATM   10  C   UNL     1     -10.015  14.515  68.151  1.00  0.00    -0.220 A  
HETATM   11  C   UNL     1     -11.727  11.271  70.039  1.00  0.00    -0.428 A  
HETATM   12  O   UNL     1     -11.260   9.740  66.392  1.00  0.00     0.388 OA 
HETATM   13  C   UNL     1     -12.400  11.073  71.246  1.00  0.00    -0.426 A  
HETATM   14  C   UNL     1      -9.933  13.205  68.615  1.00  0.00    -0.117 A  
HETATM   15  C   UNL     1      -9.858  13.689  65.902  1.00  0.00    -0.263 A  
HETATM   16  C   UNL     1     -10.000  14.759  66.788  1.00  0.00    -0.256 A  
HETATM   17  C   UNL     1     -12.238   9.884  71.943  1.00  0.00    -0.333 A  
HETATM   18  C   UNL     1     -10.654   9.142  70.272  1.00  0.00    -0.261 A  
HETATM   19  C   UNL     1     -11.399   8.900  71.430  1.00  0.00    -0.380 A  
BRANCH   7  20
HETATM   20  O   UNL     1      -9.778   8.322  67.404  1.00  0.00    -0.155 OA 
BRANCH  20  21
HETATM   21  C   UNL     1     -10.427   7.153  66.846  1.00  0.00    -0.294 C  
HETATM   22  C   UNL     1      -9.418   6.222  66.171  1.00  0.00    -0.092 C  
HETATM   23  N   UNL     1      -9.064   4.955  68.314  1.00  0.00    -0.110 NA 
HETATM   24  C   UNL     1      -8.432   5.657  67.192  1.00  0.00    -0.110 C  
HETATM   25  C   UNL     1      -9.546   3.628  67.949  1.00  0.00    -0.122 C  
HETATM   26  C   UNL     1     -10.094   5.783  68.956  1.00  0.00    -0.191 C  
HETATM   27  C   UNL     1     -11.113   6.393  67.987  1.00  0.00    -0.365 C  
ENDBRANCH  20  21
ENDBRANCH   7  20
ENDBRANCH   3   4
ENDBRANCH   2   3
TORSDOF 4
ENDMDL
MODEL       76
REMARK 921   NORMALIZED FREE ENERGY PREDICTED BY IDOCK:   -3.71 KCAL/MOL
REMARK 922        TOTAL FREE ENERGY PREDICTED BY IDOCK:   -5.88 KCAL/MOL
REMARK 923 INTER-LIGAND FREE ENERGY PREDICTED BY IDOCK:   -5.75 KCAL/MOL
REMARK 924 INTRA-LIGAND FREE ENERGY PREDICTED BY IDOCK:   -0.13 KCAL/MOL
REMARK 927      BINDING AFFINITY PREDICTED BY RF-SCORE:    0.00 PKD
ROOT
HETATM    1  C   UNL     1     -12.754  12.271  64.282  1.00  0.00    -0.413 C  
HETATM    2  C   UNL     1     -11.307  12.209  64.761  1.00  0.00    -0.378 C  
ENDROOT
BRANCH   2   3
HETATM    3  C   UNL     1     -11.249  11.606  66.160  1.00  0.00    -0.254 C  
BRANCH   3   4
HETATM    4  O   UNL     1      -9.902  11.354  66.557  1.00  0.00    -0.200 OA 
HETATM    5  C   UNL     1      -9.491  11.935  67.841  1.00  0.00    -0.194 C  
HETATM    6  C   UNL     1     -10.427  11.345  68.954  1.00  0.00    -0.219 A  
HETATM    7  C   UNL     1      -7.958  11.523  68.066  1.00  0.00    -0.130 C  
HETATM    8  C   UNL     1      -9.466  13.502  67.738  1.00  0.00    -0.216 A  
HETATM    9  C   UNL     1     -10.109  10.180  69.670  1.00  0.00    -0.265 A  
HETATM   10  C   UNL     1     -12.528  11.455  70.248  1.00  0.00    -0.312 A  
HETATM   11  C   UNL     1     -10.031  14.354  68.705  1.00  0.00    -0.241 A  
HETATM   12  O   UNL     1      -7.405  11.392  69.156  1.00  0.00    -0.116 OA 
HETATM   13  C   UNL     1     -10.123  15.732  68.506  1.00  0.00    -0.215 A  
HETATM   14  C   UNL     1     -11.698  11.918  69.231  1.00  0.00    -0.389 A  
HETATM   15  C   UNL     1     -10.953   9.696  70.682  1.00  0.00    -0.386 A  
HETATM   16  C   UNL     1     -12.146  10.352  70.993  1.00  0.00    -0.488 A  
HETATM   17  C   UNL     1      -9.522  16.315  67.399  1.00  0.00    -0.227 A  
HETATM   18  C   UNL     1      -8.829  14.122  66.646  1.00  0.00    -0.141 A  
HETATM   19  C   UNL     1      -8.836  15.512  66.493  1.00  0.00    -0.348 A  
BRANCH   7  20
HETATM   20  O   UNL     1      -7.277  11.438  66.872  1.00  0.00    -0.131 OA 
BRANCH  20  21
HETATM   21  C   UNL     1      -7.610  10.356  65.968  1.00  0.00    -0.137 C  
HETATM   22  C   UNL     1      -6.615  10.271  64.809  1.00  0.00    -0.097 C  
HETATM   23  N   UNL     1      -5.151   8.688  66.104  1.00  0.00    -0.030 NA 
HETATM   24  C   UNL     1      -5.216   9.924  65.317  1.00  0.00    -0.050 C  
HETATM   25  C   UNL     1      -5.217   7.489  65.276  1.00  0.00    -0.029 C  
HETATM   26  C   UNL     1      -6.138   8.689  67.192  1.00  0.00    -0.055 C  
HETATM   27  C   UNL     1      -7.564   9.041  66.755  1.00  0.00    -0.090 C  
ENDBRANCH  20  21
ENDBRANCH   7  20
ENDBRANCH   3   4
ENDBRANCH   2   3
TORSDOF 4
ENDMDL
MODEL       77
REMARK 921   NORMALIZED FREE ENERGY PREDICTED BY IDOCK:   -3.71 KCAL/MOL
REMARK 922        TOTAL FREE ENERGY PREDICTED BY IDOCK:   -5.87 KCAL/MOL
REMARK 923 INTER-LIGAND FREE ENERGY PREDICTED BY IDOCK:   -4.97 KCAL/MOL
REMARK 924 INTRA-LIGAND FREE ENERGY PREDICTED BY IDOCK:   -0.90 KCAL/MOL
REMARK 927      BINDING AFFINITY PREDICTED BY RF-SCORE:    0.00 PKD
ROOT
HETATM    1  C   UNL     1     -11.429  12.778  67.700  1.00  0.00    -0.387 C  
HETATM    2  C   UNL     1     -11.444  11.861  66.482  1.00  0.00    -0.381 C  
ENDROOT
BRANCH   2   3
HETATM    3  C   UNL     1     -10.337  10.819  66.604  1.00  0.00    -0.241 C  
BRANCH   3   4
HETATM    4  O   UNL     1     -10.189  10.380  67.953  1.00  0.00    -0.165 OA 
HETATM    5  C   UNL     1      -9.081   9.452  68.210  1.00  0.00    -0.128 C  
HETATM    6  C   UNL     1      -7.749  10.174  67.801  1.00  0.00    -0.090 A  
HETATM    7  C   UNL     1      -9.120   9.106  69.774  1.00  0.00    -0.167 C  
HETATM    8  C   UNL     1      -9.355   8.080  67.495  1.00  0.00    -0.171 A  
HETATM    9  C   UNL     1      -6.989  10.929  68.708  1.00  0.00    -0.078 A  
HETATM   10  C   UNL     1      -6.085  10.753  66.070  1.00  0.00    -0.133 A  
HETATM   11  C   UNL     1      -8.392   7.397  66.730  1.00  0.00    -0.122 A  
HETATM   12  O   UNL     1      -8.154   8.778  70.458  1.00  0.00    -0.098 OA 
HETATM   13  C   UNL     1      -8.716   6.259  65.988  1.00  0.00    -0.155 A  
HETATM   14  C   UNL     1      -7.290  10.171  66.456  1.00  0.00    -0.108 A  
HETATM   15  C   UNL     1      -5.784  11.535  68.319  1.00  0.00    -0.045 A  
HETATM   16  C   UNL     1      -5.316  11.420  67.008  1.00  0.00    -0.091 A  
HETATM   17  C   UNL     1      -9.976   5.690  66.106  1.00  0.00    -0.100 A  
HETATM   18  C   UNL     1     -10.612   7.458  67.630  1.00  0.00    -0.309 A  
HETATM   19  C   UNL     1     -10.908   6.266  66.964  1.00  0.00    -0.458 A  
BRANCH   7  20
HETATM   20  O   UNL     1     -10.409   9.105  70.260  1.00  0.00    -0.190 OA 
BRANCH  20  21
HETATM   21  C   UNL     1     -10.654   8.505  71.555  1.00  0.00    -0.263 C  
HETATM   22  C   UNL     1     -11.936   9.049  72.190  1.00  0.00    -0.395 C  
HETATM   23  N   UNL     1     -13.305   7.226  71.129  1.00  0.00    -0.272 NA 
HETATM   24  C   UNL     1     -13.159   8.667  71.357  1.00  0.00    -0.245 C  
HETATM   25  C   UNL     1     -13.802   6.516  72.302  1.00  0.00     0.357 C  
HETATM   26  C   UNL     1     -12.073   6.639  70.583  1.00  0.00    -0.281 C  
HETATM   27  C   UNL     1     -10.802   6.991  71.363  1.00  0.00    -0.253 C  
ENDBRANCH  20  21
ENDBRANCH   7  20
ENDBRANCH   3   4
ENDBRANCH   2   3
TORSDOF 4
ENDMDL
MODEL       78
REMARK 921   NORMALIZED FREE ENERGY PREDICTED BY IDOCK:   -3.69 KCAL/MOL
REMARK 922        TOTAL FREE ENERGY PREDICTED BY IDOCK:   -5.85 KCAL/MOL
REMARK 923 INTER-LIGAND FREE ENERGY PREDICTED BY IDOCK:   -4.62 KCAL/MOL
REMARK 924 INTRA-LIGAND FREE ENERGY PREDICTED BY IDOCK:   -1.24 KCAL/MOL
REMARK 927      BINDING AFFINITY PREDICTED BY RF-SCORE:    0.00 PKD
ROOT
HETATM    1  C   UNL     1      -9.755  12.387  66.279  1.00  0.00    -0.253 C  
HETATM    2  C   UNL     1     -10.910  11.394  66.364  1.00  0.00    -0.323 C  
ENDROOT
BRANCH   2   3
HETATM    3  C   UNL     1     -10.753  10.520  67.603  1.00  0.00    -0.275 C  
BRANCH   3   4
HETATM    4  O   UNL     1     -10.124   9.280  67.283  1.00  0.00    -0.198 OA 
HETATM    5  C   UNL     1      -9.298   8.686  68.340  1.00  0.00    -0.138 C  
HETATM    6  C   UNL     1     -10.220   8.438  69.586  1.00  0.00    -0.209 A  
HETATM    7  C   UNL     1      -8.705   7.318  67.751  1.00  0.00    -0.126 C  
HETATM    8  C   UNL     1      -8.035   9.583  68.601  1.00  0.00    -0.092 A  
HETATM    9  C   UNL     1     -10.902   7.228  69.793  1.00  0.00    -0.251 A  
HETATM   10  C   UNL     1     -11.250   9.268  71.672  1.00  0.00    -0.449 A  
HETATM   11  C   UNL     1      -7.594   9.951  69.885  1.00  0.00    -0.167 A  
HETATM   12  O   UNL     1      -8.383   6.334  68.413  1.00  0.00    -0.114 OA 
HETATM   13  C   UNL     1      -6.560  10.869  70.073  1.00  0.00    -0.151 A  
HETATM   14  C   UNL     1     -10.482   9.469  70.528  1.00  0.00    -0.358 A  
HETATM   15  C   UNL     1     -11.694   7.027  70.935  1.00  0.00    -0.387 A  
HETATM   16  C   UNL     1     -11.841   8.035  71.889  1.00  0.00    -0.353 A  
HETATM   17  C   UNL     1      -5.841  11.336  68.981  1.00  0.00    -0.041 A  
HETATM   18  C   UNL     1      -7.262  10.038  67.514  1.00  0.00    -0.089 A  
HETATM   19  C   UNL     1      -6.165  10.883  67.705  1.00  0.00    -0.051 A  
BRANCH   7  20
HETATM   20  O   UNL     1      -8.482   7.406  66.395  1.00  0.00    -0.117 OA 
BRANCH  20  21
HETATM   21  C   UNL     1      -7.619   6.421  65.776  1.00  0.00    -0.085 C  
HETATM   22  C   UNL     1      -8.105   6.056  64.372  1.00  0.00    -0.119 C  
HETATM   23  N   UNL     1      -6.702   7.875  63.348  1.00  0.00    -0.073 NA 
HETATM   24  C   UNL     1      -8.032   7.265  63.439  1.00  0.00    -0.069 C  
HETATM   25  C   UNL     1      -5.782   7.101  62.522  1.00  0.00    -0.041 C  
HETATM   26  C   UNL     1      -6.158   8.183  64.678  1.00  0.00    -0.052 C  
HETATM   27  C   UNL     1      -6.210   7.016  65.671  1.00  0.00    -0.037 C  
ENDBRANCH  20  21
ENDBRANCH   7  20
ENDBRANCH   3   4
ENDBRANCH   2   3
TORSDOF 4
ENDMDL
MODEL       79
REMARK 921   NORMALIZED FREE ENERGY PREDICTED BY IDOCK:   -3.67 KCAL/MOL
REMARK 922        TOTAL FREE ENERGY PREDICTED BY IDOCK:   -5.83 KCAL/MOL
REMARK 923 INTER-LIGAND FREE ENERGY PREDICTED BY IDOCK:   -4.85 KCAL/MOL
REMARK 924 INTRA-LIGAND FREE ENERGY PREDICTED BY IDOCK:   -0.98 KCAL/MOL
REMARK 927      BINDING AFFINITY PREDICTED BY RF-SCORE:    0.00 PKD
ROOT
HETATM    1  C   UNL     1     -12.479  11.008  71.227  1.00  0.00    -0.475 C  
HETATM    2  C   UNL     1     -12.081   9.552  71.443  1.00  0.00    -0.459 C  
ENDROOT
BRANCH   2   3
HETATM    3  C   UNL     1     -10.576   9.394  71.264  1.00  0.00    -0.330 C  
BRANCH   3   4
HETATM    4  O   UNL     1     -10.235   9.228  69.888  1.00  0.00    -0.192 OA 
HETATM    5  C   UNL     1      -9.046   8.412  69.613  1.00  0.00    -0.153 C  
HETATM    6  C   UNL     1      -9.299   6.983  70.210  1.00  0.00    -0.159 A  
HETATM    7  C   UNL     1      -8.869   8.374  68.020  1.00  0.00    -0.142 C  
HETATM    8  C   UNL     1      -7.760   9.147  70.135  1.00  0.00    -0.105 A  
HETATM    9  C   UNL     1      -9.871   5.941  69.463  1.00  0.00    -0.216 A  
HETATM   10  C   UNL     1      -9.198   5.427  72.126  1.00  0.00    -0.157 A  
HETATM   11  C   UNL     1      -6.755   8.513  70.889  1.00  0.00    -0.046 A  
HETATM   12  O   UNL     1      -8.331   7.473  67.382  1.00  0.00    -0.111 OA 
HETATM   13  C   UNL     1      -5.704   9.230  71.462  1.00  0.00    -0.069 A  
HETATM   14  C   UNL     1      -9.039   6.697  71.578  1.00  0.00    -0.142 A  
HETATM   15  C   UNL     1     -10.054   4.665  70.017  1.00  0.00    -0.267 A  
HETATM   16  C   UNL     1      -9.687   4.399  71.338  1.00  0.00    -0.248 A  
HETATM   17  C   UNL     1      -5.548  10.579  71.177  1.00  0.00    -0.040 A  
HETATM   18  C   UNL     1      -7.555  10.506  69.827  1.00  0.00    -0.102 A  
HETATM   19  C   UNL     1      -6.450  11.205  70.321  1.00  0.00    -0.039 A  
BRANCH   7  20
HETATM   20  O   UNL     1      -9.296   9.546  67.436  1.00  0.00    -0.129 OA 
BRANCH  20  21
HETATM   21  C   UNL     1      -8.569  10.044  66.285  1.00  0.00    -0.129 C  
HETATM   22  C   UNL     1      -9.335   9.784  64.987  1.00  0.00    -0.325 C  
HETATM   23  N   UNL     1     -10.502  12.005  65.163  1.00  0.00    -0.278 NA 
HETATM   24  C   UNL     1     -10.652  10.560  64.968  1.00  0.00    -0.039 C  
HETATM   25  C   UNL     1     -10.010  12.686  63.970  1.00  0.00    -0.145 C  
HETATM   26  C   UNL     1      -9.712  12.309  66.363  1.00  0.00    -0.234 C  
HETATM   27  C   UNL     1      -8.380  11.556  66.454  1.00  0.00    -0.118 C  
ENDBRANCH  20  21
ENDBRANCH   7  20
ENDBRANCH   3   4
ENDBRANCH   2   3
TORSDOF 4
ENDMDL
MODEL       80
REMARK 921   NORMALIZED FREE ENERGY PREDICTED BY IDOCK:   -3.64 KCAL/MOL
REMARK 922        TOTAL FREE ENERGY PREDICTED BY IDOCK:   -5.79 KCAL/MOL
REMARK 923 INTER-LIGAND FREE ENERGY PREDICTED BY IDOCK:   -5.12 KCAL/MOL
REMARK 924 INTRA-LIGAND FREE ENERGY PREDICTED BY IDOCK:   -0.67 KCAL/MOL
REMARK 927      BINDING AFFINITY PREDICTED BY RF-SCORE:    0.00 PKD
ROOT
HETATM    1  C   UNL     1      -7.039  12.365  67.573  1.00  0.00    -0.145 C  
HETATM    2  C   UNL     1      -7.697  13.717  67.320  1.00  0.00    -0.095 C  
ENDROOT
BRANCH   2   3
HETATM    3  C   UNL     1      -8.755  13.988  68.384  1.00  0.00    -0.179 C  
BRANCH   3   4
HETATM    4  O   UNL     1      -9.466  12.797  68.716  1.00  0.00    -0.047 OA 
HETATM    5  C   UNL     1     -10.923  12.847  68.539  1.00  0.00    -0.259 C  
HETATM    6  C   UNL     1     -11.209  13.159  67.028  1.00  0.00    -0.325 A  
HETATM    7  C   UNL     1     -11.492  11.413  68.973  1.00  0.00    -0.300 C  
HETATM    8  C   UNL     1     -11.554  13.850  69.569  1.00  0.00    -0.358 A  
HETATM    9  C   UNL     1     -11.384  12.150  66.067  1.00  0.00    -0.410 A  
HETATM   10  C   UNL     1     -11.523  14.809  65.217  1.00  0.00    -0.352 A  
HETATM   11  C   UNL     1     -12.511  14.821  69.222  1.00  0.00    -0.045 A  
HETATM   12  O   UNL     1     -12.523  10.894  68.551  1.00  0.00    -0.375 OA 
HETATM   13  C   UNL     1     -12.937  15.791  70.131  1.00  0.00     0.240 A  
HETATM   14  C   UNL     1     -11.218  14.493  66.538  1.00  0.00    -0.344 A  
HETATM   15  C   UNL     1     -11.671  12.463  64.729  1.00  0.00    -0.425 A  
HETATM   16  C   UNL     1     -11.773  13.791  64.311  1.00  0.00    -0.426 A  
HETATM   17  C   UNL     1     -12.526  15.729  71.455  1.00  0.00    -0.513 A  
HETATM   18  C   UNL     1     -11.186  13.784  70.927  1.00  0.00     0.991 A  
HETATM   19  C   UNL     1     -11.686  14.696  71.861  1.00  0.00    -0.180 A  
BRANCH   7  20
HETATM   20  O   UNL     1     -10.740  10.855  69.984  1.00  0.00    -0.175 OA 
BRANCH  20  21
HETATM   21  C   UNL     1      -9.836   9.774  69.649  1.00  0.00    -0.221 C  
HETATM   22  C   UNL     1      -8.970   9.378  70.847  1.00  0.00    -0.198 C  
HETATM   23  N   UNL     1     -10.670   7.679  71.590  1.00  0.00    -0.210 NA 
HETATM   24  C   UNL     1      -9.832   8.818  71.979  1.00  0.00    -0.306 C  
HETATM   25  C   UNL     1      -9.913   6.439  71.464  1.00  0.00    -0.180 C  
HETATM   26  C   UNL     1     -11.473   7.984  70.398  1.00  0.00    -0.135 C  
HETATM   27  C   UNL     1     -10.674   8.562  69.224  1.00  0.00    -0.147 C  
ENDBRANCH  20  21
ENDBRANCH   7  20
ENDBRANCH   3   4
ENDBRANCH   2   3
TORSDOF 4
ENDMDL
MODEL       81
REMARK 921   NORMALIZED FREE ENERGY PREDICTED BY IDOCK:   -3.64 KCAL/MOL
REMARK 922        TOTAL FREE ENERGY PREDICTED BY IDOCK:   -5.79 KCAL/MOL
REMARK 923 INTER-LIGAND FREE ENERGY PREDICTED BY IDOCK:   -5.44 KCAL/MOL
REMARK 924 INTRA-LIGAND FREE ENERGY PREDICTED BY IDOCK:   -0.35 KCAL/MOL
REMARK 927      BINDING AFFINITY PREDICTED BY RF-SCORE:    0.00 PKD
ROOT
HETATM    1  C   UNL     1     -12.650  14.171  70.887  1.00  0.00    -0.433 C  
HETATM    2  C   UNL     1     -12.134  12.930  70.165  1.00  0.00    -0.373 C  
ENDROOT
BRANCH   2   3
HETATM    3  C   UNL     1     -11.866  13.257  68.700  1.00  0.00    -0.345 C  
BRANCH   3   4
HETATM    4  O   UNL     1     -10.466  13.303  68.431  1.00  0.00    -0.243 OA 
HETATM    5  C   UNL     1      -9.964  12.318  67.465  1.00  0.00    -0.199 C  
HETATM    6  C   UNL     1     -10.713  12.557  66.106  1.00  0.00    -0.290 A  
HETATM    7  C   UNL     1      -8.385  12.563  67.331  1.00  0.00    -0.182 C  
HETATM    8  C   UNL     1     -10.089  10.870  68.061  1.00  0.00    -0.197 A  
HETATM    9  C   UNL     1     -10.214  13.409  65.108  1.00  0.00    -0.316 A  
HETATM   10  C   UNL     1     -12.654  12.129  64.641  1.00  0.00    -0.266 A  
HETATM   11  C   UNL     1     -10.612   9.777  67.347  1.00  0.00    -0.330 A  
HETATM   12  O   UNL     1      -7.703  12.306  66.342  1.00  0.00     0.203 OA 
HETATM   13  C   UNL     1     -10.846   8.544  67.957  1.00  0.00    -0.022 A  
HETATM   14  C   UNL     1     -11.989  11.984  65.855  1.00  0.00    -0.125 A  
HETATM   15  C   UNL     1     -10.893  13.576  63.890  1.00  0.00     0.041 A  
HETATM   16  C   UNL     1     -12.095  12.911  63.644  1.00  0.00    -0.611 A  
HETATM   17  C   UNL     1     -10.429   8.326  69.262  1.00  0.00    -0.218 A  
HETATM   18  C   UNL     1      -9.636  10.610  69.370  1.00  0.00    -0.120 A  
HETATM   19  C   UNL     1      -9.782   9.348  69.952  1.00  0.00    -0.236 A  
BRANCH   7  20
HETATM   20  O   UNL     1      -7.840  13.000  68.518  1.00  0.00    -0.137 OA 
BRANCH  20  21
HETATM   21  C   UNL     1      -6.870  14.075  68.472  1.00  0.00    -0.104 C  
HETATM   22  C   UNL     1      -7.099  14.983  67.262  1.00  0.00    -0.134 C  
HETATM   23  N   UNL     1      -8.629  16.470  68.592  1.00  0.00    -0.233 NA 
HETATM   24  C   UNL     1      -8.448  15.693  67.362  1.00  0.00    -0.172 C  
HETATM   25  C   UNL     1      -7.895  17.731  68.575  1.00  0.00    -0.290 C  
HETATM   26  C   UNL     1      -8.353  15.661  69.787  1.00  0.00     0.069 C  
HETATM   27  C   UNL     1      -7.017  14.910  69.750  1.00  0.00    -0.175 C  
ENDBRANCH  20  21
ENDBRANCH   7  20
ENDBRANCH   3   4
ENDBRANCH   2   3
TORSDOF 4
ENDMDL
MODEL       82
REMARK 921   NORMALIZED FREE ENERGY PREDICTED BY IDOCK:   -3.64 KCAL/MOL
REMARK 922        TOTAL FREE ENERGY PREDICTED BY IDOCK:   -5.79 KCAL/MOL
REMARK 923 INTER-LIGAND FREE ENERGY PREDICTED BY IDOCK:   -4.75 KCAL/MOL
REMARK 924 INTRA-LIGAND FREE ENERGY PREDICTED BY IDOCK:   -1.04 KCAL/MOL
REMARK 927      BINDING AFFINITY PREDICTED BY RF-SCORE:    0.00 PKD
ROOT
HETATM    1  C   UNL     1     -12.366  10.880  71.182  1.00  0.00    -0.479 C  
HETATM    2  C   UNL     1     -12.067   9.389  71.291  1.00  0.00    -0.424 C  
ENDROOT
BRANCH   2   3
HETATM    3  C   UNL     1     -10.604   9.126  70.951  1.00  0.00    -0.273 C  
BRANCH   3   4
HETATM    4  O   UNL     1     -10.206   9.855  69.791  1.00  0.00    -0.215 OA 
HETATM    5  C   UNL     1      -9.172   9.226  68.960  1.00  0.00    -0.144 C  
HETATM    6  C   UNL     1      -9.724   7.838  68.478  1.00  0.00    -0.165 A  
HETATM    7  C   UNL     1      -8.895  10.221  67.734  1.00  0.00    -0.125 C  
HETATM    8  C   UNL     1      -7.811   9.178  69.743  1.00  0.00    -0.088 A  
HETATM    9  C   UNL     1     -10.426   7.682  67.272  1.00  0.00    -0.396 A  
HETATM   10  C   UNL     1     -10.045   5.421  68.871  1.00  0.00    -0.265 A  
HETATM   11  C   UNL     1      -6.995   8.035  69.814  1.00  0.00    -0.052 A  
HETATM   12  O   UNL     1      -8.490   9.890  66.622  1.00  0.00    -0.124 OA 
HETATM   13  C   UNL     1      -5.872   7.984  70.641  1.00  0.00    -0.029 A  
HETATM   14  C   UNL     1      -9.617   6.678  69.290  1.00  0.00    -0.145 A  
HETATM   15  C   UNL     1     -10.879   6.420  66.854  1.00  0.00    -0.428 A  
HETATM   16  C   UNL     1     -10.660   5.286  67.637  1.00  0.00    -0.126 A  
HETATM   17  C   UNL     1      -5.451   9.124  71.310  1.00  0.00    -0.047 A  
HETATM   18  C   UNL     1      -7.339  10.332  70.398  1.00  0.00     0.089 A  
HETATM   19  C   UNL     1      -6.161  10.311  71.150  1.00  0.00     0.087 A  
BRANCH   7  20
HETATM   20  O   UNL     1      -9.057  11.537  68.104  1.00  0.00    -0.167 OA 
BRANCH  20  21
HETATM   21  C   UNL     1      -8.692  12.568  67.154  1.00  0.00    -0.200 C  
HETATM   22  C   UNL     1      -9.695  13.722  67.167  1.00  0.00    -0.244 C  
HETATM   23  N   UNL     1      -8.370  14.931  68.930  1.00  0.00    -0.172 NA 
HETATM   24  C   UNL     1      -9.687  14.434  68.520  1.00  0.00    -0.225 C  
HETATM   25  C   UNL     1      -7.978  16.142  68.218  1.00  0.00    -0.152 C  
HETATM   26  C   UNL     1      -7.351  13.874  68.868  1.00  0.00    -0.088 C  
HETATM   27  C   UNL     1      -7.310  13.109  67.540  1.00  0.00    -0.153 C  
ENDBRANCH  20  21
ENDBRANCH   7  20
ENDBRANCH   3   4
ENDBRANCH   2   3
TORSDOF 4
ENDMDL
MODEL       83
REMARK 921   NORMALIZED FREE ENERGY PREDICTED BY IDOCK:   -3.60 KCAL/MOL
REMARK 922        TOTAL FREE ENERGY PREDICTED BY IDOCK:   -5.74 KCAL/MOL
REMARK 923 INTER-LIGAND FREE ENERGY PREDICTED BY IDOCK:   -4.45 KCAL/MOL
REMARK 924 INTRA-LIGAND FREE ENERGY PREDICTED BY IDOCK:   -1.29 KCAL/MOL
REMARK 927      BINDING AFFINITY PREDICTED BY RF-SCORE:    0.00 PKD
ROOT
HETATM    1  C   UNL     1      -8.538   6.430  72.491  1.00  0.00    -0.123 C  
HETATM    2  C   UNL     1      -7.871   5.936  71.211  1.00  0.00    -0.112 C  
ENDROOT
BRANCH   2   3
HETATM    3  C   UNL     1      -7.545   7.118  70.306  1.00  0.00    -0.090 C  
BRANCH   3   4
HETATM    4  O   UNL     1      -8.297   7.063  69.095  1.00  0.00    -0.123 OA 
HETATM    5  C   UNL     1      -9.073   8.265  68.765  1.00  0.00    -0.144 C  
HETATM    6  C   UNL     1      -8.068   9.463  68.640  1.00  0.00    -0.104 A  
HETATM    7  C   UNL     1      -9.824   7.965  67.381  1.00  0.00    -0.181 C  
HETATM    8  C   UNL     1     -10.232   8.458  69.807  1.00  0.00    -0.207 A  
HETATM    9  C   UNL     1      -7.471   9.826  67.422  1.00  0.00    -0.091 A  
HETATM   10  C   UNL     1      -6.796  11.295  69.702  1.00  0.00    -0.095 A  
HETATM   11  C   UNL     1     -10.527   9.688  70.422  1.00  0.00    -0.352 A  
HETATM   12  O   UNL     1     -10.165   8.808  66.554  1.00  0.00    -0.288 OA 
HETATM   13  C   UNL     1     -11.463   9.789  71.453  1.00  0.00    -0.435 A  
HETATM   14  C   UNL     1      -7.641  10.192  69.783  1.00  0.00    -0.175 A  
HETATM   15  C   UNL     1      -6.601  10.924  67.338  1.00  0.00    -0.069 A  
HETATM   16  C   UNL     1      -6.289  11.678  68.471  1.00  0.00    -0.052 A  
HETATM   17  C   UNL     1     -12.234   8.689  71.799  1.00  0.00    -0.403 A  
HETATM   18  C   UNL     1     -11.057   7.368  70.148  1.00  0.00    -0.265 A  
HETATM   19  C   UNL     1     -12.061   7.490  71.112  1.00  0.00    -0.335 A  
BRANCH   7  20
HETATM   20  O   UNL     1     -10.157   6.633  67.264  1.00  0.00    -0.141 OA 
BRANCH  20  21
HETATM   21  C   UNL     1     -10.003   5.998  65.971  1.00  0.00     0.147 C  
HETATM   22  C   UNL     1      -8.544   6.011  65.512  1.00  0.00    -0.145 C  
HETATM   23  N   UNL     1      -8.116   3.790  66.613  1.00  0.00    -0.096 NA 
HETATM   24  C   UNL     1      -7.671   5.178  66.451  1.00  0.00    -0.092 C  
HETATM   25  C   UNL     1      -7.788   2.956  65.462  1.00  0.00    -0.081 C  
HETATM   26  C   UNL     1      -9.535   3.719  66.987  1.00  0.00    -0.200 C  
HETATM   27  C   UNL     1     -10.469   4.542  66.093  1.00  0.00    -0.198 C  
ENDBRANCH  20  21
ENDBRANCH   7  20
ENDBRANCH   3   4
ENDBRANCH   2   3
TORSDOF 4
ENDMDL
MODEL       84
REMARK 921   NORMALIZED FREE ENERGY PREDICTED BY IDOCK:   -3.59 KCAL/MOL
REMARK 922        TOTAL FREE ENERGY PREDICTED BY IDOCK:   -5.73 KCAL/MOL
REMARK 923 INTER-LIGAND FREE ENERGY PREDICTED BY IDOCK:   -4.72 KCAL/MOL
REMARK 924 INTRA-LIGAND FREE ENERGY PREDICTED BY IDOCK:   -1.01 KCAL/MOL
REMARK 927      BINDING AFFINITY PREDICTED BY RF-SCORE:    0.00 PKD
ROOT
HETATM    1  C   UNL     1     -12.021  10.405  71.180  1.00  0.00    -0.460 C  
HETATM    2  C   UNL     1     -11.883   9.050  71.867  1.00  0.00    -0.447 C  
ENDROOT
BRANCH   2   3
HETATM    3  C   UNL     1     -10.410   8.739  72.107  1.00  0.00    -0.308 C  
BRANCH   3   4
HETATM    4  O   UNL     1      -9.830   8.088  70.978  1.00  0.00    -0.172 OA 
HETATM    5  C   UNL     1      -8.853   7.033  71.276  1.00  0.00    -0.133 C  
HETATM    6  C   UNL     1      -9.580   5.935  72.130  1.00  0.00    -0.164 A  
HETATM    7  C   UNL     1      -8.347   6.460  69.867  1.00  0.00    -0.130 C  
HETATM    8  C   UNL     1      -7.570   7.660  71.929  1.00  0.00    -0.086 A  
HETATM    9  C   UNL     1     -10.217   4.826  71.551  1.00  0.00    -0.246 A  
HETATM   10  C   UNL     1     -10.294   5.078  74.333  1.00  0.00    -0.321 A  
HETATM   11  C   UNL     1      -6.946   7.135  73.076  1.00  0.00    -0.069 A  
HETATM   12  O   UNL     1      -7.926   5.323  69.666  1.00  0.00    -0.081 OA 
HETATM   13  C   UNL     1      -5.900   7.803  73.714  1.00  0.00    -0.061 A  
HETATM   14  C   UNL     1      -9.705   6.059  73.540  1.00  0.00    -0.162 A  
HETATM   15  C   UNL     1     -10.831   3.844  72.345  1.00  0.00     0.101 A  
HETATM   16  C   UNL     1     -10.840   3.954  73.737  1.00  0.00    -0.326 A  
HETATM   17  C   UNL     1      -5.353   8.943  73.142  1.00  0.00    -0.083 A  
HETATM   18  C   UNL     1      -6.969   8.793  71.347  1.00  0.00    -0.093 A  
HETATM   19  C   UNL     1      -5.860   9.410  71.932  1.00  0.00    -0.014 A  
BRANCH   7  20
HETATM   20  O   UNL     1      -8.328   7.441  68.900  1.00  0.00    -0.127 OA 
BRANCH  20  21
HETATM   21  C   UNL     1      -9.063   7.209  67.673  1.00  0.00    -0.127 C  
HETATM   22  C   UNL     1     -10.360   8.018  67.637  1.00  0.00    -0.312 C  
HETATM   23  N   UNL     1      -9.193   9.951  66.528  1.00  0.00    -0.151 NA 
HETATM   24  C   UNL     1     -10.065   9.518  67.625  1.00  0.00    -0.205 C  
HETATM   25  C   UNL     1      -9.887  10.012  65.247  1.00  0.00    -0.318 C  
HETATM   26  C   UNL     1      -7.959   9.155  66.475  1.00  0.00    -0.100 C  
HETATM   27  C   UNL     1      -8.180   7.639  66.495  1.00  0.00    -0.125 C  
ENDBRANCH  20  21
ENDBRANCH   7  20
ENDBRANCH   3   4
ENDBRANCH   2   3
TORSDOF 4
ENDMDL
MODEL       85
REMARK 921   NORMALIZED FREE ENERGY PREDICTED BY IDOCK:   -3.58 KCAL/MOL
REMARK 922        TOTAL FREE ENERGY PREDICTED BY IDOCK:   -5.72 KCAL/MOL
REMARK 923 INTER-LIGAND FREE ENERGY PREDICTED BY IDOCK:   -5.24 KCAL/MOL
REMARK 924 INTRA-LIGAND FREE ENERGY PREDICTED BY IDOCK:   -0.48 KCAL/MOL
REMARK 927      BINDING AFFINITY PREDICTED BY RF-SCORE:    0.00 PKD
ROOT
HETATM    1  C   UNL     1     -13.360   9.495  71.986  1.00  0.00    -0.535 C  
HETATM    2  C   UNL     1     -12.811  10.683  71.203  1.00  0.00    -0.518 C  
ENDROOT
BRANCH   2   3
HETATM    3  C   UNL     1     -11.313  10.507  70.977  1.00  0.00     0.003 C  
BRANCH   3   4
HETATM    4  O   UNL     1     -11.056   9.740  69.801  1.00  0.00    -0.239 OA 
HETATM    5  C   UNL     1     -10.025   8.702  69.923  1.00  0.00    -0.186 C  
HETATM    6  C   UNL     1     -10.482   7.704  71.045  1.00  0.00    -0.218 A  
HETATM    7  C   UNL     1      -9.917   7.988  68.492  1.00  0.00    -0.192 C  
HETATM    8  C   UNL     1      -8.619   9.366  70.140  1.00  0.00    -0.233 A  
HETATM    9  C   UNL     1     -11.243   6.556  70.772  1.00  0.00    -0.377 A  
HETATM   10  C   UNL     1     -10.562   7.075  73.432  1.00  0.00    -0.399 A  
HETATM   11  C   UNL     1      -7.701   8.943  71.119  1.00  0.00    -0.158 A  
HETATM   12  O   UNL     1      -9.556   6.829  68.297  1.00  0.00    -0.128 OA 
HETATM   13  C   UNL     1      -6.527   9.650  71.381  1.00  0.00     0.105 A  
HETATM   14  C   UNL     1     -10.221   7.965  72.417  1.00  0.00    -0.327 A  
HETATM   15  C   UNL     1     -11.609   5.666  71.794  1.00  0.00    -0.033 A  
HETATM   16  C   UNL     1     -11.240   5.909  73.119  1.00  0.00    -0.214 A  
HETATM   17  C   UNL     1      -6.167  10.720  70.574  1.00  0.00    -0.086 A  
HETATM   18  C   UNL     1      -8.209  10.427  69.308  1.00  0.00    -0.163 A  
HETATM   19  C   UNL     1      -6.988  11.078  69.508  1.00  0.00    -0.126 A  
BRANCH   7  20
HETATM   20  O   UNL     1     -10.170   8.870  67.466  1.00  0.00    -0.213 OA 
BRANCH  20  21
HETATM   21  C   UNL     1      -9.843   8.464  66.115  1.00  0.00    -0.113 C  
HETATM   22  C   UNL     1      -9.907   9.645  65.145  1.00  0.00    -0.209 C  
HETATM   23  N   UNL     1      -7.479  10.173  65.534  1.00  0.00    -0.140 NA 
HETATM   24  C   UNL     1      -8.850  10.692  65.492  1.00  0.00    -0.188 C  
HETATM   25  C   UNL     1      -6.919   9.955  64.205  1.00  0.00    -0.128 C  
HETATM   26  C   UNL     1      -7.377   8.991  66.401  1.00  0.00    -0.088 C  
HETATM   27  C   UNL     1      -8.416   7.902  66.115  1.00  0.00    -0.139 C  
ENDBRANCH  20  21
ENDBRANCH   7  20
ENDBRANCH   3   4
ENDBRANCH   2   3
TORSDOF 4
ENDMDL
MODEL       86
REMARK 921   NORMALIZED FREE ENERGY PREDICTED BY IDOCK:   -3.58 KCAL/MOL
REMARK 922        TOTAL FREE ENERGY PREDICTED BY IDOCK:   -5.71 KCAL/MOL
REMARK 923 INTER-LIGAND FREE ENERGY PREDICTED BY IDOCK:   -5.34 KCAL/MOL
REMARK 924 INTRA-LIGAND FREE ENERGY PREDICTED BY IDOCK:   -0.38 KCAL/MOL
REMARK 927      BINDING AFFINITY PREDICTED BY RF-SCORE:    0.00 PKD
ROOT
HETATM    1  C   UNL     1      -8.486   7.934  67.593  1.00  0.00    -0.127 C  
HETATM    2  C   UNL     1      -9.254   9.144  68.114  1.00  0.00    -0.137 C  
ENDROOT
BRANCH   2   3
HETATM    3  C   UNL     1      -9.864   8.826  69.475  1.00  0.00    -0.180 C  
BRANCH   3   4
HETATM    4  O   UNL     1      -9.972   7.417  69.673  1.00  0.00    -0.177 OA 
HETATM    5  C   UNL     1     -10.290   6.983  71.039  1.00  0.00    -0.200 C  
HETATM    6  C   UNL     1     -11.667   7.622  71.436  1.00  0.00    -0.310 A  
HETATM    7  C   UNL     1     -10.356   5.382  71.012  1.00  0.00    -0.236 C  
HETATM    8  C   UNL     1      -9.090   7.311  71.998  1.00  0.00    -0.144 A  
HETATM    9  C   UNL     1     -12.893   6.972  71.219  1.00  0.00    -0.376 A  
HETATM   10  C   UNL     1     -12.945   9.516  72.373  1.00  0.00    -0.396 A  
HETATM   11  C   UNL     1      -9.245   7.920  73.257  1.00  0.00    -0.346 A  
HETATM   12  O   UNL     1     -11.023   4.681  71.770  1.00  0.00     0.083 OA 
HETATM   13  C   UNL     1      -8.147   8.332  74.015  1.00  0.00    -0.273 A  
HETATM   14  C   UNL     1     -11.747   8.941  71.959  1.00  0.00    -0.438 A  
HETATM   15  C   UNL     1     -14.106   7.557  71.615  1.00  0.00    -0.562 A  
HETATM   16  C   UNL     1     -14.129   8.814  72.222  1.00  0.00    -0.511 A  
HETATM   17  C   UNL     1      -6.861   8.016  73.600  1.00  0.00    -0.138 A  
HETATM   18  C   UNL     1      -7.777   6.966  71.622  1.00  0.00    -0.095 A  
HETATM   19  C   UNL     1      -6.681   7.292  72.425  1.00  0.00    -0.059 A  
BRANCH   7  20
HETATM   20  O   UNL     1      -9.474   4.854  70.096  1.00  0.00    -0.144 OA 
BRANCH  20  21
HETATM   21  C   UNL     1      -9.324   3.414  70.037  1.00  0.00    -0.171 C  
HETATM   22  C   UNL     1      -8.165   3.010  69.125  1.00  0.00    -0.077 C  
HETATM   23  N   UNL     1      -6.550   3.063  71.053  1.00  0.00    -0.030 NA 
HETATM   24  C   UNL     1      -6.832   3.508  69.685  1.00  0.00    -0.041 C  
HETATM   25  C   UNL     1      -6.129   1.668  71.116  1.00  0.00    -0.018 C  
HETATM   26  C   UNL     1      -7.666   3.366  71.959  1.00  0.00    -0.058 C  
HETATM   27  C   UNL     1      -9.038   2.904  71.455  1.00  0.00    -0.176 C  
ENDBRANCH  20  21
ENDBRANCH   7  20
ENDBRANCH   3   4
ENDBRANCH   2   3
TORSDOF 4
ENDMDL
MODEL       87
REMARK 921   NORMALIZED FREE ENERGY PREDICTED BY IDOCK:   -3.55 KCAL/MOL
REMARK 922        TOTAL FREE ENERGY PREDICTED BY IDOCK:   -5.68 KCAL/MOL
REMARK 923 INTER-LIGAND FREE ENERGY PREDICTED BY IDOCK:   -4.47 KCAL/MOL
REMARK 924 INTRA-LIGAND FREE ENERGY PREDICTED BY IDOCK:   -1.21 KCAL/MOL
REMARK 927      BINDING AFFINITY PREDICTED BY RF-SCORE:    0.00 PKD
ROOT
HETATM    1  C   UNL     1      -6.889   8.426  72.819  1.00  0.00    -0.099 C  
HETATM    2  C   UNL     1      -6.762   8.935  71.387  1.00  0.00    -0.085 C  
ENDROOT
BRANCH   2   3
HETATM    3  C   UNL     1      -7.131   7.827  70.408  1.00  0.00    -0.050 C  
BRANCH   3   4
HETATM    4  O   UNL     1      -7.809   8.352  69.268  1.00  0.00    -0.099 OA 
HETATM    5  C   UNL     1      -9.134   7.783  68.989  1.00  0.00    -0.144 C  
HETATM    6  C   UNL     1     -10.042   8.051  70.240  1.00  0.00    -0.192 A  
HETATM    7  C   UNL     1      -9.687   8.520  67.677  1.00  0.00    -0.160 C  
HETATM    8  C   UNL     1      -8.992   6.278  68.564  1.00  0.00    -0.123 A  
HETATM    9  C   UNL     1     -10.843   9.198  70.362  1.00  0.00    -0.285 A  
HETATM   10  C   UNL     1     -10.863   7.356  72.464  1.00  0.00    -0.327 A  
HETATM   11  C   UNL     1      -9.794   5.245  69.084  1.00  0.00    -0.257 A  
HETATM   12  O   UNL     1     -10.871   8.690  67.398  1.00  0.00    -0.211 OA 
HETATM   13  C   UNL     1      -9.541   3.903  68.797  1.00  0.00    -0.187 A  
HETATM   14  C   UNL     1     -10.030   7.179  71.362  1.00  0.00    -0.193 A  
HETATM   15  C   UNL     1     -11.669   9.392  71.481  1.00  0.00    -0.465 A  
HETATM   16  C   UNL     1     -11.703   8.455  72.515  1.00  0.00    -0.429 A  
HETATM   17  C   UNL     1      -8.568   3.564  67.868  1.00  0.00    -0.117 A  
HETATM   18  C   UNL     1      -8.040   5.910  67.593  1.00  0.00    -0.102 A  
HETATM   19  C   UNL     1      -7.849   4.573  67.232  1.00  0.00    -0.097 A  
BRANCH   7  20
HETATM   20  O   UNL     1      -8.665   8.854  66.816  1.00  0.00    -0.116 OA 
BRANCH  20  21
HETATM   21  C   UNL     1      -8.968   8.969  65.404  1.00  0.00    -0.200 C  
HETATM   22  C   UNL     1      -8.403  10.263  64.815  1.00  0.00    -0.173 C  
HETATM   23  N   UNL     1      -6.243   9.120  64.221  1.00  0.00    -0.074 NA 
HETATM   24  C   UNL     1      -6.876  10.268  64.877  1.00  0.00    -0.100 C  
HETATM   25  C   UNL     1      -6.248   9.229  62.766  1.00  0.00    -0.094 C  
HETATM   26  C   UNL     1      -6.801   7.849  64.703  1.00  0.00    -0.062 C  
HETATM   27  C   UNL     1      -8.331   7.777  64.678  1.00  0.00    -0.026 C  
ENDBRANCH  20  21
ENDBRANCH   7  20
ENDBRANCH   3   4
ENDBRANCH   2   3
TORSDOF 4
ENDMDL
MODEL       88
REMARK 921   NORMALIZED FREE ENERGY PREDICTED BY IDOCK:   -3.54 KCAL/MOL
REMARK 922        TOTAL FREE ENERGY PREDICTED BY IDOCK:   -5.67 KCAL/MOL
REMARK 923 INTER-LIGAND FREE ENERGY PREDICTED BY IDOCK:   -4.46 KCAL/MOL
REMARK 924 INTRA-LIGAND FREE ENERGY PREDICTED BY IDOCK:   -1.21 KCAL/MOL
REMARK 927      BINDING AFFINITY PREDICTED BY RF-SCORE:    0.00 PKD
ROOT
HETATM    1  C   UNL     1      -7.754  13.655  68.117  1.00  0.00    -0.138 C  
HETATM    2  C   UNL     1      -7.036  12.311  68.186  1.00  0.00    -0.087 C  
ENDROOT
BRANCH   2   3
HETATM    3  C   UNL     1      -7.244  11.545  66.884  1.00  0.00    -0.137 C  
BRANCH   3   4
HETATM    4  O   UNL     1      -7.586  10.183  67.137  1.00  0.00    -0.091 OA 
HETATM    5  C   UNL     1      -8.922   9.763  66.697  1.00  0.00    -0.142 C  
HETATM    6  C   UNL     1      -9.008   9.990  65.147  1.00  0.00    -0.227 A  
HETATM    7  C   UNL     1      -9.073   8.215  67.087  1.00  0.00    -0.140 C  
HETATM    8  C   UNL     1     -10.021  10.492  67.551  1.00  0.00    -0.204 A  
HETATM    9  C   UNL     1      -8.670   8.994  64.217  1.00  0.00    -0.140 A  
HETATM   10  C   UNL     1      -9.493  11.478  63.236  1.00  0.00    -0.303 A  
HETATM   11  C   UNL     1     -11.157  11.107  66.993  1.00  0.00    -0.339 A  
HETATM   12  O   UNL     1      -9.786   7.398  66.509  1.00  0.00    -0.197 OA 
HETATM   13  C   UNL     1     -12.031  11.873  67.766  1.00  0.00    -0.149 A  
HETATM   14  C   UNL     1      -9.353  11.257  64.604  1.00  0.00    -0.156 A  
HETATM   15  C   UNL     1      -8.789   9.218  62.836  1.00  0.00    -0.185 A  
HETATM   16  C   UNL     1      -9.231  10.449  62.347  1.00  0.00    -0.304 A  
HETATM   17  C   UNL     1     -11.874  11.926  69.143  1.00  0.00    -0.371 A  
HETATM   18  C   UNL     1      -9.909  10.527  68.955  1.00  0.00    -0.209 A  
HETATM   19  C   UNL     1     -10.838  11.214  69.741  1.00  0.00    -0.152 A  
BRANCH   7  20
HETATM   20  O   UNL     1      -8.382   7.915  68.240  1.00  0.00    -0.122 OA 
BRANCH  20  21
HETATM   21  C   UNL     1      -8.983   6.987  69.177  1.00  0.00    -0.134 C  
HETATM   22  C   UNL     1      -8.235   5.653  69.199  1.00  0.00    -0.100 C  
HETATM   23  N   UNL     1      -6.719   6.466  71.034  1.00  0.00    -0.053 NA 
HETATM   24  C   UNL     1      -6.807   5.838  69.711  1.00  0.00    -0.061 C  
HETATM   25  C   UNL     1      -7.056   5.548  72.116  1.00  0.00    -0.086 C  
HETATM   26  C   UNL     1      -7.481   7.721  71.087  1.00  0.00    -0.078 C  
HETATM   27  C   UNL     1      -8.922   7.611  70.576  1.00  0.00    -0.151 C  
ENDBRANCH  20  21
ENDBRANCH   7  20
ENDBRANCH   3   4
ENDBRANCH   2   3
TORSDOF 4
ENDMDL
MODEL       89
REMARK 921   NORMALIZED FREE ENERGY PREDICTED BY IDOCK:   -3.52 KCAL/MOL
REMARK 922        TOTAL FREE ENERGY PREDICTED BY IDOCK:   -5.64 KCAL/MOL
REMARK 923 INTER-LIGAND FREE ENERGY PREDICTED BY IDOCK:   -4.82 KCAL/MOL
REMARK 924 INTRA-LIGAND FREE ENERGY PREDICTED BY IDOCK:   -0.82 KCAL/MOL
REMARK 927      BINDING AFFINITY PREDICTED BY RF-SCORE:    0.00 PKD
ROOT
HETATM    1  C   UNL     1      -9.003  17.176  67.580  1.00  0.00    -0.226 C  
HETATM    2  C   UNL     1      -8.741  16.034  68.557  1.00  0.00    -0.195 C  
ENDROOT
BRANCH   2   3
HETATM    3  C   UNL     1      -8.985  14.696  67.869  1.00  0.00    -0.174 C  
BRANCH   3   4
HETATM    4  O   UNL     1     -10.058  13.987  68.485  1.00  0.00    -0.230 OA 
HETATM    5  C   UNL     1     -10.525  12.787  67.781  1.00  0.00    -0.223 C  
HETATM    6  C   UNL     1      -9.313  11.798  67.667  1.00  0.00    -0.180 A  
HETATM    7  C   UNL     1     -11.721  12.173  68.654  1.00  0.00    -0.330 C  
HETATM    8  C   UNL     1     -11.199  13.192  66.421  1.00  0.00    -0.328 A  
HETATM    9  C   UNL     1      -9.046  10.814  68.633  1.00  0.00    -0.173 A  
HETATM   10  C   UNL     1      -7.311  11.014  66.452  1.00  0.00    -0.128 A  
HETATM   11  C   UNL     1     -10.928  12.551  65.198  1.00  0.00    -0.332 A  
HETATM   12  O   UNL     1     -12.048  10.989  68.687  1.00  0.00    -0.551 OA 
HETATM   13  C   UNL     1     -11.430  13.033  63.988  1.00  0.00    -0.473 A  
HETATM   14  C   UNL     1      -8.365  11.908  66.614  1.00  0.00    -0.117 A  
HETATM   15  C   UNL     1      -7.971   9.923  68.486  1.00  0.00    -0.086 A  
HETATM   16  C   UNL     1      -7.124  10.002  67.379  1.00  0.00    -0.084 A  
HETATM   17  C   UNL     1     -12.334  14.086  63.983  1.00  0.00    -0.341 A  
HETATM   18  C   UNL     1     -12.151  14.230  66.392  1.00  0.00    -0.442 A  
HETATM   19  C   UNL     1     -12.729  14.653  65.192  1.00  0.00    -0.074 A  
BRANCH   7  20
HETATM   20  O   UNL     1     -12.436  13.160  69.297  1.00  0.00    -0.071 OA 
BRANCH  20  21
HETATM   21  C   UNL     1     -12.547  13.097  70.740  1.00  0.00    -0.260 C  
HETATM   22  C   UNL     1     -11.350  13.763  71.422  1.00  0.00     1.545 C  
HETATM   23  N   UNL     1     -12.534  15.982  71.464  1.00  0.00    -0.418 NA 
HETATM   24  C   UNL     1     -11.309  15.259  71.109  1.00  0.00    -0.356 C  
HETATM   25  C   UNL     1     -12.651  16.220  72.899  1.00  0.00    -0.361 C  
HETATM   26  C   UNL     1     -13.724  15.341  70.890  1.00  0.00    -0.293 C  
HETATM   27  C   UNL     1     -13.825  13.835  71.156  1.00  0.00     0.080 C  
ENDBRANCH  20  21
ENDBRANCH   7  20
ENDBRANCH   3   4
ENDBRANCH   2   3
TORSDOF 4
ENDMDL
MODEL       90
REMARK 921   NORMALIZED FREE ENERGY PREDICTED BY IDOCK:   -3.51 KCAL/MOL
REMARK 922        TOTAL FREE ENERGY PREDICTED BY IDOCK:   -5.63 KCAL/MOL
REMARK 923 INTER-LIGAND FREE ENERGY PREDICTED BY IDOCK:   -4.89 KCAL/MOL
REMARK 924 INTRA-LIGAND FREE ENERGY PREDICTED BY IDOCK:   -0.74 KCAL/MOL
REMARK 927      BINDING AFFINITY PREDICTED BY RF-SCORE:    0.00 PKD
ROOT
HETATM    1  C   UNL     1      -8.945   8.019  66.041  1.00  0.00    -0.205 C  
HETATM    2  C   UNL     1      -9.213   9.376  65.398  1.00  0.00    -0.305 C  
ENDROOT
BRANCH   2   3
HETATM    3  C   UNL     1      -9.976  10.269  66.369  1.00  0.00    -0.229 C  
BRANCH   3   4
HETATM    4  O   UNL     1     -10.175   9.616  67.622  1.00  0.00    -0.188 OA 
HETATM    5  C   UNL     1      -9.682  10.332  68.805  1.00  0.00    -0.177 C  
HETATM    6  C   UNL     1     -10.424  11.713  68.872  1.00  0.00    -0.201 A  
HETATM    7  C   UNL     1     -10.014   9.411  70.075  1.00  0.00    -0.221 C  
HETATM    8  C   UNL     1      -8.114  10.407  68.772  1.00  0.00    -0.125 A  
HETATM    9  C   UNL     1     -11.624  11.893  69.578  1.00  0.00    -0.394 A  
HETATM   10  C   UNL     1     -10.561  14.091  68.218  1.00  0.00    -0.253 A  
HETATM   11  C   UNL     1      -7.386  11.584  69.029  1.00  0.00    -0.094 A  
HETATM   12  O   UNL     1     -10.202   9.813  71.220  1.00  0.00    -0.153 OA 
HETATM   13  C   UNL     1      -6.004  11.648  68.843  1.00  0.00    -0.050 A  
HETATM   14  C   UNL     1      -9.959  12.838  68.138  1.00  0.00    -0.229 A  
HETATM   15  C   UNL     1     -12.246  13.150  69.645  1.00  0.00    -0.241 A  
HETATM   16  C   UNL     1     -11.697  14.255  68.992  1.00  0.00    -0.352 A  
HETATM   17  C   UNL     1      -5.291  10.499  68.534  1.00  0.00    -0.037 A  
HETATM   18  C   UNL     1      -7.362   9.247  68.501  1.00  0.00    -0.076 A  
HETATM   19  C   UNL     1      -5.968   9.289  68.409  1.00  0.00    -0.045 A  
BRANCH   7  20
HETATM   20  O   UNL     1      -9.952   8.072  69.758  1.00  0.00    -0.185 OA 
BRANCH  20  21
HETATM   21  C   UNL     1      -9.200   7.194  70.631  1.00  0.00    -0.158 C  
HETATM   22  C   UNL     1     -10.115   6.198  71.345  1.00  0.00    -0.230 C  
HETATM   23  N   UNL     1      -9.840   4.524  69.488  1.00  0.00    -0.215 NA 
HETATM   24  C   UNL     1     -10.781   5.256  70.341  1.00  0.00    -0.146 C  
HETATM   25  C   UNL     1      -9.185   3.423  70.185  1.00  0.00    -0.155 C  
HETATM   26  C   UNL     1      -8.890   5.432  68.831  1.00  0.00    -0.100 C  
HETATM   27  C   UNL     1      -8.192   6.415  69.778  1.00  0.00    -0.126 C  
ENDBRANCH  20  21
ENDBRANCH   7  20
ENDBRANCH   3   4
ENDBRANCH   2   3
TORSDOF 4
ENDMDL
MODEL       91
REMARK 921   NORMALIZED FREE ENERGY PREDICTED BY IDOCK:   -3.48 KCAL/MOL
REMARK 922        TOTAL FREE ENERGY PREDICTED BY IDOCK:   -5.60 KCAL/MOL
REMARK 923 INTER-LIGAND FREE ENERGY PREDICTED BY IDOCK:   -4.35 KCAL/MOL
REMARK 924 INTRA-LIGAND FREE ENERGY PREDICTED BY IDOCK:   -1.25 KCAL/MOL
REMARK 927      BINDING AFFINITY PREDICTED BY RF-SCORE:    0.00 PKD
ROOT
HETATM    1  C   UNL     1     -11.602   8.110  72.484  1.00  0.00    -0.468 C  
HETATM    2  C   UNL     1     -11.493   8.587  71.039  1.00  0.00    -0.313 C  
ENDROOT
BRANCH   2   3
HETATM    3  C   UNL     1     -10.986   7.453  70.155  1.00  0.00    -0.255 C  
BRANCH   3   4
HETATM    4  O   UNL     1     -10.021   7.924  69.216  1.00  0.00    -0.181 OA 
HETATM    5  C   UNL     1      -8.734   7.217  69.207  1.00  0.00    -0.137 C  
HETATM    6  C   UNL     1      -9.018   5.710  68.873  1.00  0.00    -0.115 A  
HETATM    7  C   UNL     1      -7.828   7.919  68.086  1.00  0.00    -0.127 C  
HETATM    8  C   UNL     1      -7.968   7.480  70.553  1.00  0.00    -0.098 A  
HETATM    9  C   UNL     1      -9.011   5.212  67.560  1.00  0.00    -0.110 A  
HETATM   10  C   UNL     1      -9.594   3.433  69.635  1.00  0.00    -0.160 A  
HETATM   11  C   UNL     1      -7.351   6.465  71.307  1.00  0.00    -0.080 A  
HETATM   12  O   UNL     1      -6.926   7.377  67.452  1.00  0.00    -0.074 OA 
HETATM   13  C   UNL     1      -6.811   6.713  72.570  1.00  0.00    -0.064 A  
HETATM   14  C   UNL     1      -9.389   4.786  69.887  1.00  0.00    -0.207 A  
HETATM   15  C   UNL     1      -9.237   3.851  67.298  1.00  0.00    -0.200 A  
HETATM   16  C   UNL     1      -9.496   2.957  68.338  1.00  0.00    -0.207 A  
HETATM   17  C   UNL     1      -6.745   8.012  73.053  1.00  0.00    -0.101 A  
HETATM   18  C   UNL     1      -7.850   8.794  71.047  1.00  0.00    -0.145 A  
HETATM   19  C   UNL     1      -7.224   9.058  72.268  1.00  0.00     0.237 A  
BRANCH   7  20
HETATM   20  O   UNL     1      -8.103   9.265  67.984  1.00  0.00    -0.103 OA 
BRANCH  20  21
HETATM   21  C   UNL     1      -8.109   9.867  66.666  1.00  0.00    -0.117 C  
HETATM   22  C   UNL     1      -9.496   9.791  66.025  1.00  0.00    -0.269 C  
HETATM   23  N   UNL     1     -10.135  12.018  67.003  1.00  0.00    -0.202 NA 
HETATM   24  C   UNL     1     -10.510  10.612  66.822  1.00  0.00    -0.247 C  
HETATM   25  C   UNL     1     -10.340  12.816  65.799  1.00  0.00    -0.281 C  
HETATM   26  C   UNL     1      -8.780  12.148  67.554  1.00  0.00    -0.173 C  
HETATM   27  C   UNL     1      -7.711  11.341  66.809  1.00  0.00    -0.155 C  
ENDBRANCH  20  21
ENDBRANCH   7  20
ENDBRANCH   3   4
ENDBRANCH   2   3
TORSDOF 4
ENDMDL
MODEL       92
REMARK 921   NORMALIZED FREE ENERGY PREDICTED BY IDOCK:   -3.47 KCAL/MOL
REMARK 922        TOTAL FREE ENERGY PREDICTED BY IDOCK:   -5.58 KCAL/MOL
REMARK 923 INTER-LIGAND FREE ENERGY PREDICTED BY IDOCK:   -4.68 KCAL/MOL
REMARK 924 INTRA-LIGAND FREE ENERGY PREDICTED BY IDOCK:   -0.91 KCAL/MOL
REMARK 927      BINDING AFFINITY PREDICTED BY RF-SCORE:    0.00 PKD
ROOT
HETATM    1  C   UNL     1     -12.653  14.033  65.668  1.00  0.00    -0.542 C  
HETATM    2  C   UNL     1     -11.593  12.937  65.616  1.00  0.00    -0.401 C  
ENDROOT
BRANCH   2   3
HETATM    3  C   UNL     1     -10.294  13.442  66.235  1.00  0.00    -0.291 C  
BRANCH   3   4
HETATM    4  O   UNL     1      -9.492  12.359  66.703  1.00  0.00    -0.221 OA 
HETATM    5  C   UNL     1      -9.091  12.419  68.114  1.00  0.00    -0.200 C  
HETATM    6  C   UNL     1     -10.398  12.445  68.982  1.00  0.00     0.023 A  
HETATM    7  C   UNL     1      -8.206  11.113  68.400  1.00  0.00    -0.144 C  
HETATM    8  C   UNL     1      -8.104  13.620  68.340  1.00  0.00    -0.146 A  
HETATM    9  C   UNL     1     -11.005  11.277  69.469  1.00  0.00    -0.249 A  
HETATM   10  C   UNL     1     -12.216  13.726  70.055  1.00  0.00    -0.407 A  
HETATM   11  C   UNL     1      -8.224  14.536  69.402  1.00  0.00     0.135 A  
HETATM   12  O   UNL     1      -8.085  10.556  69.488  1.00  0.00    -0.154 OA 
HETATM   13  C   UNL     1      -7.421  15.674  69.484  1.00  0.00    -0.192 A  
HETATM   14  C   UNL     1     -11.087  13.660  69.244  1.00  0.00    -0.241 A  
HETATM   15  C   UNL     1     -12.156  11.336  70.271  1.00  0.00    -0.459 A  
HETATM   16  C   UNL     1     -12.742  12.562  70.590  1.00  0.00    -0.132 A  
HETATM   17  C   UNL     1      -6.378  15.854  68.587  1.00  0.00    -0.112 A  
HETATM   18  C   UNL     1      -7.012  13.804  67.469  1.00  0.00    -0.161 A  
HETATM   19  C   UNL     1      -6.147  14.893  67.607  1.00  0.00    -0.098 A  
BRANCH   7  20
HETATM   20  O   UNL     1      -7.486  10.737  67.288  1.00  0.00    -0.095 OA 
BRANCH  20  21
HETATM   21  C   UNL     1      -7.979   9.630  66.494  1.00  0.00    -0.112 C  
HETATM   22  C   UNL     1      -7.822   9.903  64.997  1.00  0.00    -0.131 C  
HETATM   23  N   UNL     1      -5.539   8.847  64.984  1.00  0.00    -0.050 NA 
HETATM   24  C   UNL     1      -6.345  10.015  64.617  1.00  0.00    -0.125 C  
HETATM   25  C   UNL     1      -5.749   7.713  64.090  1.00  0.00    -0.044 C  
HETATM   26  C   UNL     1      -5.708   8.499  66.402  1.00  0.00    -0.047 C  
HETATM   27  C   UNL     1      -7.167   8.380  66.856  1.00  0.00    -0.079 C  
ENDBRANCH  20  21
ENDBRANCH   7  20
ENDBRANCH   3   4
ENDBRANCH   2   3
TORSDOF 4
ENDMDL
MODEL       93
REMARK 921   NORMALIZED FREE ENERGY PREDICTED BY IDOCK:   -3.43 KCAL/MOL
REMARK 922        TOTAL FREE ENERGY PREDICTED BY IDOCK:   -5.53 KCAL/MOL
REMARK 923 INTER-LIGAND FREE ENERGY PREDICTED BY IDOCK:   -4.21 KCAL/MOL
REMARK 924 INTRA-LIGAND FREE ENERGY PREDICTED BY IDOCK:   -1.32 KCAL/MOL
REMARK 927      BINDING AFFINITY PREDICTED BY RF-SCORE:    0.00 PKD
ROOT
HETATM    1  C   UNL     1      -6.149   5.185  72.453  1.00  0.00    -0.030 C  
HETATM    2  C   UNL     1      -6.122   5.937  71.126  1.00  0.00    -0.038 C  
ENDROOT
BRANCH   2   3
HETATM    3  C   UNL     1      -7.361   6.816  71.002  1.00  0.00    -0.078 C  
BRANCH   3   4
HETATM    4  O   UNL     1      -8.045   6.572  69.774  1.00  0.00    -0.120 OA 
HETATM    5  C   UNL     1      -9.407   6.036  69.891  1.00  0.00    -0.148 C  
HETATM    6  C   UNL     1     -10.259   7.070  70.707  1.00  0.00    -0.208 A  
HETATM    7  C   UNL     1      -9.960   5.847  68.398  1.00  0.00    -0.150 C  
HETATM    8  C   UNL     1      -9.361   4.581  70.481  1.00  0.00    -0.218 A  
HETATM    9  C   UNL     1     -10.992   8.099  70.093  1.00  0.00    -0.223 A  
HETATM   10  C   UNL     1     -11.046   7.936  72.882  1.00  0.00    -0.442 A  
HETATM   11  C   UNL     1     -10.201   4.136  71.518  1.00  0.00    -0.112 A  
HETATM   12  O   UNL     1     -11.142   5.883  68.064  1.00  0.00    -0.252 OA 
HETATM   13  C   UNL     1     -10.030   2.887  72.117  1.00  0.00    -0.235 A  
HETATM   14  C   UNL     1     -10.259   7.070  72.128  1.00  0.00    -0.206 A  
HETATM   15  C   UNL     1     -11.771   8.988  70.850  1.00  0.00    -0.327 A  
HETATM   16  C   UNL     1     -11.824   8.886  72.241  1.00  0.00    -0.365 A  
HETATM   17  C   UNL     1      -9.107   1.990  71.599  1.00  0.00    -0.146 A  
HETATM   18  C   UNL     1      -8.461   3.637  69.948  1.00  0.00    -0.091 A  
HETATM   19  C   UNL     1      -8.355   2.351  70.485  1.00  0.00    -0.079 A  
BRANCH   7  20
HETATM   20  O   UNL     1      -8.949   5.519  67.522  1.00  0.00    -0.110 OA 
BRANCH  20  21
HETATM   21  C   UNL     1      -8.967   6.113  66.201  1.00  0.00    -0.155 C  
HETATM   22  C   UNL     1      -8.707   7.619  66.261  1.00  0.00    -0.170 C  
HETATM   23  N   UNL     1      -6.228   7.260  66.026  1.00  0.00    -0.040 NA 
HETATM   24  C   UNL     1      -7.301   7.907  66.788  1.00  0.00    -0.089 C  
HETATM   25  C   UNL     1      -5.959   7.926  64.756  1.00  0.00    -0.045 C  
HETATM   26  C   UNL     1      -6.467   5.818  65.878  1.00  0.00    -0.040 C  
HETATM   27  C   UNL     1      -7.864   5.454  65.364  1.00  0.00    -0.095 C  
ENDBRANCH  20  21
ENDBRANCH   7  20
ENDBRANCH   3   4
ENDBRANCH   2   3
TORSDOF 4
ENDMDL
MODEL       94
REMARK 921   NORMALIZED FREE ENERGY PREDICTED BY IDOCK:   -3.38 KCAL/MOL
REMARK 922        TOTAL FREE ENERGY PREDICTED BY IDOCK:   -5.47 KCAL/MOL
REMARK 923 INTER-LIGAND FREE ENERGY PREDICTED BY IDOCK:   -4.21 KCAL/MOL
REMARK 924 INTRA-LIGAND FREE ENERGY PREDICTED BY IDOCK:   -1.26 KCAL/MOL
REMARK 927      BINDING AFFINITY PREDICTED BY RF-SCORE:    0.00 PKD
ROOT
HETATM    1  C   UNL     1     -10.503   8.658  66.886  1.00  0.00    -0.329 C  
HETATM    2  C   UNL     1     -10.737   9.484  68.146  1.00  0.00    -0.247 C  
ENDROOT
BRANCH   2   3
HETATM    3  C   UNL     1     -10.584   8.603  69.380  1.00  0.00    -0.199 C  
BRANCH   3   4
HETATM    4  O   UNL     1     -10.156   7.289  69.025  1.00  0.00    -0.176 OA 
HETATM    5  C   UNL     1      -9.073   6.723  69.837  1.00  0.00    -0.144 C  
HETATM    6  C   UNL     1      -9.568   6.670  71.325  1.00  0.00    -0.176 A  
HETATM    7  C   UNL     1      -8.770   5.261  69.253  1.00  0.00    -0.100 C  
HETATM    8  C   UNL     1      -7.745   7.526  69.594  1.00  0.00    -0.100 A  
HETATM    9  C   UNL     1     -10.215   5.547  71.867  1.00  0.00    -0.251 A  
HETATM   10  C   UNL     1      -9.843   7.771  73.519  1.00  0.00    -0.298 A  
HETATM   11  C   UNL     1      -6.903   7.969  70.631  1.00  0.00    -0.037 A  
HETATM   12  O   UNL     1      -8.311   4.317  69.891  1.00  0.00    -0.061 OA 
HETATM   13  C   UNL     1      -5.814   8.807  70.386  1.00  0.00    -0.027 A  
HETATM   14  C   UNL     1      -9.465   7.801  72.179  1.00  0.00    -0.216 A  
HETATM   15  C   UNL     1     -10.617   5.520  73.212  1.00  0.00    -0.285 A  
HETATM   16  C   UNL     1     -10.402   6.619  74.045  1.00  0.00    -0.377 A  
HETATM   17  C   UNL     1      -5.451   9.109  69.081  1.00  0.00    -0.036 A  
HETATM   18  C   UNL     1      -7.330   7.813  68.278  1.00  0.00    -0.102 A  
HETATM   19  C   UNL     1      -6.184   8.573  68.027  1.00  0.00    -0.052 A  
BRANCH   7  20
HETATM   20  O   UNL     1      -8.981   5.207  67.893  1.00  0.00    -0.109 OA 
BRANCH  20  21
HETATM   21  C   UNL     1      -8.349   4.141  67.142  1.00  0.00    -0.100 C  
HETATM   22  C   UNL     1      -9.363   3.384  66.283  1.00  0.00    -0.157 C  
HETATM   23  N   UNL     1      -8.967   4.936  64.344  1.00  0.00    -0.123 NA 
HETATM   24  C   UNL     1      -9.960   4.299  65.214  1.00  0.00    -0.219 C  
HETATM   25  C   UNL     1      -8.421   4.020  63.347  1.00  0.00    -0.096 C  
HETATM   26  C   UNL     1      -7.927   5.620  65.123  1.00  0.00    -0.113 C  
HETATM   27  C   UNL     1      -7.291   4.764  66.224  1.00  0.00    -0.078 C  
ENDBRANCH  20  21
ENDBRANCH   7  20
ENDBRANCH   3   4
ENDBRANCH   2   3
TORSDOF 4
ENDMDL
MODEL       95
REMARK 921   NORMALIZED FREE ENERGY PREDICTED BY IDOCK:   -3.35 KCAL/MOL
REMARK 922        TOTAL FREE ENERGY PREDICTED BY IDOCK:   -5.44 KCAL/MOL
REMARK 923 INTER-LIGAND FREE ENERGY PREDICTED BY IDOCK:   -4.82 KCAL/MOL
REMARK 924 INTRA-LIGAND FREE ENERGY PREDICTED BY IDOCK:   -0.62 KCAL/MOL
REMARK 927      BINDING AFFINITY PREDICTED BY RF-SCORE:    0.00 PKD
ROOT
HETATM    1  C   UNL     1      -5.765  10.960  70.130  1.00  0.00    -0.088 C  
HETATM    2  C   UNL     1      -5.764   9.438  70.033  1.00  0.00    -0.035 C  
ENDROOT
BRANCH   2   3
HETATM    3  C   UNL     1      -7.143   8.895  70.389  1.00  0.00    -0.054 C  
BRANCH   3   4
HETATM    4  O   UNL     1      -8.147   9.438  69.534  1.00  0.00    -0.097 OA 
HETATM    5  C   UNL     1      -8.775   8.496  68.600  1.00  0.00    -0.139 C  
HETATM    6  C   UNL     1      -9.445   7.357  69.447  1.00  0.00    -0.155 A  
HETATM    7  C   UNL     1      -9.854   9.329  67.756  1.00  0.00    -0.171 C  
HETATM    8  C   UNL     1      -7.726   8.018  67.534  1.00  0.00    -0.106 A  
HETATM    9  C   UNL     1     -10.780   7.421  69.879  1.00  0.00    -0.254 A  
HETATM   10  C   UNL     1      -9.273   5.182  70.604  1.00  0.00    -0.191 A  
HETATM   11  C   UNL     1      -7.551   6.672  67.164  1.00  0.00    -0.096 A  
HETATM   12  O   UNL     1     -10.872   8.870  67.245  1.00  0.00    -0.216 OA 
HETATM   13  C   UNL     1      -6.509   6.269  66.326  1.00  0.00    -0.047 A  
HETATM   14  C   UNL     1      -8.698   6.236  69.899  1.00  0.00    -0.141 A  
HETATM   15  C   UNL     1     -11.358   6.371  70.609  1.00  0.00    -0.419 A  
HETATM   16  C   UNL     1     -10.615   5.237  70.942  1.00  0.00    -0.247 A  
HETATM   17  C   UNL     1      -5.700   7.219  65.720  1.00  0.00    -0.036 A  
HETATM   18  C   UNL     1      -6.918   8.964  66.872  1.00  0.00    -0.078 A  
HETATM   19  C   UNL     1      -5.936   8.570  65.959  1.00  0.00    -0.048 A  
BRANCH   7  20
HETATM   20  O   UNL     1      -9.449  10.632  67.565  1.00  0.00    -0.152 OA 
BRANCH  20  21
HETATM   21  C   UNL     1     -10.117  11.675  68.315  1.00  0.00    -0.202 C  
HETATM   22  C   UNL     1      -9.386  13.013  68.185  1.00  0.00    -0.217 C  
HETATM   23  N   UNL     1     -10.758  13.634  66.171  1.00  0.00    -0.284 NA 
HETATM   24  C   UNL     1      -9.412  13.508  66.739  1.00  0.00    -0.269 C  
HETATM   25  C   UNL     1     -11.467  14.813  66.656  1.00  0.00    -0.335 C  
HETATM   26  C   UNL     1     -11.530  12.394  66.333  1.00  0.00    -0.373 C  
HETATM   27  C   UNL     1     -11.537  11.833  67.759  1.00  0.00    -0.374 C  
ENDBRANCH  20  21
ENDBRANCH   7  20
ENDBRANCH   3   4
ENDBRANCH   2   3
TORSDOF 4
ENDMDL
MODEL       96
REMARK 921   NORMALIZED FREE ENERGY PREDICTED BY IDOCK:   -3.30 KCAL/MOL
REMARK 922        TOTAL FREE ENERGY PREDICTED BY IDOCK:   -5.37 KCAL/MOL
REMARK 923 INTER-LIGAND FREE ENERGY PREDICTED BY IDOCK:   -4.29 KCAL/MOL
REMARK 924 INTRA-LIGAND FREE ENERGY PREDICTED BY IDOCK:   -1.08 KCAL/MOL
REMARK 927      BINDING AFFINITY PREDICTED BY RF-SCORE:    0.00 PKD
ROOT
HETATM    1  C   UNL     1     -10.761  11.134  68.856  1.00  0.00    -0.246 C  
HETATM    2  C   UNL     1     -11.172  10.700  67.453  1.00  0.00    -0.280 C  
ENDROOT
BRANCH   2   3
HETATM    3  C   UNL     1     -10.294   9.542  66.991  1.00  0.00    -0.250 C  
BRANCH   3   4
HETATM    4  O   UNL     1      -9.541   9.002  68.075  1.00  0.00    -0.144 OA 
HETATM    5  C   UNL     1      -8.375   8.190  67.707  1.00  0.00    -0.128 C  
HETATM    6  C   UNL     1      -7.407   9.096  66.867  1.00  0.00    -0.090 A  
HETATM    7  C   UNL     1      -7.700   7.700  69.076  1.00  0.00    -0.117 C  
HETATM    8  C   UNL     1      -8.844   6.866  67.003  1.00  0.00    -0.119 A  
HETATM    9  C   UNL     1      -6.376   9.848  67.453  1.00  0.00    -0.067 A  
HETATM   10  C   UNL     1      -6.713  10.020  64.684  1.00  0.00    -0.128 A  
HETATM   11  C   UNL     1      -8.273   6.372  65.816  1.00  0.00    -0.134 A  
HETATM   12  O   UNL     1      -6.513   7.425  69.230  1.00  0.00    -0.035 OA 
HETATM   13  C   UNL     1      -8.814   5.278  65.140  1.00  0.00    -0.130 A  
HETATM   14  C   UNL     1      -7.585   9.269  65.468  1.00  0.00    -0.091 A  
HETATM   15  C   UNL     1      -5.507  10.624  66.670  1.00  0.00    -0.060 A  
HETATM   16  C   UNL     1      -5.655  10.684  65.283  1.00  0.00    -0.137 A  
HETATM   17  C   UNL     1      -9.855   4.557  65.709  1.00  0.00    -0.231 A  
HETATM   18  C   UNL     1      -9.871   6.093  67.579  1.00  0.00    -0.140 A  
HETATM   19  C   UNL     1     -10.352   4.940  66.952  1.00  0.00    -0.237 A  
BRANCH   7  20
HETATM   20  O   UNL     1      -8.643   7.504  70.061  1.00  0.00    -0.136 OA 
BRANCH  20  21
HETATM   21  C   UNL     1      -8.222   6.879  71.299  1.00  0.00    -0.114 C  
HETATM   22  C   UNL     1      -8.845   7.569  72.513  1.00  0.00    -0.171 C  
HETATM   23  N   UNL     1     -10.827   6.022  72.450  1.00  0.00    -0.234 NA 
HETATM   24  C   UNL     1     -10.365   7.413  72.507  1.00  0.00    -0.227 C  
HETATM   25  C   UNL     1     -10.696   5.332  73.728  1.00  0.00    -0.294 C  
HETATM   26  C   UNL     1     -10.202   5.292  71.338  1.00  0.00    -0.213 C  
HETATM   27  C   UNL     1      -8.676   5.415  71.276  1.00  0.00    -0.136 C  
ENDBRANCH  20  21
ENDBRANCH   7  20
ENDBRANCH   3   4
ENDBRANCH   2   3
TORSDOF 4
ENDMDL
MODEL       97
REMARK 921   NORMALIZED FREE ENERGY PREDICTED BY IDOCK:   -3.24 KCAL/MOL
REMARK 922        TOTAL FREE ENERGY PREDICTED BY IDOCK:   -5.30 KCAL/MOL
REMARK 923 INTER-LIGAND FREE ENERGY PREDICTED BY IDOCK:   -4.16 KCAL/MOL
REMARK 924 INTRA-LIGAND FREE ENERGY PREDICTED BY IDOCK:   -1.14 KCAL/MOL
REMARK 927      BINDING AFFINITY PREDICTED BY RF-SCORE:    0.00 PKD
ROOT
HETATM    1  C   UNL     1      -9.508   4.871  65.260  1.00  0.00    -0.106 C  
HETATM    2  C   UNL     1     -10.088   5.359  66.585  1.00  0.00    -0.250 C  
ENDROOT
BRANCH   2   3
HETATM    3  C   UNL     1     -10.193   6.879  66.576  1.00  0.00    -0.057 C  
BRANCH   3   4
HETATM    4  O   UNL     1      -9.450   7.454  67.650  1.00  0.00    -0.134 OA 
HETATM    5  C   UNL     1      -8.512   8.523  67.284  1.00  0.00    -0.123 C  
HETATM    6  C   UNL     1      -9.340   9.676  66.616  1.00  0.00    -0.200 A  
HETATM    7  C   UNL     1      -7.803   9.001  68.640  1.00  0.00    -0.101 C  
HETATM    8  C   UNL     1      -7.344   7.936  66.414  1.00  0.00    -0.086 A  
HETATM    9  C   UNL     1      -9.875  10.747  67.350  1.00  0.00    -0.204 A  
HETATM   10  C   UNL     1     -10.351  10.678  64.597  1.00  0.00    -0.353 A  
HETATM   11  C   UNL     1      -6.883   8.533  65.227  1.00  0.00    -0.067 A  
HETATM   12  O   UNL     1      -7.345  10.121  68.851  1.00  0.00    -0.074 OA 
HETATM   13  C   UNL     1      -5.947   7.906  64.403  1.00  0.00    -0.052 A  
HETATM   14  C   UNL     1      -9.667   9.646  65.233  1.00  0.00    -0.330 A  
HETATM   15  C   UNL     1     -10.584  11.780  66.717  1.00  0.00    -0.273 A  
HETATM   16  C   UNL     1     -10.793  11.762  65.337  1.00  0.00    -0.347 A  
HETATM   17  C   UNL     1      -5.338   6.730  64.817  1.00  0.00    -0.027 A  
HETATM   18  C   UNL     1      -6.679   6.766  66.830  1.00  0.00    -0.056 A  
HETATM   19  C   UNL     1      -5.673   6.185  66.053  1.00  0.00    -0.020 A  
BRANCH   7  20
HETATM   20  O   UNL     1      -7.658   7.959  69.529  1.00  0.00    -0.094 OA 
BRANCH  20  21
HETATM   21  C   UNL     1      -7.617   8.265  70.945  1.00  0.00    -0.076 C  
HETATM   22  C   UNL     1      -8.872   9.019  71.390  1.00  0.00    -0.220 C  
HETATM   23  N   UNL     1     -10.048   6.862  71.929  1.00  0.00    -0.184 NA 
HETATM   24  C   UNL     1     -10.117   8.147  71.226  1.00  0.00    -0.195 C  
HETATM   25  C   UNL     1     -10.251   6.995  73.368  1.00  0.00    -0.306 C  
HETATM   26  C   UNL     1      -8.823   6.127  71.589  1.00  0.00    -0.138 C  
HETATM   27  C   UNL     1      -7.533   6.945  71.720  1.00  0.00    -0.089 C  
ENDBRANCH  20  21
ENDBRANCH   7  20
ENDBRANCH   3   4
ENDBRANCH   2   3
TORSDOF 4
ENDMDL
MODEL       98
REMARK 921   NORMALIZED FREE ENERGY PREDICTED BY IDOCK:   -3.20 KCAL/MOL
REMARK 922        TOTAL FREE ENERGY PREDICTED BY IDOCK:   -5.25 KCAL/MOL
REMARK 923 INTER-LIGAND FREE ENERGY PREDICTED BY IDOCK:   -4.17 KCAL/MOL
REMARK 924 INTRA-LIGAND FREE ENERGY PREDICTED BY IDOCK:   -1.08 KCAL/MOL
REMARK 927      BINDING AFFINITY PREDICTED BY RF-SCORE:    0.00 PKD
ROOT
HETATM    1  C   UNL     1     -11.310   6.556  68.956  1.00  0.00    -0.296 C  
HETATM    2  C   UNL     1     -10.494   5.297  68.680  1.00  0.00    -0.148 C  
ENDROOT
BRANCH   2   3
HETATM    3  C   UNL     1      -9.936   5.340  67.262  1.00  0.00    -0.177 C  
BRANCH   3   4
HETATM    4  O   UNL     1      -9.798   6.684  66.804  1.00  0.00    -0.166 OA 
HETATM    5  C   UNL     1      -8.443   7.097  66.420  1.00  0.00    -0.130 C  
HETATM    6  C   UNL     1      -7.966   6.153  65.260  1.00  0.00    -0.115 A  
HETATM    7  C   UNL     1      -8.541   8.625  65.947  1.00  0.00    -0.157 C  
HETATM    8  C   UNL     1      -7.515   7.135  67.686  1.00  0.00    -0.101 A  
HETATM    9  C   UNL     1      -8.168   6.459  63.904  1.00  0.00     0.034 A  
HETATM   10  C   UNL     1      -6.897   4.050  64.530  1.00  0.00    -0.045 A  
HETATM   11  C   UNL     1      -6.225   6.575  67.722  1.00  0.00    -0.031 A  
HETATM   12  O   UNL     1      -7.792   9.175  65.142  1.00  0.00    -0.101 OA 
HETATM   13  C   UNL     1      -5.490   6.496  68.906  1.00  0.00    -0.016 A  
HETATM   14  C   UNL     1      -7.381   4.887  65.531  1.00  0.00    -0.073 A  
HETATM   15  C   UNL     1      -7.700   5.608  62.890  1.00  0.00    -0.083 A  
HETATM   16  C   UNL     1      -7.036   4.421  63.203  1.00  0.00    -0.044 A  
HETATM   17  C   UNL     1      -5.966   7.104  70.059  1.00  0.00    -0.024 A  
HETATM   18  C   UNL     1      -7.955   7.780  68.859  1.00  0.00    -0.124 A  
HETATM   19  C   UNL     1      -7.179   7.785  70.021  1.00  0.00    -0.067 A  
BRANCH   7  20
HETATM   20  O   UNL     1      -9.513   9.309  66.644  1.00  0.00    -0.166 OA 
BRANCH  20  21
HETATM   21  C   UNL     1      -9.186  10.618  67.172  1.00  0.00    -0.147 C  
HETATM   22  C   UNL     1      -9.633  11.730  66.222  1.00  0.00    -0.242 C  
HETATM   23  N   UNL     1     -11.875  11.876  67.351  1.00  0.00    -0.611 NA 
HETATM   24  C   UNL     1     -11.155  11.747  66.081  1.00  0.00    -0.307 C  
HETATM   25  C   UNL     1     -11.845  13.234  67.881  1.00  0.00    -0.349 C  
HETATM   26  C   UNL     1     -11.432  10.870  68.326  1.00  0.00    -0.305 C  
HETATM   27  C   UNL     1      -9.913  10.790  68.511  1.00  0.00    -0.186 C  
ENDBRANCH  20  21
ENDBRANCH   7  20
ENDBRANCH   3   4
ENDBRANCH   2   3
TORSDOF 4
ENDMDL
MODEL       99
REMARK 921   NORMALIZED FREE ENERGY PREDICTED BY IDOCK:   -3.19 KCAL/MOL
REMARK 922        TOTAL FREE ENERGY PREDICTED BY IDOCK:   -5.23 KCAL/MOL
REMARK 923 INTER-LIGAND FREE ENERGY PREDICTED BY IDOCK:   -4.44 KCAL/MOL
REMARK 924 INTRA-LIGAND FREE ENERGY PREDICTED BY IDOCK:   -0.80 KCAL/MOL
REMARK 927      BINDING AFFINITY PREDICTED BY RF-SCORE:    0.00 PKD
ROOT
HETATM    1  C   UNL     1     -11.737   7.992  70.763  1.00  0.00    -0.215 C  
HETATM    2  C   UNL     1     -11.725   6.587  70.171  1.00  0.00    -0.419 C  
ENDROOT
BRANCH   2   3
HETATM    3  C   UNL     1     -10.450   6.376  69.362  1.00  0.00    -0.228 C  
BRANCH   3   4
HETATM    4  O   UNL     1      -9.872   7.623  68.978  1.00  0.00    -0.162 OA 
HETATM    5  C   UNL     1      -8.415   7.729  69.127  1.00  0.00    -0.138 C  
HETATM    6  C   UNL     1      -7.761   6.614  68.238  1.00  0.00    -0.105 A  
HETATM    7  C   UNL     1      -8.007   9.201  68.640  1.00  0.00    -0.101 C  
HETATM    8  C   UNL     1      -8.028   7.697  70.649  1.00  0.00    -0.099 A  
HETATM    9  C   UNL     1      -7.383   6.834  66.904  1.00  0.00    -0.082 A  
HETATM   10  C   UNL     1      -6.972   4.287  67.980  1.00  0.00    -0.055 A  
HETATM   11  C   UNL     1      -6.990   6.903  71.170  1.00  0.00    -0.069 A  
HETATM   12  O   UNL     1      -6.918   9.522  68.170  1.00  0.00    -0.076 OA 
HETATM   13  C   UNL     1      -6.774   6.786  72.544  1.00  0.00    -0.063 A  
HETATM   14  C   UNL     1      -7.598   5.286  68.720  1.00  0.00    -0.082 A  
HETATM   15  C   UNL     1      -6.770   5.824  66.146  1.00  0.00    -0.057 A  
HETATM   16  C   UNL     1      -6.535   4.561  66.694  1.00  0.00    -0.041 A  
HETATM   17  C   UNL     1      -7.497   7.572  73.429  1.00  0.00    -0.120 A  
HETATM   18  C   UNL     1      -8.718   8.515  71.565  1.00  0.00    -0.246 A  
HETATM   19  C   UNL     1      -8.438   8.471  72.934  1.00  0.00    -0.134 A  
BRANCH   7  20
HETATM   20  O   UNL     1      -8.997  10.118  68.915  1.00  0.00    -0.137 OA 
BRANCH  20  21
HETATM   21  C   UNL     1      -8.964  11.392  68.226  1.00  0.00    -0.175 C  
HETATM   22  C   UNL     1      -9.338  11.238  66.751  1.00  0.00    -0.191 C  
HETATM   23  N   UNL     1     -11.770  11.623  67.268  1.00  0.00    -0.611 NA 
HETATM   24  C   UNL     1     -10.784  10.764  66.604  1.00  0.00    -0.207 C  
HETATM   25  C   UNL     1     -12.031  12.855  66.531  1.00  0.00    -0.377 C  
HETATM   26  C   UNL     1     -11.418  11.860  68.674  1.00  0.00    -0.294 C  
HETATM   27  C   UNL     1      -9.975  12.328  68.898  1.00  0.00     0.046 C  
ENDBRANCH  20  21
ENDBRANCH   7  20
ENDBRANCH   3   4
ENDBRANCH   2   3
TORSDOF 4
ENDMDL
MODEL      100
REMARK 921   NORMALIZED FREE ENERGY PREDICTED BY IDOCK:   -3.16 KCAL/MOL
REMARK 922        TOTAL FREE ENERGY PREDICTED BY IDOCK:   -5.20 KCAL/MOL
REMARK 923 INTER-LIGAND FREE ENERGY PREDICTED BY IDOCK:   -4.02 KCAL/MOL
REMARK 924 INTRA-LIGAND FREE ENERGY PREDICTED BY IDOCK:   -1.19 KCAL/MOL
REMARK 927      BINDING AFFINITY PREDICTED BY RF-SCORE:    0.00 PKD
ROOT
HETATM    1  C   UNL     1     -10.932   6.245  66.751  1.00  0.00    -0.328 C  
HETATM    2  C   UNL     1     -10.218   4.898  66.709  1.00  0.00    -0.274 C  
ENDROOT
BRANCH   2   3
HETATM    3  C   UNL     1      -9.724   4.529  68.103  1.00  0.00    -0.127 C  
BRANCH   3   4
HETATM    4  O   UNL     1      -8.759   5.469  68.573  1.00  0.00    -0.105 OA 
HETATM    5  C   UNL     1      -8.588   5.541  70.029  1.00  0.00    -0.120 C  
HETATM    6  C   UNL     1      -8.143   4.121  70.529  1.00  0.00    -0.056 A  
HETATM    7  C   UNL     1      -7.468   6.653  70.309  1.00  0.00    -0.094 C  
HETATM    8  C   UNL     1      -9.889   6.116  70.694  1.00  0.00    -0.214 A  
HETATM    9  C   UNL     1      -6.795   3.748  70.646  1.00  0.00    -0.033 A  
HETATM   10  C   UNL     1      -8.740   1.853  71.303  1.00  0.00    -0.102 A  
HETATM   11  C   UNL     1     -10.500   5.548  71.827  1.00  0.00    -0.287 A  
HETATM   12  O   UNL     1      -6.721   6.687  71.285  1.00  0.00    -0.055 OA 
HETATM   13  C   UNL     1     -11.735   5.995  72.299  1.00  0.00    -0.338 A  
HETATM   14  C   UNL     1      -9.096   3.104  70.806  1.00  0.00    -0.186 A  
HETATM   15  C   UNL     1      -6.430   2.481  71.127  1.00  0.00    -0.023 A  
HETATM   16  C   UNL     1      -7.403   1.546  71.486  1.00  0.00    -0.032 A  
HETATM   17  C   UNL     1     -12.326   7.118  71.738  1.00  0.00    -0.385 A  
HETATM   18  C   UNL     1     -10.489   7.279  70.171  1.00  0.00    -0.229 A  
HETATM   19  C   UNL     1     -11.677   7.786  70.703  1.00  0.00    -0.191 A  
BRANCH   7  20
HETATM   20  O   UNL     1      -7.509   7.659  69.369  1.00  0.00    -0.085 OA 
BRANCH  20  21
HETATM   21  C   UNL     1      -6.815   8.897  69.660  1.00  0.00    -0.050 C  
HETATM   22  C   UNL     1      -6.026   9.393  68.446  1.00  0.00    -0.044 C  
HETATM   23  N   UNL     1      -7.996  10.730  67.636  1.00  0.00    -0.109 NA 
HETATM   24  C   UNL     1      -6.965   9.745  67.293  1.00  0.00    -0.084 C  
HETATM   25  C   UNL     1      -7.473  12.090  67.711  1.00  0.00    -0.121 C  
HETATM   26  C   UNL     1      -8.740  10.335  68.840  1.00  0.00    -0.152 C  
HETATM   27  C   UNL     1      -7.858   9.956  70.035  1.00  0.00    -0.192 C  
ENDBRANCH  20  21
ENDBRANCH   7  20
ENDBRANCH   3   4
ENDBRANCH   2   3
TORSDOF 4
ENDMDL
MODEL      101
REMARK 921   NORMALIZED FREE ENERGY PREDICTED BY IDOCK:   -3.15 KCAL/MOL
REMARK 922        TOTAL FREE ENERGY PREDICTED BY IDOCK:   -5.19 KCAL/MOL
REMARK 923 INTER-LIGAND FREE ENERGY PREDICTED BY IDOCK:   -4.10 KCAL/MOL
REMARK 924 INTRA-LIGAND FREE ENERGY PREDICTED BY IDOCK:   -1.09 KCAL/MOL
REMARK 927      BINDING AFFINITY PREDICTED BY RF-SCORE:    0.00 PKD
ROOT
HETATM    1  C   UNL     1     -12.346  12.952  70.409  1.00  0.00    -0.333 C  
HETATM    2  C   UNL     1     -12.263  13.608  69.034  1.00  0.00    -0.245 C  
ENDROOT
BRANCH   2   3
HETATM    3  C   UNL     1     -11.610  12.652  68.043  1.00  0.00    -0.343 C  
BRANCH   3   4
HETATM    4  O   UNL     1     -10.463  12.023  68.612  1.00  0.00    -0.223 OA 
HETATM    5  C   UNL     1      -9.211  12.161  67.857  1.00  0.00    -0.188 C  
HETATM    6  C   UNL     1      -8.895  13.694  67.733  1.00  0.00    -0.190 A  
HETATM    7  C   UNL     1      -8.082  11.380  68.685  1.00  0.00    -0.141 C  
HETATM    8  C   UNL     1      -9.316  11.380  66.499  1.00  0.00    -0.204 A  
HETATM    9  C   UNL     1      -8.107  14.381  68.670  1.00  0.00    -0.146 A  
HETATM   10  C   UNL     1      -9.168  15.834  66.532  1.00  0.00    -0.314 A  
HETATM   11  C   UNL     1      -8.921  11.917  65.260  1.00  0.00     0.298 A  
HETATM   12  O   UNL     1      -6.880  11.634  68.670  1.00  0.00    -0.067 OA 
HETATM   13  C   UNL     1      -9.167  11.252  64.058  1.00  0.00    -0.060 A  
HETATM   14  C   UNL     1      -9.471  14.486  66.704  1.00  0.00    -0.301 A  
HETATM   15  C   UNL     1      -7.815  15.745  68.513  1.00  0.00    -0.139 A  
HETATM   16  C   UNL     1      -8.319  16.463  67.427  1.00  0.00    -0.183 A  
HETATM   17  C   UNL     1      -9.686   9.965  64.072  1.00  0.00    -0.007 A  
HETATM   18  C   UNL     1      -9.801  10.057  66.487  1.00  0.00    -0.267 A  
HETATM   19  C   UNL     1      -9.959   9.352  65.291  1.00  0.00     0.079 A  
BRANCH   7  20
HETATM   20  O   UNL     1      -8.604  10.291  69.347  1.00  0.00    -0.158 OA 
BRANCH  20  21
HETATM   21  C   UNL     1      -7.785   9.101  69.460  1.00  0.00    -0.080 C  
HETATM   22  C   UNL     1      -7.364   8.848  70.909  1.00  0.00    -0.100 C  
HETATM   23  N   UNL     1      -9.406   7.437  71.318  1.00  0.00    -0.154 NA 
HETATM   24  C   UNL     1      -8.582   8.556  71.786  1.00  0.00    -0.190 C  
HETATM   25  C   UNL     1      -8.808   6.138  71.604  1.00  0.00    -0.138 C  
HETATM   26  C   UNL     1      -9.781   7.597  69.906  1.00  0.00    -0.175 C  
HETATM   27  C   UNL     1      -8.608   7.904  68.968  1.00  0.00    -0.135 C  
ENDBRANCH  20  21
ENDBRANCH   7  20
ENDBRANCH   3   4
ENDBRANCH   2   3
TORSDOF 4
ENDMDL
MODEL      102
REMARK 921   NORMALIZED FREE ENERGY PREDICTED BY IDOCK:   -3.13 KCAL/MOL
REMARK 922        TOTAL FREE ENERGY PREDICTED BY IDOCK:   -5.17 KCAL/MOL
REMARK 923 INTER-LIGAND FREE ENERGY PREDICTED BY IDOCK:   -4.67 KCAL/MOL
REMARK 924 INTRA-LIGAND FREE ENERGY PREDICTED BY IDOCK:   -0.49 KCAL/MOL
REMARK 927      BINDING AFFINITY PREDICTED BY RF-SCORE:    0.00 PKD
ROOT
HETATM    1  C   UNL     1      -5.490   9.787  69.635  1.00  0.00    -0.033 C  
HETATM    2  C   UNL     1      -6.671  10.371  70.403  1.00  0.00    -0.105 C  
ENDROOT
BRANCH   2   3
HETATM    3  C   UNL     1      -7.681  10.965  69.428  1.00  0.00    -0.066 C  
BRANCH   3   4
HETATM    4  O   UNL     1      -8.117   9.991  68.481  1.00  0.00    -0.099 OA 
HETATM    5  C   UNL     1      -9.562   9.946  68.222  1.00  0.00    -0.140 C  
HETATM    6  C   UNL     1      -9.994  11.354  67.682  1.00  0.00    -0.196 A  
HETATM    7  C   UNL     1      -9.803   8.788  67.141  1.00  0.00    -0.207 C  
HETATM    8  C   UNL     1     -10.320   9.451  69.505  1.00  0.00    -0.223 A  
HETATM    9  C   UNL     1     -10.018  11.664  66.312  1.00  0.00    -0.247 A  
HETATM   10  C   UNL     1     -10.742  13.667  68.122  1.00  0.00    -0.260 A  
HETATM   11  C   UNL     1     -11.473  10.076  70.016  1.00  0.00    -0.310 A  
HETATM   12  O   UNL     1     -10.731   8.742  66.337  1.00  0.00    -0.006 OA 
HETATM   13  C   UNL     1     -12.031   9.700  71.239  1.00  0.00    -0.462 A  
HETATM   14  C   UNL     1     -10.301  12.423  68.566  1.00  0.00    -0.232 A  
HETATM   15  C   UNL     1     -10.441  12.924  65.859  1.00  0.00    -0.294 A  
HETATM   16  C   UNL     1     -10.834  13.913  66.762  1.00  0.00    -0.286 A  
HETATM   17  C   UNL     1     -11.538   8.593  71.916  1.00  0.00    -0.420 A  
HETATM   18  C   UNL     1      -9.867   8.306  70.190  1.00  0.00    -0.184 A  
HETATM   19  C   UNL     1     -10.484   7.870  71.365  1.00  0.00    -0.242 A  
BRANCH   7  20
HETATM   20  O   UNL     1      -8.895   7.762  67.287  1.00  0.00    -0.126 OA 
BRANCH  20  21
HETATM   21  C   UNL     1      -8.432   7.080  66.096  1.00  0.00    -0.135 C  
HETATM   22  C   UNL     1      -8.409   8.019  64.888  1.00  0.00    -0.108 C  
HETATM   23  N   UNL     1      -6.036   8.691  65.381  1.00  0.00    -0.048 NA 
HETATM   24  C   UNL     1      -7.399   9.148  65.096  1.00  0.00    -0.096 C  
HETATM   25  C   UNL     1      -5.344   8.205  64.192  1.00  0.00    -0.041 C  
HETATM   26  C   UNL     1      -6.010   7.730  66.492  1.00  0.00    -0.041 C  
HETATM   27  C   UNL     1      -7.008   6.574  66.355  1.00  0.00    -0.066 C  
ENDBRANCH  20  21
ENDBRANCH   7  20
ENDBRANCH   3   4
ENDBRANCH   2   3
TORSDOF 4
ENDMDL
MODEL      103
REMARK 921   NORMALIZED FREE ENERGY PREDICTED BY IDOCK:   -3.10 KCAL/MOL
REMARK 922        TOTAL FREE ENERGY PREDICTED BY IDOCK:   -5.12 KCAL/MOL
REMARK 923 INTER-LIGAND FREE ENERGY PREDICTED BY IDOCK:   -3.92 KCAL/MOL
REMARK 924 INTRA-LIGAND FREE ENERGY PREDICTED BY IDOCK:   -1.20 KCAL/MOL
REMARK 927      BINDING AFFINITY PREDICTED BY RF-SCORE:    0.00 PKD
ROOT
HETATM    1  C   UNL     1      -6.874   2.737  67.778  1.00  0.00    -0.048 C  
HETATM    2  C   UNL     1      -6.227   3.309  66.520  1.00  0.00    -0.028 C  
ENDROOT
BRANCH   2   3
HETATM    3  C   UNL     1      -6.588   4.783  66.377  1.00  0.00    -0.046 C  
BRANCH   3   4
HETATM    4  O   UNL     1      -7.798   5.087  67.067  1.00  0.00    -0.095 OA 
HETATM    5  C   UNL     1      -8.769   5.909  66.334  1.00  0.00    -0.131 C  
HETATM    6  C   UNL     1      -9.156   5.136  65.024  1.00  0.00    -0.073 A  
HETATM    7  C   UNL     1     -10.028   6.115  67.304  1.00  0.00    -0.144 C  
HETATM    8  C   UNL     1      -8.194   7.355  66.122  1.00  0.00    -0.130 A  
HETATM    9  C   UNL     1     -10.245   4.251  64.963  1.00  0.00    -0.213 A  
HETATM   10  C   UNL     1      -8.707   4.601  62.655  1.00  0.00    -0.125 A  
HETATM   11  C   UNL     1      -8.238   8.036  64.891  1.00  0.00    -0.137 A  
HETATM   12  O   UNL     1     -11.186   6.311  66.942  1.00  0.00    -0.335 OA 
HETATM   13  C   UNL     1      -7.586   9.256  64.702  1.00  0.00    -0.106 A  
HETATM   14  C   UNL     1      -8.362   5.228  63.850  1.00  0.00    -0.122 A  
HETATM   15  C   UNL     1     -10.585   3.599  63.766  1.00  0.00    -0.284 A  
HETATM   16  C   UNL     1      -9.836   3.800  62.606  1.00  0.00    -0.137 A  
HETATM   17  C   UNL     1      -6.993   9.899  65.780  1.00  0.00    -0.109 A  
HETATM   18  C   UNL     1      -7.623   8.049  67.206  1.00  0.00    -0.097 A  
HETATM   19  C   UNL     1      -7.053   9.314  67.041  1.00  0.00    -0.086 A  
BRANCH   7  20
HETATM   20  O   UNL     1      -9.645   6.162  68.626  1.00  0.00    -0.126 OA 
BRANCH  20  21
HETATM   21  C   UNL     1     -10.374   5.351  69.581  1.00  0.00    -0.291 C  
HETATM   22  C   UNL     1      -9.523   4.184  70.086  1.00  0.00    -0.254 C  
HETATM   23  N   UNL     1      -8.646   5.572  71.991  1.00  0.00    -0.130 NA 
HETATM   24  C   UNL     1      -8.312   4.693  70.867  1.00  0.00    -0.093 C  
HETATM   25  C   UNL     1      -9.162   4.841  73.144  1.00  0.00    -0.115 C  
HETATM   26  C   UNL     1      -9.522   6.675  71.572  1.00  0.00    -0.156 C  
HETATM   27  C   UNL     1     -10.754   6.238  70.773  1.00  0.00    -0.312 C  
ENDBRANCH  20  21
ENDBRANCH   7  20
ENDBRANCH   3   4
ENDBRANCH   2   3
TORSDOF 4
ENDMDL
MODEL      104
REMARK 921   NORMALIZED FREE ENERGY PREDICTED BY IDOCK:   -3.01 KCAL/MOL
REMARK 922        TOTAL FREE ENERGY PREDICTED BY IDOCK:   -5.02 KCAL/MOL
REMARK 923 INTER-LIGAND FREE ENERGY PREDICTED BY IDOCK:   -3.90 KCAL/MOL
REMARK 924 INTRA-LIGAND FREE ENERGY PREDICTED BY IDOCK:   -1.12 KCAL/MOL
REMARK 927      BINDING AFFINITY PREDICTED BY RF-SCORE:    0.00 PKD
ROOT
HETATM    1  C   UNL     1     -10.025   5.616  67.843  1.00  0.00    -0.174 C  
HETATM    2  C   UNL     1     -10.543   7.004  67.481  1.00  0.00    -0.351 C  
ENDROOT
BRANCH   2   3
HETATM    3  C   UNL     1      -9.592   8.069  68.017  1.00  0.00    -0.152 C  
BRANCH   3   4
HETATM    4  O   UNL     1      -9.752   9.302  67.318  1.00  0.00    -0.152 OA 
HETATM    5  C   UNL     1      -8.562   9.805  66.621  1.00  0.00    -0.128 C  
HETATM    6  C   UNL     1      -8.129   8.722  65.571  1.00  0.00    -0.115 A  
HETATM    7  C   UNL     1      -8.984  11.184  65.921  1.00  0.00    -0.199 C  
HETATM    8  C   UNL     1      -7.462  10.214  67.665  1.00  0.00    -0.090 A  
HETATM    9  C   UNL     1      -8.592   8.726  64.245  1.00  0.00    -0.093 A  
HETATM   10  C   UNL     1      -6.859   6.676  65.023  1.00  0.00    -0.050 A  
HETATM   11  C   UNL     1      -6.108   9.847  67.552  1.00  0.00    -0.058 A  
HETATM   12  O   UNL     1      -8.475  11.658  64.908  1.00  0.00     0.466 OA 
HETATM   13  C   UNL     1      -5.191  10.100  68.573  1.00  0.00    -0.035 A  
HETATM   14  C   UNL     1      -7.308   7.623  65.940  1.00  0.00    -0.074 A  
HETATM   15  C   UNL     1      -8.160   7.761  63.322  1.00  0.00    -0.069 A  
HETATM   16  C   UNL     1      -7.268   6.756  63.702  1.00  0.00    -0.066 A  
HETATM   17  C   UNL     1      -5.570  10.856  69.674  1.00  0.00    -0.042 A  
HETATM   18  C   UNL     1      -7.809  11.014  68.771  1.00  0.00    -0.138 A  
HETATM   19  C   UNL     1      -6.868  11.351  69.749  1.00  0.00    -0.027 A  
BRANCH   7  20
HETATM   20  O   UNL     1      -9.931  11.858  66.661  1.00  0.00    -0.195 OA 
BRANCH  20  21
HETATM   21  C   UNL     1     -10.271  13.211  66.271  1.00  0.00    -0.293 C  
HETATM   22  C   UNL     1     -11.713  13.554  66.646  1.00  0.00    -0.425 C  
HETATM   23  N   UNL     1     -10.986  14.423  68.892  1.00  0.00    -0.247 NA 
HETATM   24  C   UNL     1     -11.900  13.538  68.163  1.00  0.00    -0.365 C  
HETATM   25  C   UNL     1     -11.366  15.828  68.796  1.00  0.00    -0.362 C  
HETATM   26  C   UNL     1      -9.586  14.181  68.515  1.00  0.00    -0.214 C  
HETATM   27  C   UNL     1      -9.328  14.173  67.004  1.00  0.00    -0.253 C  
ENDBRANCH  20  21
ENDBRANCH   7  20
ENDBRANCH   3   4
ENDBRANCH   2   3
TORSDOF 4
ENDMDL
MODEL      105
REMARK 921   NORMALIZED FREE ENERGY PREDICTED BY IDOCK:   -2.98 KCAL/MOL
REMARK 922        TOTAL FREE ENERGY PREDICTED BY IDOCK:   -4.98 KCAL/MOL
REMARK 923 INTER-LIGAND FREE ENERGY PREDICTED BY IDOCK:   -4.14 KCAL/MOL
REMARK 924 INTRA-LIGAND FREE ENERGY PREDICTED BY IDOCK:   -0.83 KCAL/MOL
REMARK 927      BINDING AFFINITY PREDICTED BY RF-SCORE:    0.00 PKD
ROOT
HETATM    1  C   UNL     1      -7.581   7.444  74.516  1.00  0.00    -0.164 C  
HETATM    2  C   UNL     1      -7.510   8.133  73.157  1.00  0.00    -0.175 C  
ENDROOT
BRANCH   2   3
HETATM    3  C   UNL     1      -8.599   7.586  72.241  1.00  0.00    -0.115 C  
BRANCH   3   4
HETATM    4  O   UNL     1      -8.731   8.383  71.065  1.00  0.00    -0.133 OA 
HETATM    5  C   UNL     1      -9.717   7.919  70.081  1.00  0.00    -0.179 C  
HETATM    6  C   UNL     1     -11.118   7.887  70.787  1.00  0.00    -0.264 A  
HETATM    7  C   UNL     1      -9.682   8.962  68.864  1.00  0.00    -0.171 C  
HETATM    8  C   UNL     1      -9.245   6.561  69.449  1.00  0.00    -0.144 A  
HETATM    9  C   UNL     1     -11.998   8.981  70.772  1.00  0.00    -0.214 A  
HETATM   10  C   UNL     1     -12.787   6.682  72.151  1.00  0.00    -0.078 A  
HETATM   11  C   UNL     1     -10.086   5.444  69.289  1.00  0.00    -0.301 A  
HETATM   12  O   UNL     1     -10.619   9.211  68.109  1.00  0.00    -0.219 OA 
HETATM   13  C   UNL     1      -9.595   4.209  68.864  1.00  0.00    -0.222 A  
HETATM   14  C   UNL     1     -11.530   6.767  71.559  1.00  0.00    -0.329 A  
HETATM   15  C   UNL     1     -13.258   8.908  71.386  1.00  0.00    -0.309 A  
HETATM   16  C   UNL     1     -13.666   7.748  72.047  1.00  0.00    -0.268 A  
HETATM   17  C   UNL     1      -8.276   4.093  68.448  1.00  0.00    -0.088 A  
HETATM   18  C   UNL     1      -7.923   6.427  68.981  1.00  0.00    -0.111 A  
HETATM   19  C   UNL     1      -7.454   5.216  68.464  1.00  0.00    -0.074 A  
BRANCH   7  20
HETATM   20  O   UNL     1      -8.420   9.481  68.678  1.00  0.00    -0.115 OA 
BRANCH  20  21
HETATM   21  C   UNL     1      -8.225  10.448  67.618  1.00  0.00    -0.110 C  
HETATM   22  C   UNL     1      -8.397  11.880  68.128  1.00  0.00    -0.161 C  
HETATM   23  N   UNL     1      -5.947  12.042  68.676  1.00  0.00    -0.053 NA 
HETATM   24  C   UNL     1      -7.320  12.223  69.158  1.00  0.00     0.091 C  
HETATM   25  C   UNL     1      -5.520  13.109  67.778  1.00  0.00    -0.110 C  
HETATM   26  C   UNL     1      -5.748  10.701  68.110  1.00  0.00    -0.042 C  
HETATM   27  C   UNL     1      -6.800  10.285  67.076  1.00  0.00    -0.084 C  
ENDBRANCH  20  21
ENDBRANCH   7  20
ENDBRANCH   3   4
ENDBRANCH   2   3
TORSDOF 4
ENDMDL
MODEL      106
REMARK 921   NORMALIZED FREE ENERGY PREDICTED BY IDOCK:   -2.96 KCAL/MOL
REMARK 922        TOTAL FREE ENERGY PREDICTED BY IDOCK:   -4.95 KCAL/MOL
REMARK 923 INTER-LIGAND FREE ENERGY PREDICTED BY IDOCK:   -4.08 KCAL/MOL
REMARK 924 INTRA-LIGAND FREE ENERGY PREDICTED BY IDOCK:   -0.87 KCAL/MOL
REMARK 927      BINDING AFFINITY PREDICTED BY RF-SCORE:    0.00 PKD
ROOT
HETATM    1  C   UNL     1     -10.962  11.041  67.167  1.00  0.00    -0.344 C  
HETATM    2  C   UNL     1     -10.418   9.729  66.611  1.00  0.00    -0.233 C  
ENDROOT
BRANCH   2   3
HETATM    3  C   UNL     1     -10.636   8.608  67.621  1.00  0.00    -0.203 C  
BRANCH   3   4
HETATM    4  O   UNL     1      -9.552   7.681  67.605  1.00  0.00    -0.140 OA 
HETATM    5  C   UNL     1      -8.476   7.932  68.570  1.00  0.00    -0.128 C  
HETATM    6  C   UNL     1      -9.105   7.895  70.008  1.00  0.00    -0.152 A  
HETATM    7  C   UNL     1      -7.386   6.775  68.362  1.00  0.00    -0.087 C  
HETATM    8  C   UNL     1      -7.719   9.257  68.197  1.00  0.00    -0.088 A  
HETATM    9  C   UNL     1      -9.170   6.720  70.774  1.00  0.00    -0.158 A  
HETATM   10  C   UNL     1     -10.243   9.058  71.865  1.00  0.00    -0.342 A  
HETATM   11  C   UNL     1      -7.394  10.257  69.132  1.00  0.00    -0.096 A  
HETATM   12  O   UNL     1      -6.619   6.351  69.223  1.00  0.00    -0.041 OA 
HETATM   13  C   UNL     1      -6.858  11.484  68.739  1.00  0.00    -0.084 A  
HETATM   14  C   UNL     1      -9.725   9.041  70.573  1.00  0.00    -0.262 A  
HETATM   15  C   UNL     1      -9.710   6.727  72.070  1.00  0.00    -0.159 A  
HETATM   16  C   UNL     1     -10.216   7.903  72.627  1.00  0.00    -0.361 A  
HETATM   17  C   UNL     1      -6.496  11.691  67.415  1.00  0.00    -0.103 A  
HETATM   18  C   UNL     1      -7.304   9.476  66.868  1.00  0.00    -0.087 A  
HETATM   19  C   UNL     1      -6.678  10.667  66.489  1.00  0.00    -0.116 A  
BRANCH   7  20
HETATM   20  O   UNL     1      -7.322   6.372  67.046  1.00  0.00    -0.079 OA 
BRANCH  20  21
HETATM   21  C   UNL     1      -7.193   4.957  66.767  1.00  0.00    -0.080 C  
HETATM   22  C   UNL     1      -8.501   4.212  67.039  1.00  0.00    -0.100 C  
HETATM   23  N   UNL     1      -9.267   4.571  64.671  1.00  0.00    -0.155 NA 
HETATM   24  C   UNL     1      -9.604   4.686  66.093  1.00  0.00    -0.184 C  
HETATM   25  C   UNL     1      -9.349   3.199  64.182  1.00  0.00    -0.133 C  
HETATM   26  C   UNL     1      -7.981   5.212  64.368  1.00  0.00    -0.107 C  
HETATM   27  C   UNL     1      -6.829   4.790  65.287  1.00  0.00    -0.060 C  
ENDBRANCH  20  21
ENDBRANCH   7  20
ENDBRANCH   3   4
ENDBRANCH   2   3
TORSDOF 4
ENDMDL
MODEL      107
REMARK 921   NORMALIZED FREE ENERGY PREDICTED BY IDOCK:   -2.83 KCAL/MOL
REMARK 922        TOTAL FREE ENERGY PREDICTED BY IDOCK:   -4.80 KCAL/MOL
REMARK 923 INTER-LIGAND FREE ENERGY PREDICTED BY IDOCK:   -3.88 KCAL/MOL
REMARK 924 INTRA-LIGAND FREE ENERGY PREDICTED BY IDOCK:   -0.92 KCAL/MOL
REMARK 927      BINDING AFFINITY PREDICTED BY RF-SCORE:    0.00 PKD
ROOT
HETATM    1  C   UNL     1      -9.980   5.954  66.836  1.00  0.00    -0.205 C  
HETATM    2  C   UNL     1      -9.077   6.769  65.916  1.00  0.00    -0.049 C  
ENDROOT
BRANCH   2   3
HETATM    3  C   UNL     1      -9.525   8.226  65.906  1.00  0.00    -0.055 C  
BRANCH   3   4
HETATM    4  O   UNL     1      -8.631   9.046  66.657  1.00  0.00    -0.123 OA 
HETATM    5  C   UNL     1      -7.983  10.136  65.917  1.00  0.00    -0.134 C  
HETATM    6  C   UNL     1      -9.113  11.068  65.352  1.00  0.00    -0.213 A  
HETATM    7  C   UNL     1      -7.037  10.904  66.959  1.00  0.00    -0.109 C  
HETATM    8  C   UNL     1      -6.995   9.546  64.849  1.00  0.00    -0.106 A  
HETATM    9  C   UNL     1      -9.600  12.179  66.059  1.00  0.00    -0.242 A  
HETATM   10  C   UNL     1     -10.732  11.610  63.568  1.00  0.00    -0.495 A  
HETATM   11  C   UNL     1      -6.939   9.987  63.514  1.00  0.00    -0.131 A  
HETATM   12  O   UNL     1      -6.711  12.087  66.891  1.00  0.00    -0.129 OA 
HETATM   13  C   UNL     1      -6.156   9.339  62.558  1.00  0.00    -0.093 A  
HETATM   14  C   UNL     1      -9.766  10.776  64.125  1.00  0.00    -0.364 A  
HETATM   15  C   UNL     1     -10.588  13.012  65.511  1.00  0.00    -0.297 A  
HETATM   16  C   UNL     1     -11.130  12.746  64.252  1.00  0.00    -0.410 A  
HETATM   17  C   UNL     1      -5.296   8.320  62.941  1.00  0.00    -0.068 A  
HETATM   18  C   UNL     1      -6.082   8.538  65.219  1.00  0.00    -0.049 A  
HETATM   19  C   UNL     1      -5.227   7.952  64.282  1.00  0.00    -0.036 A  
BRANCH   7  20
HETATM   20  O   UNL     1      -6.522  10.044  67.904  1.00  0.00    -0.058 OA 
BRANCH  20  21
HETATM   21  C   UNL     1      -6.578  10.441  69.296  1.00  0.00    -0.056 C  
HETATM   22  C   UNL     1      -8.020  10.492  69.804  1.00  0.00    -0.014 C  
HETATM   23  N   UNL     1      -7.911   8.088  70.533  1.00  0.00    -0.094 NA 
HETATM   24  C   UNL     1      -8.655   9.102  69.780  1.00  0.00    -0.142 C  
HETATM   25  C   UNL     1      -8.088   8.214  71.976  1.00  0.00    -0.138 C  
HETATM   26  C   UNL     1      -6.499   8.045  70.130  1.00  0.00    -0.036 C  
HETATM   27  C   UNL     1      -5.800   9.409  70.121  1.00  0.00    -0.033 C  
ENDBRANCH  20  21
ENDBRANCH   7  20
ENDBRANCH   3   4
ENDBRANCH   2   3
TORSDOF 4
ENDMDL
MODEL      108
REMARK 921   NORMALIZED FREE ENERGY PREDICTED BY IDOCK:   -2.80 KCAL/MOL
REMARK 922        TOTAL FREE ENERGY PREDICTED BY IDOCK:   -4.76 KCAL/MOL
REMARK 923 INTER-LIGAND FREE ENERGY PREDICTED BY IDOCK:   -3.81 KCAL/MOL
REMARK 924 INTRA-LIGAND FREE ENERGY PREDICTED BY IDOCK:   -0.95 KCAL/MOL
REMARK 927      BINDING AFFINITY PREDICTED BY RF-SCORE:    0.00 PKD
ROOT
HETATM    1  C   UNL     1     -11.117  11.485  67.595  1.00  0.00    -0.324 C  
HETATM    2  C   UNL     1     -10.896   9.985  67.430  1.00  0.00    -0.313 C  
ENDROOT
BRANCH   2   3
HETATM    3  C   UNL     1     -10.140   9.711  66.135  1.00  0.00    -0.258 C  
BRANCH   3   4
HETATM    4  O   UNL     1      -9.572   8.402  66.137  1.00  0.00    -0.221 OA 
HETATM    5  C   UNL     1      -8.107   8.336  66.183  1.00  0.00    -0.111 C  
HETATM    6  C   UNL     1      -7.637   9.053  67.498  1.00  0.00    -0.089 A  
HETATM    7  C   UNL     1      -7.713   6.782  66.174  1.00  0.00    -0.091 C  
HETATM    8  C   UNL     1      -7.502   8.904  64.850  1.00  0.00    -0.098 A  
HETATM    9  C   UNL     1      -7.451   8.367  68.709  1.00  0.00    -0.092 A  
HETATM   10  C   UNL     1      -6.994  11.123  68.681  1.00  0.00    -0.081 A  
HETATM   11  C   UNL     1      -6.433   9.818  64.808  1.00  0.00    -0.108 A  
HETATM   12  O   UNL     1      -6.692   6.300  66.659  1.00  0.00    -0.056 OA 
HETATM   13  C   UNL     1      -6.022  10.414  63.615  1.00  0.00    -0.113 A  
HETATM   14  C   UNL     1      -7.462  10.462  67.549  1.00  0.00    -0.093 A  
HETATM   15  C   UNL     1      -7.000   9.032  69.859  1.00  0.00    -0.052 A  
HETATM   16  C   UNL     1      -6.740  10.404  69.836  1.00  0.00    -0.134 A  
HETATM   17  C   UNL     1      -6.573  10.004  62.409  1.00  0.00    -0.121 A  
HETATM   18  C   UNL     1      -8.014   8.475  63.609  1.00  0.00    -0.161 A  
HETATM   19  C   UNL     1      -7.538   9.000  62.405  1.00  0.00    -0.103 A  
BRANCH   7  20
HETATM   20  O   UNL     1      -8.612   6.037  65.444  1.00  0.00    -0.153 OA 
BRANCH  20  21
HETATM   21  C   UNL     1      -8.465   4.596  65.439  1.00  0.00    -0.126 C  
HETATM   22  C   UNL     1      -9.747   3.902  65.901  1.00  0.00    -0.168 C  
HETATM   23  N   UNL     1     -10.605   3.785  63.539  1.00  0.00    -0.250 NA 
HETATM   24  C   UNL     1     -10.892   4.169  64.925  1.00  0.00    -0.068 C  
HETATM   25  C   UNL     1     -10.677   2.343  63.329  1.00  0.00    -0.222 C  
HETATM   26  C   UNL     1      -9.342   4.371  63.068  1.00  0.00    -0.110 C  
HETATM   27  C   UNL     1      -8.151   4.150  64.006  1.00  0.00    -0.091 C  
ENDBRANCH  20  21
ENDBRANCH   7  20
ENDBRANCH   3   4
ENDBRANCH   2   3
TORSDOF 4
ENDMDL
MODEL      109
REMARK 921   NORMALIZED FREE ENERGY PREDICTED BY IDOCK:   -2.77 KCAL/MOL
REMARK 922        TOTAL FREE ENERGY PREDICTED BY IDOCK:   -4.72 KCAL/MOL
REMARK 923 INTER-LIGAND FREE ENERGY PREDICTED BY IDOCK:   -3.72 KCAL/MOL
REMARK 924 INTRA-LIGAND FREE ENERGY PREDICTED BY IDOCK:   -1.00 KCAL/MOL
REMARK 927      BINDING AFFINITY PREDICTED BY RF-SCORE:    0.00 PKD
ROOT
HETATM    1  C   UNL     1      -6.296   6.263  73.788  1.00  0.00    -0.066 C  
HETATM    2  C   UNL     1      -5.541   5.689  72.594  1.00  0.00    -0.026 C  
ENDROOT
BRANCH   2   3
HETATM    3  C   UNL     1      -6.038   6.335  71.306  1.00  0.00    -0.036 C  
BRANCH   3   4
HETATM    4  O   UNL     1      -7.444   6.149  71.145  1.00  0.00    -0.082 OA 
HETATM    5  C   UNL     1      -7.871   5.518  69.890  1.00  0.00    -0.082 C  
HETATM    6  C   UNL     1      -7.197   4.103  69.814  1.00  0.00    -0.049 A  
HETATM    7  C   UNL     1      -9.470   5.420  69.942  1.00  0.00    -0.159 C  
HETATM    8  C   UNL     1      -7.573   6.476  68.681  1.00  0.00    -0.097 A  
HETATM    9  C   UNL     1      -7.816   2.943  70.309  1.00  0.00    -0.047 A  
HETATM   10  C   UNL     1      -5.272   2.692  69.182  1.00  0.00    -0.012 A  
HETATM   11  C   UNL     1      -6.961   6.053  67.487  1.00  0.00    -0.069 A  
HETATM   12  O   UNL     1     -10.154   4.582  69.361  1.00  0.00    -0.193 OA 
HETATM   13  C   UNL     1      -6.577   6.958  66.497  1.00  0.00    -0.052 A  
HETATM   14  C   UNL     1      -5.877   3.938  69.315  1.00  0.00    -0.022 A  
HETATM   15  C   UNL     1      -7.201   1.687  70.196  1.00  0.00    -0.033 A  
HETATM   16  C   UNL     1      -5.944   1.557  69.603  1.00  0.00    -0.023 A  
HETATM   17  C   UNL     1      -6.925   8.297  66.610  1.00  0.00    -0.069 A  
HETATM   18  C   UNL     1      -7.951   7.831  68.751  1.00  0.00    -0.125 A  
HETATM   19  C   UNL     1      -7.653   8.723  67.717  1.00  0.00    -0.097 A  
BRANCH   7  20
HETATM   20  O   UNL     1     -10.019   6.476  70.636  1.00  0.00    -0.183 OA 
BRANCH  20  21
HETATM   21  C   UNL     1     -11.313   6.973  70.218  1.00  0.00    -0.295 C  
HETATM   22  C   UNL     1     -12.281   7.074  71.398  1.00  0.00    -0.407 C  
HETATM   23  N   UNL     1     -11.564   9.440  71.861  1.00  0.00    -0.355 NA 
HETATM   24  C   UNL     1     -11.791   8.102  72.417  1.00  0.00    -0.388 C  
HETATM   25  C   UNL     1     -12.804  10.170  71.625  1.00  0.00    -0.454 C  
HETATM   26  C   UNL     1     -10.693   9.391  70.679  1.00  0.00    -0.290 C  
HETATM   27  C   UNL     1     -11.119   8.371  69.617  1.00  0.00    -0.011 C  
ENDBRANCH  20  21
ENDBRANCH   7  20
ENDBRANCH   3   4
ENDBRANCH   2   3
TORSDOF 4
ENDMDL
MODEL      110
REMARK 921   NORMALIZED FREE ENERGY PREDICTED BY IDOCK:   -2.76 KCAL/MOL
REMARK 922        TOTAL FREE ENERGY PREDICTED BY IDOCK:   -4.71 KCAL/MOL
REMARK 923 INTER-LIGAND FREE ENERGY PREDICTED BY IDOCK:   -3.97 KCAL/MOL
REMARK 924 INTRA-LIGAND FREE ENERGY PREDICTED BY IDOCK:   -0.74 KCAL/MOL
REMARK 927      BINDING AFFINITY PREDICTED BY RF-SCORE:    0.00 PKD
ROOT
HETATM    1  C   UNL     1     -11.932  14.625  71.851  1.00  0.00    -0.332 C  
HETATM    2  C   UNL     1     -11.756  15.578  70.674  1.00  0.00    -0.389 C  
ENDROOT
BRANCH   2   3
HETATM    3  C   UNL     1     -10.289  15.628  70.262  1.00  0.00    -0.188 C  
BRANCH   3   4
HETATM    4  O   UNL     1      -9.910  14.443  69.563  1.00  0.00     0.060 OA 
HETATM    5  C   UNL     1      -8.889  14.609  68.521  1.00  0.00    -0.182 C  
HETATM    6  C   UNL     1      -7.599  15.185  69.205  1.00  0.00    -0.201 A  
HETATM    7  C   UNL     1      -8.635  13.160  67.886  1.00  0.00    -0.185 C  
HETATM    8  C   UNL     1      -9.466  15.464  67.337  1.00  0.00    -0.207 A  
HETATM    9  C   UNL     1      -6.581  14.362  69.713  1.00  0.00    -0.142 A  
HETATM   10  C   UNL     1      -6.284  17.128  69.977  1.00  0.00    -0.036 A  
HETATM   11  C   UNL     1      -8.774  16.535  66.741  1.00  0.00    -0.257 A  
HETATM   12  O   UNL     1      -7.591  12.782  67.361  1.00  0.00    -0.153 OA 
HETATM   13  C   UNL     1      -9.378  17.364  65.795  1.00  0.00     0.147 A  
HETATM   14  C   UNL     1      -7.439  16.580  69.425  1.00  0.00    -0.090 A  
HETATM   15  C   UNL     1      -5.424  14.909  70.290  1.00  0.00    -0.124 A  
HETATM   16  C   UNL     1      -5.262  16.292  70.392  1.00  0.00    -0.188 A  
HETATM   17  C   UNL     1     -10.641  17.058  65.310  1.00  0.00    -0.096 A  
HETATM   18  C   UNL     1     -10.729  15.151  66.797  1.00  0.00    -0.311 A  
HETATM   19  C   UNL     1     -11.297  15.924  65.780  1.00  0.00     0.164 A  
BRANCH   7  20
HETATM   20  O   UNL     1      -9.783  12.398  67.890  1.00  0.00    -0.191 OA 
BRANCH  20  21
HETATM   21  C   UNL     1      -9.671  10.986  67.586  1.00  0.00    -0.168 C  
HETATM   22  C   UNL     1      -8.885  10.244  68.668  1.00  0.00    -0.137 C  
HETATM   23  N   UNL     1     -10.993   9.762  69.952  1.00  0.00    -0.251 NA 
HETATM   24  C   UNL     1      -9.625  10.287  70.005  1.00  0.00     0.060 C  
HETATM   25  C   UNL     1     -11.035   8.304  69.903  1.00  0.00    -0.166 C  
HETATM   26  C   UNL     1     -11.773  10.395  68.880  1.00  0.00    -0.068 C  
HETATM   27  C   UNL     1     -11.084  10.397  67.511  1.00  0.00    -0.336 C  
ENDBRANCH  20  21
ENDBRANCH   7  20
ENDBRANCH   3   4
ENDBRANCH   2   3
TORSDOF 4
ENDMDL
MODEL      111
REMARK 921   NORMALIZED FREE ENERGY PREDICTED BY IDOCK:   -2.75 KCAL/MOL
REMARK 922        TOTAL FREE ENERGY PREDICTED BY IDOCK:   -4.69 KCAL/MOL
REMARK 923 INTER-LIGAND FREE ENERGY PREDICTED BY IDOCK:   -4.23 KCAL/MOL
REMARK 924 INTRA-LIGAND FREE ENERGY PREDICTED BY IDOCK:   -0.47 KCAL/MOL
REMARK 927      BINDING AFFINITY PREDICTED BY RF-SCORE:    0.00 PKD
ROOT
HETATM    1  C   UNL     1     -12.434  10.580  70.143  1.00  0.00    -0.297 C  
HETATM    2  C   UNL     1     -10.923  10.399  70.036  1.00  0.00    -0.370 C  
ENDROOT
BRANCH   2   3
HETATM    3  C   UNL     1     -10.358  11.360  68.996  1.00  0.00    -0.142 C  
BRANCH   3   4
HETATM    4  O   UNL     1      -9.487  10.685  68.090  1.00  0.00    -0.147 OA 
HETATM    5  C   UNL     1      -8.841  11.524  67.073  1.00  0.00    -0.173 C  
HETATM    6  C   UNL     1      -7.991  12.612  67.821  1.00  0.00    -0.158 A  
HETATM    7  C   UNL     1      -7.926  10.553  66.185  1.00  0.00    -0.147 C  
HETATM    8  C   UNL     1      -9.917  12.076  66.071  1.00  0.00    -0.258 A  
HETATM    9  C   UNL     1      -6.640  12.419  68.152  1.00  0.00    -0.073 A  
HETATM   10  C   UNL     1      -7.843  14.829  68.897  1.00  0.00    -0.152 A  
HETATM   11  C   UNL     1      -9.980  13.421  65.661  1.00  0.00    -0.249 A  
HETATM   12  O   UNL     1      -6.909  10.884  65.580  1.00  0.00    -0.036 OA 
HETATM   13  C   UNL     1     -11.037  13.905  64.889  1.00  0.00    -0.370 A  
HETATM   14  C   UNL     1      -8.579  13.821  68.281  1.00  0.00    -0.175 A  
HETATM   15  C   UNL     1      -5.899  13.425  68.792  1.00  0.00    -0.079 A  
HETATM   16  C   UNL     1      -6.492  14.642  69.135  1.00  0.00    -0.110 A  
HETATM   17  C   UNL     1     -11.987  13.028  64.385  1.00  0.00    -0.457 A  
HETATM   18  C   UNL     1     -10.869  11.201  65.512  1.00  0.00    -0.205 A  
HETATM   19  C   UNL     1     -11.874  11.668  64.660  1.00  0.00    -0.101 A  
BRANCH   7  20
HETATM   20  O   UNL     1      -8.478   9.296  66.078  1.00  0.00    -0.128 OA 
BRANCH  20  21
HETATM   21  C   UNL     1      -7.864   8.212  66.818  1.00  0.00    -0.095 C  
HETATM   22  C   UNL     1      -8.684   6.925  66.707  1.00  0.00    -0.122 C  
HETATM   23  N   UNL     1      -7.399   6.211  64.666  1.00  0.00    -0.067 NA 
HETATM   24  C   UNL     1      -8.721   6.426  65.263  1.00  0.00     0.024 C  
HETATM   25  C   UNL     1      -6.760   4.989  65.140  1.00  0.00    -0.048 C  
HETATM   26  C   UNL     1      -6.544   7.398  64.808  1.00  0.00    -0.043 C  
HETATM   27  C   UNL     1      -6.470   7.960  66.232  1.00  0.00    -0.047 C  
ENDBRANCH  20  21
ENDBRANCH   7  20
ENDBRANCH   3   4
ENDBRANCH   2   3
TORSDOF 4
ENDMDL
MODEL      112
REMARK 921   NORMALIZED FREE ENERGY PREDICTED BY IDOCK:   -2.74 KCAL/MOL
REMARK 922        TOTAL FREE ENERGY PREDICTED BY IDOCK:   -4.68 KCAL/MOL
REMARK 923 INTER-LIGAND FREE ENERGY PREDICTED BY IDOCK:   -3.88 KCAL/MOL
REMARK 924 INTRA-LIGAND FREE ENERGY PREDICTED BY IDOCK:   -0.81 KCAL/MOL
REMARK 927      BINDING AFFINITY PREDICTED BY RF-SCORE:    0.00 PKD
ROOT
HETATM    1  C   UNL     1     -11.254  12.449  65.601  1.00  0.00    -0.360 C  
HETATM    2  C   UNL     1     -10.905  11.303  66.545  1.00  0.00    -0.319 C  
ENDROOT
BRANCH   2   3
HETATM    3  C   UNL     1      -9.430  11.375  66.923  1.00  0.00    -0.179 C  
BRANCH   3   4
HETATM    4  O   UNL     1      -8.943  10.102  67.346  1.00  0.00    -0.134 OA 
HETATM    5  C   UNL     1      -7.502   9.877  67.182  1.00  0.00    -0.091 C  
HETATM    6  C   UNL     1      -6.749  10.969  68.020  1.00  0.00    -0.063 A  
HETATM    7  C   UNL     1      -7.201   8.396  67.718  1.00  0.00    -0.088 C  
HETATM    8  C   UNL     1      -7.138   9.824  65.655  1.00  0.00    -0.105 A  
HETATM    9  C   UNL     1      -6.369  10.768  69.356  1.00  0.00    -0.068 A  
HETATM   10  C   UNL     1      -5.779  13.235  68.182  1.00  0.00    -0.101 A  
HETATM   11  C   UNL     1      -6.051  10.516  65.091  1.00  0.00    -0.096 A  
HETATM   12  O   UNL     1      -6.133   8.008  68.184  1.00  0.00    -0.043 OA 
HETATM   13  C   UNL     1      -5.848  10.567  63.711  1.00  0.00    -0.080 A  
HETATM   14  C   UNL     1      -6.492  12.262  67.487  1.00  0.00    -0.137 A  
HETATM   15  C   UNL     1      -5.667  11.754  70.068  1.00  0.00    -0.135 A  
HETATM   16  C   UNL     1      -5.344  12.974  69.470  1.00  0.00    -0.079 A  
HETATM   17  C   UNL     1      -6.644   9.807  62.865  1.00  0.00    -0.111 A  
HETATM   18  C   UNL     1      -7.904   9.030  64.778  1.00  0.00    -0.122 A  
HETATM   19  C   UNL     1      -7.643   9.003  63.406  1.00  0.00    -0.107 A  
BRANCH   7  20
HETATM   20  O   UNL     1      -8.263   7.550  67.489  1.00  0.00    -0.112 OA 
BRANCH  20  21
HETATM   21  C   UNL     1      -8.456   6.431  68.389  1.00  0.00    -0.116 C  
HETATM   22  C   UNL     1      -8.577   6.898  69.841  1.00  0.00    -0.141 C  
HETATM   23  N   UNL     1     -11.074   7.107  69.628  1.00  0.00    -0.215 NA 
HETATM   24  C   UNL     1      -9.825   7.759  70.034  1.00  0.00    -0.181 C  
HETATM   25  C   UNL     1     -11.532   6.115  70.594  1.00  0.00    -0.261 C  
HETATM   26  C   UNL     1     -10.986   6.578  68.260  1.00  0.00    -0.281 C  
HETATM   27  C   UNL     1      -9.750   5.712  67.992  1.00  0.00    -0.149 C  
ENDBRANCH  20  21
ENDBRANCH   7  20
ENDBRANCH   3   4
ENDBRANCH   2   3
TORSDOF 4
ENDMDL
MODEL      113
REMARK 921   NORMALIZED FREE ENERGY PREDICTED BY IDOCK:   -2.73 KCAL/MOL
REMARK 922        TOTAL FREE ENERGY PREDICTED BY IDOCK:   -4.67 KCAL/MOL
REMARK 923 INTER-LIGAND FREE ENERGY PREDICTED BY IDOCK:   -3.60 KCAL/MOL
REMARK 924 INTRA-LIGAND FREE ENERGY PREDICTED BY IDOCK:   -1.08 KCAL/MOL
REMARK 927      BINDING AFFINITY PREDICTED BY RF-SCORE:    0.00 PKD
ROOT
HETATM    1  C   UNL     1     -11.222   7.822  71.228  1.00  0.00    -0.280 C  
HETATM    2  C   UNL     1     -11.924   6.673  70.512  1.00  0.00    -0.377 C  
ENDROOT
BRANCH   2   3
HETATM    3  C   UNL     1     -10.897   5.650  70.041  1.00  0.00    -0.296 C  
BRANCH   3   4
HETATM    4  O   UNL     1      -9.839   6.278  69.319  1.00  0.00    -0.138 OA 
HETATM    5  C   UNL     1      -8.562   5.553  69.287  1.00  0.00    -0.104 C  
HETATM    6  C   UNL     1      -8.822   4.156  68.622  1.00  0.00    -0.141 A  
HETATM    7  C   UNL     1      -7.543   6.446  68.431  1.00  0.00    -0.100 C  
HETATM    8  C   UNL     1      -7.935   5.511  70.727  1.00  0.00    -0.111 A  
HETATM    9  C   UNL     1      -8.685   3.940  67.241  1.00  0.00    -0.120 A  
HETATM   10  C   UNL     1      -9.487   1.787  68.833  1.00  0.00    -0.188 A  
HETATM   11  C   UNL     1      -7.403   4.346  71.309  1.00  0.00    -0.055 A  
HETATM   12  O   UNL     1      -6.585   6.022  67.789  1.00  0.00    -0.051 OA 
HETATM   13  C   UNL     1      -6.992   4.313  72.643  1.00  0.00    -0.057 A  
HETATM   14  C   UNL     1      -9.299   3.054  69.380  1.00  0.00    -0.207 A  
HETATM   15  C   UNL     1      -8.894   2.669  66.681  1.00  0.00    -0.140 A  
HETATM   16  C   UNL     1      -9.262   1.587  67.481  1.00  0.00    -0.144 A  
HETATM   17  C   UNL     1      -6.966   5.482  73.390  1.00  0.00    -0.085 A  
HETATM   18  C   UNL     1      -7.858   6.691  71.493  1.00  0.00    -0.099 A  
HETATM   19  C   UNL     1      -7.357   6.680  72.797  1.00  0.00    -0.084 A  
BRANCH   7  20
HETATM   20  O   UNL     1      -7.797   7.791  68.585  1.00  0.00    -0.115 OA 
BRANCH  20  21
HETATM   21  C   UNL     1      -6.839   8.736  68.049  1.00  0.00    -0.070 C  
HETATM   22  C   UNL     1      -7.499  10.076  67.721  1.00  0.00    -0.089 C  
HETATM   23  N   UNL     1      -7.012  10.949  70.029  1.00  0.00    -0.146 NA 
HETATM   24  C   UNL     1      -8.026  10.748  68.989  1.00  0.00    -0.137 C  
HETATM   25  C   UNL     1      -6.116  12.062  69.734  1.00  0.00    -0.145 C  
HETATM   26  C   UNL     1      -6.298   9.702  70.333  1.00  0.00    -0.081 C  
HETATM   27  C   UNL     1      -5.750   8.968  69.104  1.00  0.00    -0.036 C  
ENDBRANCH  20  21
ENDBRANCH   7  20
ENDBRANCH   3   4
ENDBRANCH   2   3
TORSDOF 4
ENDMDL
MODEL      114
REMARK 921   NORMALIZED FREE ENERGY PREDICTED BY IDOCK:   -2.70 KCAL/MOL
REMARK 922        TOTAL FREE ENERGY PREDICTED BY IDOCK:   -4.63 KCAL/MOL
REMARK 923 INTER-LIGAND FREE ENERGY PREDICTED BY IDOCK:   -4.12 KCAL/MOL
REMARK 924 INTRA-LIGAND FREE ENERGY PREDICTED BY IDOCK:   -0.51 KCAL/MOL
REMARK 927      BINDING AFFINITY PREDICTED BY RF-SCORE:    0.00 PKD
ROOT
HETATM    1  C   UNL     1      -5.647   9.373  71.872  1.00  0.00    -0.065 C  
HETATM    2  C   UNL     1      -7.028   8.763  71.654  1.00  0.00    -0.085 C  
ENDROOT
BRANCH   2   3
HETATM    3  C   UNL     1      -7.107   8.146  70.262  1.00  0.00    -0.047 C  
BRANCH   3   4
HETATM    4  O   UNL     1      -7.954   6.997  70.255  1.00  0.00    -0.113 OA 
HETATM    5  C   UNL     1      -9.135   7.073  69.387  1.00  0.00    -0.145 C  
HETATM    6  C   UNL     1      -8.634   7.297  67.917  1.00  0.00    -0.120 A  
HETATM    7  C   UNL     1      -9.919   5.685  69.549  1.00  0.00    -0.198 C  
HETATM    8  C   UNL     1     -10.133   8.156  69.934  1.00  0.00    -0.195 A  
HETATM    9  C   UNL     1      -8.373   6.234  67.037  1.00  0.00    -0.109 A  
HETATM   10  C   UNL     1      -7.939   8.836  66.114  1.00  0.00    -0.103 A  
HETATM   11  C   UNL     1     -10.748   9.127  69.122  1.00  0.00    -0.190 A  
HETATM   12  O   UNL     1     -10.641   5.167  68.700  1.00  0.00    -0.098 OA 
HETATM   13  C   UNL     1     -11.509  10.163  69.665  1.00  0.00    -0.256 A  
HETATM   14  C   UNL     1      -8.332   8.596  67.429  1.00  0.00    -0.116 A  
HETATM   15  C   UNL     1      -7.956   6.468  65.717  1.00  0.00    -0.115 A  
HETATM   16  C   UNL     1      -7.771   7.770  65.247  1.00  0.00    -0.102 A  
HETATM   17  C   UNL     1     -11.798  10.174  71.022  1.00  0.00    -0.475 A  
HETATM   18  C   UNL     1     -10.476   8.166  71.300  1.00  0.00    -0.254 A  
HETATM   19  C   UNL     1     -11.317   9.148  71.831  1.00  0.00    -0.416 A  
BRANCH   7  20
HETATM   20  O   UNL     1      -9.784   5.173  70.821  1.00  0.00    -0.167 OA 
BRANCH  20  21
HETATM   21  C   UNL     1      -8.617   4.366  71.116  1.00  0.00    -0.098 C  
HETATM   22  C   UNL     1      -8.220   4.476  72.589  1.00  0.00    -0.106 C  
HETATM   23  N   UNL     1      -9.680   2.518  73.190  1.00  0.00    -0.097 NA 
HETATM   24  C   UNL     1      -9.314   3.906  73.491  1.00  0.00    -0.103 C  
HETATM   25  C   UNL     1      -8.692   1.558  73.671  1.00  0.00    -0.054 C  
HETATM   26  C   UNL     1     -10.004   2.343  71.768  1.00  0.00    -0.127 C  
HETATM   27  C   UNL     1      -8.954   2.904  70.803  1.00  0.00    -0.163 C  
ENDBRANCH  20  21
ENDBRANCH   7  20
ENDBRANCH   3   4
ENDBRANCH   2   3
TORSDOF 4
ENDMDL
MODEL      115
REMARK 921   NORMALIZED FREE ENERGY PREDICTED BY IDOCK:   -2.66 KCAL/MOL
REMARK 922        TOTAL FREE ENERGY PREDICTED BY IDOCK:   -4.58 KCAL/MOL
REMARK 923 INTER-LIGAND FREE ENERGY PREDICTED BY IDOCK:   -4.46 KCAL/MOL
REMARK 924 INTRA-LIGAND FREE ENERGY PREDICTED BY IDOCK:   -0.12 KCAL/MOL
REMARK 927      BINDING AFFINITY PREDICTED BY RF-SCORE:    0.00 PKD
ROOT
HETATM    1  C   UNL     1     -10.394   4.871  66.173  1.00  0.00    -0.329 C  
HETATM    2  C   UNL     1     -11.010   6.176  66.668  1.00  0.00    -0.225 C  
ENDROOT
BRANCH   2   3
HETATM    3  C   UNL     1     -10.269   6.661  67.908  1.00  0.00    -0.171 C  
BRANCH   3   4
HETATM    4  O   UNL     1      -9.343   7.697  67.583  1.00  0.00    -0.140 OA 
HETATM    5  C   UNL     1      -8.890   8.530  68.704  1.00  0.00    -0.136 C  
HETATM    6  C   UNL     1      -8.195   7.588  69.749  1.00  0.00    -0.128 A  
HETATM    7  C   UNL     1      -7.871   9.608  68.097  1.00  0.00    -0.086 C  
HETATM    8  C   UNL     1     -10.087   9.385  69.254  1.00  0.00    -0.200 A  
HETATM    9  C   UNL     1      -6.817   7.319  69.726  1.00  0.00    -0.053 A  
HETATM   10  C   UNL     1      -8.360   6.085  71.702  1.00  0.00    -0.127 A  
HETATM   11  C   UNL     1     -10.387   9.513  70.623  1.00  0.00    -0.369 A  
HETATM   12  O   UNL     1      -6.951  10.147  68.709  1.00  0.00    -0.063 OA 
HETATM   13  C   UNL     1     -11.544  10.156  71.065  1.00  0.00    -0.462 A  
HETATM   14  C   UNL     1      -8.950   6.884  70.726  1.00  0.00    -0.150 A  
HETATM   15  C   UNL     1      -6.220   6.497  70.696  1.00  0.00    -0.039 A  
HETATM   16  C   UNL     1      -6.987   5.907  71.702  1.00  0.00    -0.073 A  
HETATM   17  C   UNL     1     -12.360  10.816  70.157  1.00  0.00    -0.401 A  
HETATM   18  C   UNL     1     -10.908  10.098  68.359  1.00  0.00    -0.284 A  
HETATM   19  C   UNL     1     -12.015  10.824  68.809  1.00  0.00    -0.157 A  
BRANCH   7  20
HETATM   20  O   UNL     1      -8.215   9.961  66.811  1.00  0.00    -0.122 OA 
BRANCH  20  21
HETATM   21  C   UNL     1      -8.201   8.934  65.790  1.00  0.00    -0.115 C  
HETATM   22  C   UNL     1      -8.894   9.407  64.512  1.00  0.00    -0.235 C  
HETATM   23  N   UNL     1      -6.727  10.295  63.595  1.00  0.00    -0.115 NA 
HETATM   24  C   UNL     1      -8.137  10.576  63.883  1.00  0.00    -0.029 C  
HETATM   25  C   UNL     1      -6.550   9.460  62.412  1.00  0.00    -0.095 C  
HETATM   26  C   UNL     1      -6.030   9.769  64.777  1.00  0.00    -0.090 C  
HETATM   27  C   UNL     1      -6.740   8.599  65.466  1.00  0.00    -0.063 C  
ENDBRANCH  20  21
ENDBRANCH   7  20
ENDBRANCH   3   4
ENDBRANCH   2   3
TORSDOF 4
ENDMDL
MODEL      116
REMARK 921   NORMALIZED FREE ENERGY PREDICTED BY IDOCK:   -2.45 KCAL/MOL
REMARK 922        TOTAL FREE ENERGY PREDICTED BY IDOCK:   -4.32 KCAL/MOL
REMARK 923 INTER-LIGAND FREE ENERGY PREDICTED BY IDOCK:   -3.78 KCAL/MOL
REMARK 924 INTRA-LIGAND FREE ENERGY PREDICTED BY IDOCK:   -0.55 KCAL/MOL
REMARK 927      BINDING AFFINITY PREDICTED BY RF-SCORE:    0.00 PKD
ROOT
HETATM    1  C   UNL     1     -11.278   7.806  71.021  1.00  0.00    -0.282 C  
HETATM    2  C   UNL     1     -11.712   6.693  70.073  1.00  0.00    -0.378 C  
ENDROOT
BRANCH   2   3
HETATM    3  C   UNL     1     -10.486   5.989  69.504  1.00  0.00    -0.266 C  
BRANCH   3   4
HETATM    4  O   UNL     1      -9.654   6.901  68.787  1.00  0.00    -0.135 OA 
HETATM    5  C   UNL     1      -8.400   6.350  68.261  1.00  0.00    -0.116 C  
HETATM    6  C   UNL     1      -8.765   5.179  67.282  1.00  0.00    -0.103 A  
HETATM    7  C   UNL     1      -7.648   7.548  67.507  1.00  0.00    -0.113 C  
HETATM    8  C   UNL     1      -7.443   5.968  69.446  1.00  0.00    -0.088 A  
HETATM    9  C   UNL     1      -8.958   5.376  65.905  1.00  0.00    -0.151 A  
HETATM   10  C   UNL     1      -9.280   2.791  66.918  1.00  0.00    -0.141 A  
HETATM   11  C   UNL     1      -6.748   4.747  69.522  1.00  0.00    -0.044 A  
HETATM   12  O   UNL     1      -6.859   7.423  66.574  1.00  0.00    -0.059 OA 
HETATM   13  C   UNL     1      -6.027   4.381  70.660  1.00  0.00    -0.014 A  
HETATM   14  C   UNL     1      -9.009   3.863  67.763  1.00  0.00    -0.155 A  
HETATM   15  C   UNL     1      -9.253   4.301  65.052  1.00  0.00    -0.155 A  
HETATM   16  C   UNL     1      -9.381   3.004  65.553  1.00  0.00    -0.102 A  
HETATM   17  C   UNL     1      -5.861   5.288  71.697  1.00  0.00    -0.024 A  
HETATM   18  C   UNL     1      -7.223   6.885  70.493  1.00  0.00    -0.072 A  
HETATM   19  C   UNL     1      -6.422   6.558  71.590  1.00  0.00    -0.050 A  
BRANCH   7  20
HETATM   20  O   UNL     1      -7.902   8.761  68.108  1.00  0.00    -0.100 OA 
BRANCH  20  21
HETATM   21  C   UNL     1      -9.177   9.399  67.855  1.00  0.00    -0.129 C  
HETATM   22  C   UNL     1      -9.408  10.582  68.798  1.00  0.00    -0.181 C  
HETATM   23  N   UNL     1      -8.334  12.167  67.168  1.00  0.00    -0.178 NA 
HETATM   24  C   UNL     1      -8.377  11.683  68.551  1.00  0.00    -0.140 C  
HETATM   25  C   UNL     1      -9.450  13.050  66.845  1.00  0.00    -0.242 C  
HETATM   26  C   UNL     1      -8.183  11.060  66.214  1.00  0.00    -0.164 C  
HETATM   27  C   UNL     1      -9.179   9.912  66.410  1.00  0.00    -0.195 C  
ENDBRANCH  20  21
ENDBRANCH   7  20
ENDBRANCH   3   4
ENDBRANCH   2   3
TORSDOF 4
ENDMDL
MODEL      117
REMARK 921   NORMALIZED FREE ENERGY PREDICTED BY IDOCK:   -2.41 KCAL/MOL
REMARK 922        TOTAL FREE ENERGY PREDICTED BY IDOCK:   -4.28 KCAL/MOL
REMARK 923 INTER-LIGAND FREE ENERGY PREDICTED BY IDOCK:   -3.64 KCAL/MOL
REMARK 924 INTRA-LIGAND FREE ENERGY PREDICTED BY IDOCK:   -0.64 KCAL/MOL
REMARK 927      BINDING AFFINITY PREDICTED BY RF-SCORE:    0.00 PKD
ROOT
HETATM    1  C   UNL     1     -11.497  11.999  68.174  1.00  0.00    -0.383 C  
HETATM    2  C   UNL     1     -10.181  11.456  68.723  1.00  0.00    -0.209 C  
ENDROOT
BRANCH   2   3
HETATM    3  C   UNL     1      -9.211  11.192  67.577  1.00  0.00    -0.153 C  
BRANCH   3   4
HETATM    4  O   UNL     1      -8.115  10.385  68.006  1.00  0.00    -0.108 OA 
HETATM    5  C   UNL     1      -7.959   9.096  67.322  1.00  0.00    -0.102 C  
HETATM    6  C   UNL     1      -7.760   9.387  65.792  1.00  0.00    -0.099 A  
HETATM    7  C   UNL     1      -6.679   8.380  67.968  1.00  0.00    -0.065 C  
HETATM    8  C   UNL     1      -9.162   8.150  67.680  1.00  0.00    -0.150 A  
HETATM    9  C   UNL     1      -6.492   9.556  65.214  1.00  0.00    -0.078 A  
HETATM   10  C   UNL     1      -8.730   9.787  63.557  1.00  0.00    -0.234 A  
HETATM   11  C   UNL     1      -9.876   7.405  66.724  1.00  0.00    -0.290 A  
HETATM   12  O   UNL     1      -5.954   7.565  67.403  1.00  0.00    -0.043 OA 
HETATM   13  C   UNL     1     -11.030   6.694  67.058  1.00  0.00    -0.463 A  
HETATM   14  C   UNL     1      -8.869   9.583  64.927  1.00  0.00    -0.240 A  
HETATM   15  C   UNL     1      -6.346   9.784  63.836  1.00  0.00    -0.118 A  
HETATM   16  C   UNL     1      -7.463   9.866  63.003  1.00  0.00    -0.130 A  
HETATM   17  C   UNL     1     -11.421   6.592  68.386  1.00  0.00     0.059 A  
HETATM   18  C   UNL     1      -9.555   7.995  69.023  1.00  0.00    -0.156 A  
HETATM   19  C   UNL     1     -10.655   7.207  69.373  1.00  0.00    -0.246 A  
BRANCH   7  20
HETATM   20  O   UNL     1      -6.540   8.701  69.301  1.00  0.00    -0.048 OA 
BRANCH  20  21
HETATM   21  C   UNL     1      -5.543   7.991  70.077  1.00  0.00    -0.023 C  
HETATM   22  C   UNL     1      -5.502   8.490  71.522  1.00  0.00    -0.036 C  
HETATM   23  N   UNL     1      -7.210   6.782  72.223  1.00  0.00    -0.085 NA 
HETATM   24  C   UNL     1      -6.820   8.195  72.237  1.00  0.00    -0.083 C  
HETATM   25  C   UNL     1      -6.444   5.976  73.168  1.00  0.00    -0.068 C  
HETATM   26  C   UNL     1      -7.198   6.233  70.860  1.00  0.00    -0.071 C  
HETATM   27  C   UNL     1      -5.908   6.501  70.079  1.00  0.00    -0.019 C  
ENDBRANCH  20  21
ENDBRANCH   7  20
ENDBRANCH   3   4
ENDBRANCH   2   3
TORSDOF 4
ENDMDL
MODEL      118
REMARK 921   NORMALIZED FREE ENERGY PREDICTED BY IDOCK:   -2.41 KCAL/MOL
REMARK 922        TOTAL FREE ENERGY PREDICTED BY IDOCK:   -4.27 KCAL/MOL
REMARK 923 INTER-LIGAND FREE ENERGY PREDICTED BY IDOCK:   -3.24 KCAL/MOL
REMARK 924 INTRA-LIGAND FREE ENERGY PREDICTED BY IDOCK:   -1.03 KCAL/MOL
REMARK 927      BINDING AFFINITY PREDICTED BY RF-SCORE:    0.00 PKD
ROOT
HETATM    1  C   UNL     1     -10.792   6.911  67.904  1.00  0.00    -0.287 C  
HETATM    2  C   UNL     1     -10.722   5.390  67.983  1.00  0.00    -0.084 C  
ENDROOT
BRANCH   2   3
HETATM    3  C   UNL     1      -9.976   4.841  66.773  1.00  0.00    -0.228 C  
BRANCH   3   4
HETATM    4  O   UNL     1      -9.495   5.896  65.942  1.00  0.00    -0.118 OA 
HETATM    5  C   UNL     1      -8.087   5.806  65.537  1.00  0.00    -0.128 C  
HETATM    6  C   UNL     1      -7.901   4.463  64.747  1.00  0.00    -0.089 A  
HETATM    7  C   UNL     1      -7.785   7.088  64.623  1.00  0.00    -0.116 C  
HETATM    8  C   UNL     1      -7.157   5.989  66.790  1.00  0.00    -0.070 A  
HETATM    9  C   UNL     1      -8.041   4.382  63.352  1.00  0.00    -0.090 A  
HETATM   10  C   UNL     1      -7.443   2.036  64.750  1.00  0.00    -0.063 A  
HETATM   11  C   UNL     1      -6.061   5.153  67.073  1.00  0.00    -0.031 A  
HETATM   12  O   UNL     1      -6.934   7.151  63.739  1.00  0.00    -0.055 OA 
HETATM   13  C   UNL     1      -5.351   5.252  68.270  1.00  0.00    -0.007 A  
HETATM   14  C   UNL     1      -7.668   3.235  65.422  1.00  0.00    -0.081 A  
HETATM   15  C   UNL     1      -7.837   3.171  62.671  1.00  0.00    -0.067 A  
HETATM   16  C   UNL     1      -7.506   2.007  63.367  1.00  0.00    -0.053 A  
HETATM   17  C   UNL     1      -5.625   6.285  69.155  1.00  0.00    -0.016 A  
HETATM   18  C   UNL     1      -7.387   7.052  67.685  1.00  0.00    -0.096 A  
HETATM   19  C   UNL     1      -6.614   7.212  68.838  1.00  0.00    -0.048 A  
BRANCH   7  20
HETATM   20  O   UNL     1      -8.526   8.178  65.020  1.00  0.00    -0.157 OA 
BRANCH  20  21
HETATM   21  C   UNL     1      -7.891   9.480  65.011  1.00  0.00    -0.117 C  
HETATM   22  C   UNL     1      -8.661  10.471  64.136  1.00  0.00    -0.153 C  
HETATM   23  N   UNL     1     -10.056  11.208  66.095  1.00  0.00    -0.230 NA 
HETATM   24  C   UNL     1     -10.054  10.733  64.708  1.00  0.00    -0.331 C  
HETATM   25  C   UNL     1      -9.674  12.611  66.212  1.00  0.00    -0.259 C  
HETATM   26  C   UNL     1      -9.269  10.325  66.968  1.00  0.00    -0.150 C  
HETATM   27  C   UNL     1      -7.861  10.010  66.449  1.00  0.00    -0.113 C  
ENDBRANCH  20  21
ENDBRANCH   7  20
ENDBRANCH   3   4
ENDBRANCH   2   3
TORSDOF 4
ENDMDL
MODEL      119
REMARK 921   NORMALIZED FREE ENERGY PREDICTED BY IDOCK:   -2.37 KCAL/MOL
REMARK 922        TOTAL FREE ENERGY PREDICTED BY IDOCK:   -4.23 KCAL/MOL
REMARK 923 INTER-LIGAND FREE ENERGY PREDICTED BY IDOCK:   -2.99 KCAL/MOL
REMARK 924 INTRA-LIGAND FREE ENERGY PREDICTED BY IDOCK:   -1.23 KCAL/MOL
REMARK 927      BINDING AFFINITY PREDICTED BY RF-SCORE:    0.00 PKD
ROOT
HETATM    1  C   UNL     1     -10.469  11.178  66.390  1.00  0.00    -0.311 C  
HETATM    2  C   UNL     1     -10.450  10.394  67.698  1.00  0.00    -0.277 C  
ENDROOT
BRANCH   2   3
HETATM    3  C   UNL     1      -9.368  10.947  68.619  1.00  0.00    -0.187 C  
BRANCH   3   4
HETATM    4  O   UNL     1      -8.596   9.895  69.196  1.00  0.00    -0.135 OA 
HETATM    5  C   UNL     1      -7.165   9.893  68.867  1.00  0.00    -0.076 C  
HETATM    6  C   UNL     1      -6.558  11.251  69.365  1.00  0.00    -0.116 A  
HETATM    7  C   UNL     1      -6.519   8.634  69.620  1.00  0.00    -0.039 C  
HETATM    8  C   UNL     1      -6.967   9.582  67.340  1.00  0.00    -0.084 A  
HETATM    9  C   UNL     1      -6.001  11.406  70.645  1.00  0.00    -0.040 A  
HETATM   10  C   UNL     1      -6.045  13.632  68.956  1.00  0.00    -0.088 A  
HETATM   11  C   UNL     1      -6.107  10.316  66.503  1.00  0.00    -0.071 A  
HETATM   12  O   UNL     1      -5.351   8.544  69.989  1.00  0.00    -0.025 OA 
HETATM   13  C   UNL     1      -6.070  10.108  65.123  1.00  0.00    -0.120 A  
HETATM   14  C   UNL     1      -6.622  12.426  68.569  1.00  0.00    -0.073 A  
HETATM   15  C   UNL     1      -5.436  12.626  71.049  1.00  0.00    -0.148 A  
HETATM   16  C   UNL     1      -5.429  13.729  70.193  1.00  0.00    -0.110 A  
HETATM   17  C   UNL     1      -6.787   9.061  64.561  1.00  0.00    -0.081 A  
HETATM   18  C   UNL     1      -7.651   8.501  66.750  1.00  0.00    -0.090 A  
HETATM   19  C   UNL     1      -7.541   8.230  65.384  1.00  0.00    -0.096 A  
BRANCH   7  20
HETATM   20  O   UNL     1      -7.411   7.588  69.713  1.00  0.00    -0.078 OA 
BRANCH  20  21
HETATM   21  C   UNL     1      -6.936   6.327  70.246  1.00  0.00    -0.062 C  
HETATM   22  C   UNL     1      -7.568   6.022  71.605  1.00  0.00    -0.100 C  
HETATM   23  N   UNL     1      -9.474   4.800  70.512  1.00  0.00    -0.157 NA 
HETATM   24  C   UNL     1      -9.079   5.834  71.473  1.00  0.00    -0.140 C  
HETATM   25  C   UNL     1      -9.286   3.449  71.028  1.00  0.00    -0.142 C  
HETATM   26  C   UNL     1      -8.837   5.008  69.204  1.00  0.00    -0.092 C  
HETATM   27  C   UNL     1      -7.320   5.215  69.262  1.00  0.00    -0.058 C  
ENDBRANCH  20  21
ENDBRANCH   7  20
ENDBRANCH   3   4
ENDBRANCH   2   3
TORSDOF 4
ENDMDL
MODEL      120
REMARK 921   NORMALIZED FREE ENERGY PREDICTED BY IDOCK:   -2.34 KCAL/MOL
REMARK 922        TOTAL FREE ENERGY PREDICTED BY IDOCK:   -4.19 KCAL/MOL
REMARK 923 INTER-LIGAND FREE ENERGY PREDICTED BY IDOCK:   -3.02 KCAL/MOL
REMARK 924 INTRA-LIGAND FREE ENERGY PREDICTED BY IDOCK:   -1.17 KCAL/MOL
REMARK 927      BINDING AFFINITY PREDICTED BY RF-SCORE:    0.00 PKD
ROOT
HETATM    1  C   UNL     1      -6.395   6.984  74.008  1.00  0.00    -0.070 C  
HETATM    2  C   UNL     1      -5.479   5.952  73.357  1.00  0.00    -0.035 C  
ENDROOT
BRANCH   2   3
HETATM    3  C   UNL     1      -5.923   5.697  71.921  1.00  0.00    -0.030 C  
BRANCH   3   4
HETATM    4  O   UNL     1      -7.287   6.069  71.730  1.00  0.00    -0.089 OA 
HETATM    5  C   UNL     1      -8.202   4.986  71.350  1.00  0.00    -0.113 C  
HETATM    6  C   UNL     1      -8.164   3.907  72.489  1.00  0.00    -0.093 A  
HETATM    7  C   UNL     1      -9.657   5.641  71.193  1.00  0.00    -0.168 C  
HETATM    8  C   UNL     1      -7.848   4.464  69.912  1.00  0.00    -0.053 A  
HETATM    9  C   UNL     1      -9.049   3.926  73.579  1.00  0.00    -0.102 A  
HETATM   10  C   UNL     1      -7.134   1.893  73.482  1.00  0.00    -0.027 A  
HETATM   11  C   UNL     1      -7.741   3.100  69.584  1.00  0.00    -0.044 A  
HETATM   12  O   UNL     1     -10.726   5.057  71.353  1.00  0.00    -0.151 OA 
HETATM   13  C   UNL     1      -7.279   2.678  68.336  1.00  0.00    -0.048 A  
HETATM   14  C   UNL     1      -7.164   2.898  72.518  1.00  0.00    -0.043 A  
HETATM   15  C   UNL     1      -9.010   2.928  74.565  1.00  0.00    -0.091 A  
HETATM   16  C   UNL     1      -8.074   1.894  74.499  1.00  0.00    -0.045 A  
HETATM   17  C   UNL     1      -7.047   3.608  67.332  1.00  0.00    -0.059 A  
HETATM   18  C   UNL     1      -7.648   5.383  68.863  1.00  0.00    -0.079 A  
HETATM   19  C   UNL     1      -7.277   4.957  67.584  1.00  0.00    -0.070 A  
BRANCH   7  20
HETATM   20  O   UNL     1      -9.580   6.939  70.737  1.00  0.00    -0.165 OA 
BRANCH  20  21
HETATM   21  C   UNL     1     -10.729   7.495  70.053  1.00  0.00    -0.240 C  
HETATM   22  C   UNL     1     -10.998   8.935  70.494  1.00  0.00    -0.280 C  
HETATM   23  N   UNL     1      -9.523   9.832  68.664  1.00  0.00    -0.148 NA 
HETATM   24  C   UNL     1      -9.840   9.850  70.096  1.00  0.00    -0.219 C  
HETATM   25  C   UNL     1     -10.481  10.589  67.865  1.00  0.00    -0.210 C  
HETATM   26  C   UNL     1      -9.324   8.461  68.174  1.00  0.00    -0.133 C  
HETATM   27  C   UNL     1     -10.444   7.484  68.547  1.00  0.00    -0.211 C  
ENDBRANCH  20  21
ENDBRANCH   7  20
ENDBRANCH   3   4
ENDBRANCH   2   3
TORSDOF 4
ENDMDL
MODEL      121
REMARK 921   NORMALIZED FREE ENERGY PREDICTED BY IDOCK:   -2.27 KCAL/MOL
REMARK 922        TOTAL FREE ENERGY PREDICTED BY IDOCK:   -4.10 KCAL/MOL
REMARK 923 INTER-LIGAND FREE ENERGY PREDICTED BY IDOCK:   -2.92 KCAL/MOL
REMARK 924 INTRA-LIGAND FREE ENERGY PREDICTED BY IDOCK:   -1.18 KCAL/MOL
REMARK 927      BINDING AFFINITY PREDICTED BY RF-SCORE:    0.00 PKD
ROOT
HETATM    1  C   UNL     1     -10.109  11.219  66.516  1.00  0.00    -0.256 C  
HETATM    2  C   UNL     1     -10.299   9.924  67.298  1.00  0.00    -0.303 C  
ENDROOT
BRANCH   2   3
HETATM    3  C   UNL     1      -9.383   9.914  68.517  1.00  0.00    -0.143 C  
BRANCH   3   4
HETATM    4  O   UNL     1      -8.666   8.685  68.613  1.00  0.00    -0.136 OA 
HETATM    5  C   UNL     1      -7.232   8.750  68.305  1.00  0.00    -0.082 C  
HETATM    6  C   UNL     1      -6.573   9.759  69.310  1.00  0.00    -0.052 A  
HETATM    7  C   UNL     1      -6.653   7.266  68.478  1.00  0.00    -0.045 C  
HETATM    8  C   UNL     1      -7.026   9.078  66.783  1.00  0.00    -0.081 A  
HETATM    9  C   UNL     1      -6.029   9.355  70.540  1.00  0.00    -0.055 A  
HETATM   10  C   UNL     1      -5.950  12.075  69.902  1.00  0.00    -0.149 A  
HETATM   11  C   UNL     1      -6.122  10.049  66.312  1.00  0.00    -0.068 A  
HETATM   12  O   UNL     1      -5.495   6.980  68.773  1.00  0.00    -0.016 OA 
HETATM   13  C   UNL     1      -6.074  10.418  64.967  1.00  0.00    -0.117 A  
HETATM   14  C   UNL     1      -6.575  11.158  69.061  1.00  0.00    -0.075 A  
HETATM   15  C   UNL     1      -5.417  10.278  71.402  1.00  0.00    -0.025 A  
HETATM   16  C   UNL     1      -5.349  11.632  71.069  1.00  0.00    -0.098 A  
HETATM   17  C   UNL     1      -6.827   9.724  64.031  1.00  0.00    -0.120 A  
HETATM   18  C   UNL     1      -7.747   8.363  65.807  1.00  0.00    -0.094 A  
HETATM   19  C   UNL     1      -7.629   8.666  64.448  1.00  0.00    -0.115 A  
BRANCH   7  20
HETATM   20  O   UNL     1      -7.591   6.315  68.141  1.00  0.00    -0.098 OA 
BRANCH  20  21
HETATM   21  C   UNL     1      -7.133   5.094  67.510  1.00  0.00    -0.066 C  
HETATM   22  C   UNL     1      -7.043   3.945  68.516  1.00  0.00    -0.051 C  
HETATM   23  N   UNL     1      -9.415   3.260  68.036  1.00  0.00    -0.189 NA 
HETATM   24  C   UNL     1      -8.425   3.593  69.065  1.00  0.00    -0.073 C  
HETATM   25  C   UNL     1      -9.224   1.924  67.482  1.00  0.00    -0.125 C  
HETATM   26  C   UNL     1      -9.491   4.303  67.004  1.00  0.00    -0.184 C  
HETATM   27  C   UNL     1      -8.137   4.714  66.415  1.00  0.00    -0.103 C  
ENDBRANCH  20  21
ENDBRANCH   7  20
ENDBRANCH   3   4
ENDBRANCH   2   3
TORSDOF 4
ENDMDL
MODEL      122
REMARK 921   NORMALIZED FREE ENERGY PREDICTED BY IDOCK:   -2.20 KCAL/MOL
REMARK 922        TOTAL FREE ENERGY PREDICTED BY IDOCK:   -4.01 KCAL/MOL
REMARK 923 INTER-LIGAND FREE ENERGY PREDICTED BY IDOCK:   -3.23 KCAL/MOL
REMARK 924 INTRA-LIGAND FREE ENERGY PREDICTED BY IDOCK:   -0.78 KCAL/MOL
REMARK 927      BINDING AFFINITY PREDICTED BY RF-SCORE:    0.00 PKD
ROOT
HETATM    1  C   UNL     1      -6.568  12.368  68.025  1.00  0.00    -0.081 C  
HETATM    2  C   UNL     1      -7.464  13.466  67.461  1.00  0.00    -0.170 C  
ENDROOT
BRANCH   2   3
HETATM    3  C   UNL     1      -8.823  13.433  68.152  1.00  0.00    -0.180 C  
BRANCH   3   4
HETATM    4  O   UNL     1      -9.886  13.488  67.202  1.00  0.00    -0.235 OA 
HETATM    5  C   UNL     1     -11.110  14.165  67.646  1.00  0.00    -0.282 C  
HETATM    6  C   UNL     1     -10.732  15.643  68.015  1.00  0.00    -0.287 A  
HETATM    7  C   UNL     1     -12.145  14.098  66.423  1.00  0.00    -0.451 C  
HETATM    8  C   UNL     1     -11.797  13.336  68.789  1.00  0.00    -0.371 A  
HETATM    9  C   UNL     1     -10.794  16.694  67.086  1.00  0.00    -0.126 A  
HETATM   10  C   UNL     1      -9.928  17.283  69.677  1.00  0.00     0.209 A  
HETATM   11  C   UNL     1     -12.278  13.907  69.982  1.00  0.00    -0.408 A  
HETATM   12  O   UNL     1     -13.045  14.905  66.202  1.00  0.00     0.617 OA 
HETATM   13  C   UNL     1     -12.745  13.121  71.036  1.00  0.00    -0.361 A  
HETATM   14  C   UNL     1     -10.220  15.976  69.298  1.00  0.00    -0.249 A  
HETATM   15  C   UNL     1     -10.480  18.011  67.457  1.00  0.00    -0.408 A  
HETATM   16  C   UNL     1     -10.079  18.310  68.760  1.00  0.00    -0.393 A  
HETATM   17  C   UNL     1     -12.879  11.749  70.873  1.00  0.00    -0.243 A  
HETATM   18  C   UNL     1     -11.983  11.948  68.634  1.00  0.00    -0.291 A  
HETATM   19  C   UNL     1     -12.540  11.171  69.653  1.00  0.00    -0.072 A  
BRANCH   7  20
HETATM   20  O   UNL     1     -11.985  12.944  65.688  1.00  0.00    -0.392 OA 
BRANCH  20  21
HETATM   21  C   UNL     1     -11.649  13.066  64.284  1.00  0.00    -0.385 C  
HETATM   22  C   UNL     1     -10.135  13.130  64.076  1.00  0.00     0.105 C  
HETATM   23  N   UNL     1     -10.000  10.628  63.853  1.00  0.00    -0.332 NA 
HETATM   24  C   UNL     1      -9.470  11.825  64.513  1.00  0.00     0.029 C  
HETATM   25  C   UNL     1      -9.526  10.485  62.481  1.00  0.00    -0.254 C  
HETATM   26  C   UNL     1     -11.463  10.554  63.964  1.00  0.00     2.266 C  
HETATM   27  C   UNL     1     -12.197  11.835  63.551  1.00  0.00    -0.489 C  
ENDBRANCH  20  21
ENDBRANCH   7  20
ENDBRANCH   3   4
ENDBRANCH   2   3
TORSDOF 4
ENDMDL
MODEL      123
REMARK 921   NORMALIZED FREE ENERGY PREDICTED BY IDOCK:   -2.12 KCAL/MOL
REMARK 922        TOTAL FREE ENERGY PREDICTED BY IDOCK:   -3.92 KCAL/MOL
REMARK 923 INTER-LIGAND FREE ENERGY PREDICTED BY IDOCK:   -4.35 KCAL/MOL
REMARK 924 INTRA-LIGAND FREE ENERGY PREDICTED BY IDOCK:    0.43 KCAL/MOL
REMARK 927      BINDING AFFINITY PREDICTED BY RF-SCORE:    0.00 PKD
ROOT
HETATM    1  C   UNL     1     -13.218  10.428  71.069  1.00  0.00    -0.361 C  
HETATM    2  C   UNL     1     -12.077   9.522  71.520  1.00  0.00    -0.468 C  
ENDROOT
BRANCH   2   3
HETATM    3  C   UNL     1     -10.848   9.765  70.651  1.00  0.00    -0.329 C  
BRANCH   3   4
HETATM    4  O   UNL     1      -9.756   8.945  71.063  1.00  0.00    -0.206 OA 
HETATM    5  C   UNL     1      -8.752   8.646  70.034  1.00  0.00    -0.141 C  
HETATM    6  C   UNL     1      -8.155  10.010  69.538  1.00  0.00    -0.166 A  
HETATM    7  C   UNL     1      -7.641   7.720  70.725  1.00  0.00    -0.078 C  
HETATM    8  C   UNL     1      -9.382   7.737  68.918  1.00  0.00    -0.146 A  
HETATM    9  C   UNL     1      -7.015  10.591  70.117  1.00  0.00    -0.119 A  
HETATM   10  C   UNL     1      -8.267  11.959  68.025  1.00  0.00    -0.157 A  
HETATM   11  C   UNL     1      -9.225   7.976  67.541  1.00  0.00    -0.153 A  
HETATM   12  O   UNL     1      -6.461   7.648  70.390  1.00  0.00    -0.037 OA 
HETATM   13  C   UNL     1      -9.921   7.237  66.583  1.00  0.00    -0.246 A  
HETATM   14  C   UNL     1      -8.798  10.774  68.527  1.00  0.00    -0.149 A  
HETATM   15  C   UNL     1      -6.488  11.797  69.628  1.00  0.00    -0.113 A  
HETATM   16  C   UNL     1      -7.094  12.463  68.562  1.00  0.00    -0.100 A  
HETATM   17  C   UNL     1     -10.684   6.145  66.970  1.00  0.00    -0.423 A  
HETATM   18  C   UNL     1     -10.128   6.598  69.280  1.00  0.00    -0.187 A  
HETATM   19  C   UNL     1     -10.749   5.799  68.316  1.00  0.00    -0.285 A  
BRANCH   7  20
HETATM   20  O   UNL     1      -8.190   6.907  71.692  1.00  0.00    -0.108 OA 
BRANCH  20  21
HETATM   21  C   UNL     1      -7.624   6.946  73.025  1.00  0.00    -0.088 C  
HETATM   22  C   UNL     1      -8.052   5.731  73.850  1.00  0.00    -0.109 C  
HETATM   23  N   UNL     1      -6.047   4.425  73.076  1.00  0.00    -0.016 NA 
HETATM   24  C   UNL     1      -7.503   4.441  73.242  1.00  0.00    -0.078 C  
HETATM   25  C   UNL     1      -5.339   4.210  74.333  1.00  0.00    -0.004 C  
HETATM   26  C   UNL     1      -5.574   5.611  72.348  1.00  0.00    -0.026 C  
HETATM   27  C   UNL     1      -6.096   6.943  72.897  1.00  0.00    -0.056 C  
ENDBRANCH  20  21
ENDBRANCH   7  20
ENDBRANCH   3   4
ENDBRANCH   2   3
TORSDOF 4
ENDMDL
MODEL      124
REMARK 921   NORMALIZED FREE ENERGY PREDICTED BY IDOCK:   -2.02 KCAL/MOL
REMARK 922        TOTAL FREE ENERGY PREDICTED BY IDOCK:   -3.79 KCAL/MOL
REMARK 923 INTER-LIGAND FREE ENERGY PREDICTED BY IDOCK:   -4.58 KCAL/MOL
REMARK 924 INTRA-LIGAND FREE ENERGY PREDICTED BY IDOCK:    0.79 KCAL/MOL
REMARK 927      BINDING AFFINITY PREDICTED BY RF-SCORE:    0.00 PKD
ROOT
HETATM    1  C   UNL     1     -11.994  16.266  71.493  1.00  0.00    -0.378 C  
HETATM    2  C   UNL     1     -11.004  15.110  71.392  1.00  0.00    -0.119 C  
ENDROOT
BRANCH   2   3
HETATM    3  C   UNL     1     -11.353  14.232  70.195  1.00  0.00    -0.129 C  
BRANCH   3   4
HETATM    4  O   UNL     1     -11.161  14.935  68.968  1.00  0.00    -0.228 OA 
HETATM    5  C   UNL     1     -10.113  14.410  68.084  1.00  0.00    -0.226 C  
HETATM    6  C   UNL     1     -10.489  12.929  67.724  1.00  0.00    -0.225 A  
HETATM    7  C   UNL     1     -10.085  15.353  66.788  1.00  0.00    -0.262 C  
HETATM    8  C   UNL     1      -8.703  14.609  68.746  1.00  0.00    -0.166 A  
HETATM    9  C   UNL     1     -11.253  12.596  66.594  1.00  0.00    -0.346 A  
HETATM   10  C   UNL     1     -10.414  10.521  68.268  1.00  0.00    -0.211 A  
HETATM   11  C   UNL     1      -7.722  13.601  68.804  1.00  0.00    -0.064 A  
HETATM   12  O   UNL     1      -9.725  15.014  65.664  1.00  0.00    -0.339 OA 
HETATM   13  C   UNL     1      -6.542  13.766  69.531  1.00  0.00    -0.081 A  
HETATM   14  C   UNL     1     -10.145  11.850  68.583  1.00  0.00    -0.186 A  
HETATM   15  C   UNL     1     -11.544  11.258  66.283  1.00  0.00     0.250 A  
HETATM   16  C   UNL     1     -11.097  10.220  67.102  1.00  0.00    -0.165 A  
HETATM   17  C   UNL     1      -6.244  14.996  70.100  1.00  0.00    -0.154 A  
HETATM   18  C   UNL     1      -8.357  15.858  69.297  1.00  0.00    -0.238 A  
HETATM   19  C   UNL     1      -7.133  16.055  69.942  1.00  0.00     0.138 A  
BRANCH   7  20
HETATM   20  O   UNL     1     -10.412  16.654  67.103  1.00  0.00    -0.312 OA 
BRANCH  20  21
HETATM   21  C   UNL     1      -9.388  17.496  67.687  1.00  0.00    -0.244 C  
HETATM   22  C   UNL     1      -8.617  18.264  66.612  1.00  0.00    -0.287 C  
HETATM   23  N   UNL     1     -10.228  20.191  66.751  1.00  0.00    -0.454 NA 
HETATM   24  C   UNL     1      -9.536  19.239  65.876  1.00  0.00    -0.013 C  
HETATM   25  C   UNL     1      -9.356  21.264  67.217  1.00  0.00     0.280 C  
HETATM   26  C   UNL     1     -10.930  19.506  67.845  1.00  0.00    -0.015 C  
HETATM   27  C   UNL     1     -10.069  18.503  68.621  1.00  0.00    -0.406 C  
ENDBRANCH  20  21
ENDBRANCH   7  20
ENDBRANCH   3   4
ENDBRANCH   2   3
TORSDOF 4
ENDMDL
MODEL      125
REMARK 921   NORMALIZED FREE ENERGY PREDICTED BY IDOCK:   -1.91 KCAL/MOL
REMARK 922        TOTAL FREE ENERGY PREDICTED BY IDOCK:   -3.66 KCAL/MOL
REMARK 923 INTER-LIGAND FREE ENERGY PREDICTED BY IDOCK:   -3.14 KCAL/MOL
REMARK 924 INTRA-LIGAND FREE ENERGY PREDICTED BY IDOCK:   -0.51 KCAL/MOL
REMARK 927      BINDING AFFINITY PREDICTED BY RF-SCORE:    0.00 PKD
ROOT
HETATM    1  C   UNL     1      -6.341   8.029  71.495  1.00  0.00    -0.040 C  
HETATM    2  C   UNL     1      -5.335   7.165  70.741  1.00  0.00    -0.024 C  
ENDROOT
BRANCH   2   3
HETATM    3  C   UNL     1      -6.050   6.354  69.667  1.00  0.00    -0.029 C  
BRANCH   3   4
HETATM    4  O   UNL     1      -7.209   7.037  69.191  1.00  0.00    -0.084 OA 
HETATM    5  C   UNL     1      -8.256   6.194  68.601  1.00  0.00    -0.108 C  
HETATM    6  C   UNL     1      -8.727   5.177  69.701  1.00  0.00    -0.107 A  
HETATM    7  C   UNL     1      -9.438   7.175  68.145  1.00  0.00    -0.132 C  
HETATM    8  C   UNL     1      -7.738   5.553  67.264  1.00  0.00    -0.100 A  
HETATM    9  C   UNL     1      -9.794   5.448  70.573  1.00  0.00    -0.267 A  
HETATM   10  C   UNL     1      -8.455   3.011  70.854  1.00  0.00    -0.100 A  
HETATM   11  C   UNL     1      -7.897   4.193  66.941  1.00  0.00    -0.097 A  
HETATM   12  O   UNL     1     -10.626   6.872  68.058  1.00  0.00    -0.194 OA 
HETATM   13  C   UNL     1      -7.294   3.629  65.816  1.00  0.00    -0.076 A  
HETATM   14  C   UNL     1      -8.032   3.959  69.927  1.00  0.00    -0.054 A  
HETATM   15  C   UNL     1     -10.211   4.503  71.524  1.00  0.00    -0.195 A  
HETATM   16  C   UNL     1      -9.563   3.273  71.642  1.00  0.00    -0.230 A  
HETATM   17  C   UNL     1      -6.633   4.440  64.904  1.00  0.00    -0.044 A  
HETATM   18  C   UNL     1      -7.099   6.360  66.302  1.00  0.00    -0.068 A  
HETATM   19  C   UNL     1      -6.577   5.813  65.126  1.00  0.00    -0.043 A  
BRANCH   7  20
HETATM   20  O   UNL     1      -8.952   8.399  67.742  1.00  0.00    -0.136 OA 
BRANCH  20  21
HETATM   21  C   UNL     1      -8.563   9.352  68.761  1.00  0.00    -0.127 C  
HETATM   22  C   UNL     1      -7.287  10.099  68.368  1.00  0.00    -0.081 C  
HETATM   23  N   UNL     1      -8.621  11.908  67.240  1.00  0.00    -0.162 NA 
HETATM   24  C   UNL     1      -7.517  10.951  67.120  1.00  0.00    -0.109 C  
HETATM   25  C   UNL     1      -8.274  13.071  68.048  1.00  0.00    -0.161 C  
HETATM   26  C   UNL     1      -9.858  11.250  67.683  1.00  0.00    -0.175 C  
HETATM   27  C   UNL     1      -9.699  10.369  68.927  1.00  0.00    -0.203 C  
ENDBRANCH  20  21
ENDBRANCH   7  20
ENDBRANCH   3   4
ENDBRANCH   2   3
TORSDOF 4
ENDMDL
MODEL      126
REMARK 921   NORMALIZED FREE ENERGY PREDICTED BY IDOCK:   -1.41 KCAL/MOL
REMARK 922        TOTAL FREE ENERGY PREDICTED BY IDOCK:   -3.04 KCAL/MOL
REMARK 923 INTER-LIGAND FREE ENERGY PREDICTED BY IDOCK:   -2.53 KCAL/MOL
REMARK 924 INTRA-LIGAND FREE ENERGY PREDICTED BY IDOCK:   -0.51 KCAL/MOL
REMARK 927      BINDING AFFINITY PREDICTED BY RF-SCORE:    0.00 PKD
ROOT
HETATM    1  C   UNL     1     -10.827   5.104  71.238  1.00  0.00    -0.066 C  
HETATM    2  C   UNL     1      -9.465   5.179  71.922  1.00  0.00    -0.184 C  
ENDROOT
BRANCH   2   3
HETATM    3  C   UNL     1      -8.634   6.295  71.300  1.00  0.00    -0.124 C  
BRANCH   3   4
HETATM    4  O   UNL     1      -7.694   5.776  70.361  1.00  0.00    -0.090 OA 
HETATM    5  C   UNL     1      -7.486   6.577  69.148  1.00  0.00    -0.095 C  
HETATM    6  C   UNL     1      -6.974   7.992  69.593  1.00  0.00    -0.049 A  
HETATM    7  C   UNL     1      -6.403   5.799  68.259  1.00  0.00    -0.044 C  
HETATM    8  C   UNL     1      -8.791   6.573  68.274  1.00  0.00    -0.119 A  
HETATM    9  C   UNL     1      -5.609   8.297  69.719  1.00  0.00    -0.026 A  
HETATM   10  C   UNL     1      -7.461  10.300  70.324  1.00  0.00     0.019 A  
HETATM   11  C   UNL     1      -9.348   7.733  67.704  1.00  0.00    -0.160 A  
HETATM   12  O   UNL     1      -5.633   6.318  67.454  1.00  0.00    -0.008 OA 
HETATM   13  C   UNL     1     -10.586   7.713  67.060  1.00  0.00    -0.406 A  
HETATM   14  C   UNL     1      -7.878   9.018  69.979  1.00  0.00    -0.088 A  
HETATM   15  C   UNL     1      -5.182   9.583  70.088  1.00  0.00    -0.031 A  
HETATM   16  C   UNL     1      -6.108  10.592  70.358  1.00  0.00    -0.132 A  
HETATM   17  C   UNL     1     -11.235   6.506  66.842  1.00  0.00    -0.205 A  
HETATM   18  C   UNL     1      -9.449   5.358  68.001  1.00  0.00    -0.138 A  
HETATM   19  C   UNL     1     -10.641   5.324  67.273  1.00  0.00    -0.200 A  
BRANCH   7  20
HETATM   20  O   UNL     1      -6.509   4.434  68.413  1.00  0.00    -0.036 OA 
BRANCH  20  21
HETATM   21  C   UNL     1      -5.762   3.582  67.511  1.00  0.00    -0.022 C  
HETATM   22  C   UNL     1      -6.179   2.117  67.652  1.00  0.00    -0.024 C  
HETATM   23  N   UNL     1      -7.943   2.387  65.879  1.00  0.00    -0.081 NA 
HETATM   24  C   UNL     1      -7.638   1.924  67.237  1.00  0.00    -0.060 C  
HETATM   25  C   UNL     1      -7.461   1.471  64.851  1.00  0.00    -0.057 C  
HETATM   26  C   UNL     1      -7.497   3.771  65.668  1.00  0.00    -0.077 C  
HETATM   27  C   UNL     1      -6.044   4.039  66.075  1.00  0.00    -0.031 C  
ENDBRANCH  20  21
ENDBRANCH   7  20
ENDBRANCH   3   4
ENDBRANCH   2   3
TORSDOF 4
ENDMDL
MODEL      127
REMARK 921   NORMALIZED FREE ENERGY PREDICTED BY IDOCK:   -1.32 KCAL/MOL
REMARK 922        TOTAL FREE ENERGY PREDICTED BY IDOCK:   -2.93 KCAL/MOL
REMARK 923 INTER-LIGAND FREE ENERGY PREDICTED BY IDOCK:   -2.57 KCAL/MOL
REMARK 924 INTRA-LIGAND FREE ENERGY PREDICTED BY IDOCK:   -0.36 KCAL/MOL
REMARK 927      BINDING AFFINITY PREDICTED BY RF-SCORE:    0.00 PKD
ROOT
HETATM    1  C   UNL     1      -9.491   4.411  63.769  1.00  0.00    -0.072 C  
HETATM    2  C   UNL     1      -8.057   4.917  63.884  1.00  0.00    -0.112 C  
ENDROOT
BRANCH   2   3
HETATM    3  C   UNL     1      -7.411   4.363  65.150  1.00  0.00    -0.073 C  
BRANCH   3   4
HETATM    4  O   UNL     1      -6.724   5.386  65.867  1.00  0.00    -0.053 OA 
HETATM    5  C   UNL     1      -7.059   5.510  67.291  1.00  0.00    -0.074 C  
HETATM    6  C   UNL     1      -6.721   4.142  67.982  1.00  0.00    -0.047 A  
HETATM    7  C   UNL     1      -6.172   6.712  67.873  1.00  0.00    -0.036 C  
HETATM    8  C   UNL     1      -8.542   6.001  67.452  1.00  0.00    -0.102 A  
HETATM    9  C   UNL     1      -5.470   3.877  68.563  1.00  0.00    -0.013 A  
HETATM   10  C   UNL     1      -7.400   1.856  68.626  1.00  0.00    -0.043 A  
HETATM   11  C   UNL     1      -9.462   5.418  68.342  1.00  0.00    -0.153 A  
HETATM   12  O   UNL     1      -5.802   6.828  69.039  1.00  0.00    -0.017 OA 
HETATM   13  C   UNL     1     -10.810   5.782  68.350  1.00  0.00    -0.251 A  
HETATM   14  C   UNL     1      -7.645   3.062  67.975  1.00  0.00    -0.056 A  
HETATM   15  C   UNL     1      -5.210   2.654  69.202  1.00  0.00    -0.012 A  
HETATM   16  C   UNL     1      -6.186   1.658  69.262  1.00  0.00    -0.025 A  
HETATM   17  C   UNL     1     -11.246   6.842  67.567  1.00  0.00    -0.246 A  
HETATM   18  C   UNL     1      -9.002   7.100  66.700  1.00  0.00    -0.164 A  
HETATM   19  C   UNL     1     -10.330   7.530  66.776  1.00  0.00    -0.332 A  
BRANCH   7  20
HETATM   20  O   UNL     1      -5.957   7.687  66.924  1.00  0.00    -0.043 OA 
BRANCH  20  21
HETATM   21  C   UNL     1      -5.515   8.992  67.370  1.00  0.00    -0.041 C  
HETATM   22  C   UNL     1      -5.634  10.033  66.255  1.00  0.00    -0.057 C  
HETATM   23  N   UNL     1      -7.972  10.620  66.971  1.00  0.00    -0.118 NA 
HETATM   24  C   UNL     1      -7.095  10.241  65.859  1.00  0.00    -0.131 C  
HETATM   25  C   UNL     1      -7.813  12.016  67.363  1.00  0.00    -0.162 C  
HETATM   26  C   UNL     1      -7.845   9.689  68.100  1.00  0.00    -0.086 C  
HETATM   27  C   UNL     1      -6.402   9.424  68.544  1.00  0.00    -0.052 C  
ENDBRANCH  20  21
ENDBRANCH   7  20
ENDBRANCH   3   4
ENDBRANCH   2   3
TORSDOF 4
ENDMDL
MODEL      128
REMARK 921   NORMALIZED FREE ENERGY PREDICTED BY IDOCK:   -1.20 KCAL/MOL
REMARK 922        TOTAL FREE ENERGY PREDICTED BY IDOCK:   -2.78 KCAL/MOL
REMARK 923 INTER-LIGAND FREE ENERGY PREDICTED BY IDOCK:   -1.77 KCAL/MOL
REMARK 924 INTRA-LIGAND FREE ENERGY PREDICTED BY IDOCK:   -1.01 KCAL/MOL
REMARK 927      BINDING AFFINITY PREDICTED BY RF-SCORE:    0.00 PKD
ROOT
HETATM    1  C   UNL     1     -11.347  12.342  65.265  1.00  0.00    -0.384 C  
HETATM    2  C   UNL     1     -11.085  10.878  65.604  1.00  0.00     0.068 C  
ENDROOT
BRANCH   2   3
HETATM    3  C   UNL     1      -9.762  10.433  64.992  1.00  0.00    -0.300 C  
BRANCH   3   4
HETATM    4  O   UNL     1      -9.112   9.467  65.816  1.00  0.00    -0.170 OA 
HETATM    5  C   UNL     1      -7.742   9.793  66.232  1.00  0.00    -0.103 C  
HETATM    6  C   UNL     1      -7.795  11.139  67.037  1.00  0.00    -0.142 A  
HETATM    7  C   UNL     1      -7.230   8.573  67.137  1.00  0.00    -0.080 C  
HETATM    8  C   UNL     1      -6.788   9.786  64.985  1.00  0.00    -0.115 A  
HETATM    9  C   UNL     1      -7.954  11.181  68.431  1.00  0.00    -0.137 A  
HETATM   10  C   UNL     1      -7.761  13.609  67.060  1.00  0.00     0.159 A  
HETATM   11  C   UNL     1      -5.850  10.801  64.718  1.00  0.00     0.042 A  
HETATM   12  O   UNL     1      -6.385   8.647  68.026  1.00  0.00    -0.054 OA 
HETATM   13  C   UNL     1      -5.126  10.838  63.525  1.00  0.00    -0.161 A  
HETATM   14  C   UNL     1      -7.772  12.397  66.375  1.00  0.00     0.581 A  
HETATM   15  C   UNL     1      -7.965  12.401  69.125  1.00  0.00     0.399 A  
HETATM   16  C   UNL     1      -7.835  13.613  68.443  1.00  0.00    -0.140 A  
HETATM   17  C   UNL     1      -5.214   9.783  62.628  1.00  0.00    -0.086 A  
HETATM   18  C   UNL     1      -6.826   8.709  64.078  1.00  0.00    -0.082 A  
HETATM   19  C   UNL     1      -6.031   8.697  62.929  1.00  0.00    -0.086 A  
BRANCH   7  20
HETATM   20  O   UNL     1      -7.770   7.375  66.723  1.00  0.00    -0.104 OA 
BRANCH  20  21
HETATM   21  C   UNL     1      -8.782   6.755  67.555  1.00  0.00    -0.119 C  
HETATM   22  C   UNL     1      -9.866   6.085  66.711  1.00  0.00    -0.198 C  
HETATM   23  N   UNL     1      -8.598   3.913  66.699  1.00  0.00    -0.108 NA 
HETATM   24  C   UNL     1      -9.284   4.929  65.896  1.00  0.00    -0.155 C  
HETATM   25  C   UNL     1      -9.522   3.034  67.406  1.00  0.00    -0.111 C  
HETATM   26  C   UNL     1      -7.590   4.515  67.583  1.00  0.00    -0.078 C  
HETATM   27  C   UNL     1      -8.102   5.690  68.423  1.00  0.00    -0.103 C  
ENDBRANCH  20  21
ENDBRANCH   7  20
ENDBRANCH   3   4
ENDBRANCH   2   3
TORSDOF 4
ENDMDL
MODEL      129
REMARK 921   NORMALIZED FREE ENERGY PREDICTED BY IDOCK:   -1.19 KCAL/MOL
REMARK 922        TOTAL FREE ENERGY PREDICTED BY IDOCK:   -2.76 KCAL/MOL
REMARK 923 INTER-LIGAND FREE ENERGY PREDICTED BY IDOCK:   -2.55 KCAL/MOL
REMARK 924 INTRA-LIGAND FREE ENERGY PREDICTED BY IDOCK:   -0.21 KCAL/MOL
REMARK 927      BINDING AFFINITY PREDICTED BY RF-SCORE:    0.00 PKD
ROOT
HETATM    1  C   UNL     1      -9.854  10.953  64.639  1.00  0.00    -0.350 C  
HETATM    2  C   UNL     1      -8.738  10.797  65.667  1.00  0.00    -0.198 C  
ENDROOT
BRANCH   2   3
HETATM    3  C   UNL     1      -7.589   9.994  65.067  1.00  0.00    -0.139 C  
BRANCH   3   4
HETATM    4  O   UNL     1      -6.805   9.377  66.086  1.00  0.00    -0.083 OA 
HETATM    5  C   UNL     1      -7.072   7.954  66.330  1.00  0.00    -0.071 C  
HETATM    6  C   UNL     1      -6.799   7.180  64.993  1.00  0.00    -0.047 A  
HETATM    7  C   UNL     1      -6.083   7.491  67.504  1.00  0.00    -0.048 C  
HETATM    8  C   UNL     1      -8.511   7.775  66.934  1.00  0.00    -0.125 A  
HETATM    9  C   UNL     1      -5.546   6.628  64.681  1.00  0.00    -0.030 A  
HETATM   10  C   UNL     1      -7.603   6.351  62.810  1.00  0.00    -0.079 A  
HETATM   11  C   UNL     1      -9.431   6.812  66.480  1.00  0.00    -0.193 A  
HETATM   12  O   UNL     1      -5.658   6.351  67.674  1.00  0.00    -0.005 OA 
HETATM   13  C   UNL     1     -10.749   6.781  66.937  1.00  0.00    -0.394 A  
HETATM   14  C   UNL     1      -7.793   7.077  63.982  1.00  0.00    -0.109 A  
HETATM   15  C   UNL     1      -5.343   5.914  63.489  1.00  0.00    -0.017 A  
HETATM   16  C   UNL     1      -6.380   5.748  62.570  1.00  0.00    -0.025 A  
HETATM   17  C   UNL     1     -11.145   7.621  67.968  1.00  0.00     0.193 A  
HETATM   18  C   UNL     1      -8.926   8.586  68.009  1.00  0.00    -0.141 A  
HETATM   19  C   UNL     1     -10.218   8.491  68.535  1.00  0.00    -0.225 A  
BRANCH   7  20
HETATM   20  O   UNL     1      -5.841   8.515  68.394  1.00  0.00    -0.040 OA 
BRANCH  20  21
HETATM   21  C   UNL     1      -5.207   8.191  69.656  1.00  0.00    -0.026 C  
HETATM   22  C   UNL     1      -5.193   9.395  70.599  1.00  0.00    -0.032 C  
HETATM   23  N   UNL     1      -7.408   8.726  71.583  1.00  0.00    -0.216 NA 
HETATM   24  C   UNL     1      -6.615   9.803  70.983  1.00  0.00     0.009 C  
HETATM   25  C   UNL     1      -7.040   8.462  72.970  1.00  0.00    -0.072 C  
HETATM   26  C   UNL     1      -7.397   7.517  70.748  1.00  0.00    -0.068 C  
HETATM   27  C   UNL     1      -6.001   7.057  70.315  1.00  0.00    -0.024 C  
ENDBRANCH  20  21
ENDBRANCH   7  20
ENDBRANCH   3   4
ENDBRANCH   2   3
TORSDOF 4
ENDMDL
MODEL      130
REMARK 921   NORMALIZED FREE ENERGY PREDICTED BY IDOCK:   -1.08 KCAL/MOL
REMARK 922        TOTAL FREE ENERGY PREDICTED BY IDOCK:   -2.63 KCAL/MOL
REMARK 923 INTER-LIGAND FREE ENERGY PREDICTED BY IDOCK:   -1.89 KCAL/MOL
REMARK 924 INTRA-LIGAND FREE ENERGY PREDICTED BY IDOCK:   -0.73 KCAL/MOL
REMARK 927      BINDING AFFINITY PREDICTED BY RF-SCORE:    0.00 PKD
ROOT
HETATM    1  C   UNL     1      -8.577   8.643  63.799  1.00  0.00    -0.011 C  
HETATM    2  C   UNL     1      -7.812   8.531  65.114  1.00  0.00    -0.116 C  
ENDROOT
BRANCH   2   3
HETATM    3  C   UNL     1      -6.654   7.552  64.958  1.00  0.00    -0.044 C  
BRANCH   3   4
HETATM    4  O   UNL     1      -6.321   6.945  66.206  1.00  0.00    -0.046 OA 
HETATM    5  C   UNL     1      -6.975   5.663  66.493  1.00  0.00    -0.064 C  
HETATM    6  C   UNL     1      -6.573   4.656  65.358  1.00  0.00    -0.044 A  
HETATM    7  C   UNL     1      -6.450   5.187  67.931  1.00  0.00    -0.048 C  
HETATM    8  C   UNL     1      -8.518   5.881  66.689  1.00  0.00    -0.111 A  
HETATM    9  C   UNL     1      -5.453   3.815  65.456  1.00  0.00    -0.010 A  
HETATM   10  C   UNL     1      -6.985   3.694  63.122  1.00  0.00    -0.043 A  
HETATM   11  C   UNL     1      -9.500   5.074  66.086  1.00  0.00    -0.166 A  
HETATM   12  O   UNL     1      -6.370   4.022  68.313  1.00  0.00    -0.035 OA 
HETATM   13  C   UNL     1     -10.858   5.389  66.162  1.00  0.00    -0.095 A  
HETATM   14  C   UNL     1      -7.279   4.611  64.126  1.00  0.00    -0.051 A  
HETATM   15  C   UNL     1      -5.139   2.902  64.437  1.00  0.00    -0.008 A  
HETATM   16  C   UNL     1      -5.924   2.819  63.285  1.00  0.00    -0.010 A  
HETATM   17  C   UNL     1     -11.283   6.438  66.964  1.00  0.00    -0.274 A  
HETATM   18  C   UNL     1      -8.979   6.914  67.530  1.00  0.00    -0.116 A  
HETATM   19  C   UNL     1     -10.344   7.171  67.684  1.00  0.00    -0.276 A  
BRANCH   7  20
HETATM   20  O   UNL     1      -6.198   6.260  68.758  1.00  0.00    -0.033 OA 
BRANCH  20  21
HETATM   21  C   UNL     1      -6.094   6.018  70.182  1.00  0.00    -0.026 C  
HETATM   22  C   UNL     1      -5.154   7.023  70.851  1.00  0.00    -0.023 C  
HETATM   23  N   UNL     1      -7.062   8.600  71.297  1.00  0.00    -0.078 NA 
HETATM   24  C   UNL     1      -5.712   8.442  70.747  1.00  0.00    -0.032 C  
HETATM   25  C   UNL     1      -7.076   8.633  72.755  1.00  0.00     0.058 C  
HETATM   26  C   UNL     1      -7.991   7.610  70.736  1.00  0.00    -0.102 C  
HETATM   27  C   UNL     1      -7.490   6.163  70.798  1.00  0.00    -0.091 C  
ENDBRANCH  20  21
ENDBRANCH   7  20
ENDBRANCH   3   4
ENDBRANCH   2   3
TORSDOF 4
ENDMDL
MODEL      131
REMARK 921   NORMALIZED FREE ENERGY PREDICTED BY IDOCK:   -1.07 KCAL/MOL
REMARK 922        TOTAL FREE ENERGY PREDICTED BY IDOCK:   -2.62 KCAL/MOL
REMARK 923 INTER-LIGAND FREE ENERGY PREDICTED BY IDOCK:   -2.22 KCAL/MOL
REMARK 924 INTRA-LIGAND FREE ENERGY PREDICTED BY IDOCK:   -0.40 KCAL/MOL
REMARK 927      BINDING AFFINITY PREDICTED BY RF-SCORE:    0.00 PKD
ROOT
HETATM    1  C   UNL     1     -12.055   7.226  70.414  1.00  0.00    -0.067 C  
HETATM    2  C   UNL     1     -10.775   7.809  69.824  1.00  0.00    -0.236 C  
ENDROOT
BRANCH   2   3
HETATM    3  C   UNL     1     -10.243   6.890  68.730  1.00  0.00    -0.174 C  
BRANCH   3   4
HETATM    4  O   UNL     1      -9.470   5.826  69.282  1.00  0.00    -0.125 OA 
HETATM    5  C   UNL     1      -8.253   5.465  68.544  1.00  0.00    -0.094 C  
HETATM    6  C   UNL     1      -7.333   6.735  68.489  1.00  0.00    -0.087 A  
HETATM    7  C   UNL     1      -7.565   4.260  69.347  1.00  0.00    -0.054 C  
HETATM    8  C   UNL     1      -8.634   4.844  67.153  1.00  0.00    -0.104 A  
HETATM    9  C   UNL     1      -6.356   7.004  69.461  1.00  0.00    -0.035 A  
HETATM   10  C   UNL     1      -6.674   8.840  67.377  1.00  0.00    -0.066 A  
HETATM   11  C   UNL     1      -8.022   5.215  65.942  1.00  0.00    -0.108 A  
HETATM   12  O   UNL     1      -6.364   3.998  69.353  1.00  0.00    -0.027 OA 
HETATM   13  C   UNL     1      -8.489   4.753  64.710  1.00  0.00    -0.141 A  
HETATM   14  C   UNL     1      -7.507   7.730  67.489  1.00  0.00    -0.097 A  
HETATM   15  C   UNL     1      -5.527   8.133  69.364  1.00  0.00    -0.030 A  
HETATM   16  C   UNL     1      -5.665   9.033  68.306  1.00  0.00    -0.038 A  
HETATM   17  C   UNL     1      -9.490   3.793  64.664  1.00  0.00    -0.165 A  
HETATM   18  C   UNL     1      -9.619   3.838  67.080  1.00  0.00    -0.218 A  
HETATM   19  C   UNL     1     -10.022   3.303  65.854  1.00  0.00     0.314 A  
BRANCH   7  20
HETATM   20  O   UNL     1      -8.504   3.458  69.957  1.00  0.00    -0.054 OA 
BRANCH  20  21
HETATM   21  C   UNL     1      -9.074   3.903  71.213  1.00  0.00    -0.115 C  
HETATM   22  C   UNL     1     -10.034   2.861  71.790  1.00  0.00    -0.187 C  
HETATM   23  N   UNL     1      -8.168   1.762  73.069  1.00  0.00    -0.052 NA 
HETATM   24  C   UNL     1      -9.291   1.574  72.145  1.00  0.00    -0.079 C  
HETATM   25  C   UNL     1      -8.600   1.969  74.447  1.00  0.00    -0.058 C  
HETATM   26  C   UNL     1      -7.248   2.805  72.594  1.00  0.00    -0.039 C  
HETATM   27  C   UNL     1      -7.929   4.124  72.209  1.00  0.00    -0.086 C  
ENDBRANCH  20  21
ENDBRANCH   7  20
ENDBRANCH   3   4
ENDBRANCH   2   3
TORSDOF 4
ENDMDL
MODEL      132
REMARK 921   NORMALIZED FREE ENERGY PREDICTED BY IDOCK:   -0.95 KCAL/MOL
REMARK 922        TOTAL FREE ENERGY PREDICTED BY IDOCK:   -2.47 KCAL/MOL
REMARK 923 INTER-LIGAND FREE ENERGY PREDICTED BY IDOCK:   -3.38 KCAL/MOL
REMARK 924 INTRA-LIGAND FREE ENERGY PREDICTED BY IDOCK:    0.91 KCAL/MOL
REMARK 927      BINDING AFFINITY PREDICTED BY RF-SCORE:    0.00 PKD
ROOT
HETATM    1  C   UNL     1     -12.447  14.211  69.009  1.00  0.00     0.044 C  
HETATM    2  C   UNL     1     -10.969  13.831  69.036  1.00  0.00    -0.277 C  
ENDROOT
BRANCH   2   3
HETATM    3  C   UNL     1     -10.277  14.354  67.782  1.00  0.00    -0.230 C  
BRANCH   3   4
HETATM    4  O   UNL     1      -9.262  13.454  67.341  1.00  0.00    -0.196 OA 
HETATM    5  C   UNL     1      -9.726  12.151  66.849  1.00  0.00    -0.206 C  
HETATM    6  C   UNL     1     -10.683  12.413  65.634  1.00  0.00    -0.299 A  
HETATM    7  C   UNL     1      -8.420  11.327  66.419  1.00  0.00    -0.169 C  
HETATM    8  C   UNL     1     -10.343  11.322  68.032  1.00  0.00    -0.204 A  
HETATM    9  C   UNL     1     -10.225  12.462  64.307  1.00  0.00    -0.358 A  
HETATM   10  C   UNL     1     -12.949  12.884  64.770  1.00  0.00    -0.224 A  
HETATM   11  C   UNL     1     -11.569  10.637  67.944  1.00  0.00    -0.132 A  
HETATM   12  O   UNL     1      -8.381  10.446  65.564  1.00  0.00    -0.157 OA 
HETATM   13  C   UNL     1     -12.157  10.037  69.058  1.00  0.00     0.576 A  
HETATM   14  C   UNL     1     -12.061  12.703  65.827  1.00  0.00    -0.484 A  
HETATM   15  C   UNL     1     -11.113  12.666  63.239  1.00  0.00    -0.198 A  
HETATM   16  C   UNL     1     -12.479  12.844  63.469  1.00  0.00    -0.430 A  
HETATM   17  C   UNL     1     -11.467   9.980  70.260  1.00  0.00    -0.372 A  
HETATM   18  C   UNL     1      -9.646  11.212  69.251  1.00  0.00     0.066 A  
HETATM   19  C   UNL     1     -10.190  10.529  70.341  1.00  0.00     0.349 A  
BRANCH   7  20
HETATM   20  O   UNL     1      -7.339  11.643  67.211  1.00  0.00    -0.119 OA 
BRANCH  20  21
HETATM   21  C   UNL     1      -6.173  10.785  67.154  1.00  0.00    -0.065 C  
HETATM   22  C   UNL     1      -5.237  11.035  68.338  1.00  0.00    -0.039 C  
HETATM   23  N   UNL     1      -6.411   9.284  69.710  1.00  0.00    -0.038 NA 
HETATM   24  C   UNL     1      -5.917  10.663  69.656  1.00  0.00    -0.054 C  
HETATM   25  C   UNL     1      -5.344   8.310  69.912  1.00  0.00    -0.023 C  
HETATM   26  C   UNL     1      -7.262   8.970  68.554  1.00  0.00    -0.073 C  
HETATM   27  C   UNL     1      -6.646   9.328  67.197  1.00  0.00    -0.068 C  
ENDBRANCH  20  21
ENDBRANCH   7  20
ENDBRANCH   3   4
ENDBRANCH   2   3
TORSDOF 4
ENDMDL
MODEL      133
REMARK 921   NORMALIZED FREE ENERGY PREDICTED BY IDOCK:   -0.74 KCAL/MOL
REMARK 922        TOTAL FREE ENERGY PREDICTED BY IDOCK:   -2.21 KCAL/MOL
REMARK 923 INTER-LIGAND FREE ENERGY PREDICTED BY IDOCK:   -0.99 KCAL/MOL
REMARK 924 INTRA-LIGAND FREE ENERGY PREDICTED BY IDOCK:   -1.22 KCAL/MOL
REMARK 927      BINDING AFFINITY PREDICTED BY RF-SCORE:    0.00 PKD
ROOT
HETATM    1  C   UNL     1      -9.514   5.587  70.162  1.00  0.00    -0.210 C  
HETATM    2  C   UNL     1      -8.010   5.674  70.401  1.00  0.00    -0.104 C  
ENDROOT
BRANCH   2   3
HETATM    3  C   UNL     1      -7.535   7.108  70.202  1.00  0.00    -0.089 C  
BRANCH   3   4
HETATM    4  O   UNL     1      -8.610   7.956  69.799  1.00  0.00    -0.130 OA 
HETATM    5  C   UNL     1      -8.436   8.652  68.518  1.00  0.00    -0.131 C  
HETATM    6  C   UNL     1      -8.252   7.563  67.403  1.00  0.00    -0.116 A  
HETATM    7  C   UNL     1      -9.755   9.532  68.286  1.00  0.00    -0.147 C  
HETATM    8  C   UNL     1      -7.275   9.704  68.634  1.00  0.00    -0.073 A  
HETATM    9  C   UNL     1      -9.332   7.035  66.677  1.00  0.00    -0.203 A  
HETATM   10  C   UNL     1      -6.773   6.061  66.116  1.00  0.00    -0.060 A  
HETATM   11  C   UNL     1      -6.256   9.846  67.675  1.00  0.00    -0.059 A  
HETATM   12  O   UNL     1     -10.210   9.865  67.195  1.00  0.00    -0.202 OA 
HETATM   13  C   UNL     1      -5.161  10.686  67.885  1.00  0.00    -0.036 A  
HETATM   14  C   UNL     1      -6.981   6.988  67.134  1.00  0.00    -0.078 A  
HETATM   15  C   UNL     1      -9.131   6.085  65.663  1.00  0.00    -0.033 A  
HETATM   16  C   UNL     1      -7.849   5.623  65.361  1.00  0.00    -0.102 A  
HETATM   17  C   UNL     1      -5.128  11.518  68.995  1.00  0.00    -0.043 A  
HETATM   18  C   UNL     1      -7.238  10.589  69.730  1.00  0.00    -0.152 A  
HETATM   19  C   UNL     1      -6.191  11.500  69.893  1.00  0.00    -0.147 A  
BRANCH   7  20
HETATM   20  O   UNL     1     -10.277   9.984  69.478  1.00  0.00    -0.205 OA 
BRANCH  20  21
HETATM   21  C   UNL     1     -11.699  10.253  69.546  1.00  0.00    -0.122 C  
HETATM   22  C   UNL     1     -12.516   8.961  69.478  1.00  0.00     2.134 C  
HETATM   23  N   UNL     1     -12.477   8.736  71.983  1.00  0.00    -0.359 NA 
HETATM   24  C   UNL     1     -12.239   8.078  70.695  1.00  0.00     0.093 C  
HETATM   25  C   UNL     1     -13.896   8.846  72.306  1.00  0.00    -0.474 C  
HETATM   26  C   UNL     1     -11.768  10.020  72.072  1.00  0.00     0.468 C  
HETATM   27  C   UNL     1     -11.993  10.954  70.878  1.00  0.00    -0.416 C  
ENDBRANCH  20  21
ENDBRANCH   7  20
ENDBRANCH   3   4
ENDBRANCH   2   3
TORSDOF 4
ENDMDL
MODEL      134
REMARK 921   NORMALIZED FREE ENERGY PREDICTED BY IDOCK:   -0.65 KCAL/MOL
REMARK 922        TOTAL FREE ENERGY PREDICTED BY IDOCK:   -2.10 KCAL/MOL
REMARK 923 INTER-LIGAND FREE ENERGY PREDICTED BY IDOCK:   -3.34 KCAL/MOL
REMARK 924 INTRA-LIGAND FREE ENERGY PREDICTED BY IDOCK:    1.24 KCAL/MOL
REMARK 927      BINDING AFFINITY PREDICTED BY RF-SCORE:    0.00 PKD
ROOT
HETATM    1  C   UNL     1     -10.134  10.111  65.863  1.00  0.00    -0.325 C  
HETATM    2  C   UNL     1     -10.480   9.099  66.949  1.00  0.00    -0.287 C  
ENDROOT
BRANCH   2   3
HETATM    3  C   UNL     1      -9.525   7.913  66.877  1.00  0.00    -0.191 C  
BRANCH   3   4
HETATM    4  O   UNL     1      -8.433   8.075  67.781  1.00  0.00    -0.126 OA 
HETATM    5  C   UNL     1      -8.503   7.294  69.021  1.00  0.00    -0.129 C  
HETATM    6  C   UNL     1      -8.565   5.776  68.627  1.00  0.00    -0.109 A  
HETATM    7  C   UNL     1      -7.183   7.641  69.863  1.00  0.00    -0.072 C  
HETATM    8  C   UNL     1      -9.687   7.810  69.914  1.00  0.00    -0.176 A  
HETATM    9  C   UNL     1      -7.415   4.981  68.493  1.00  0.00    -0.074 A  
HETATM   10  C   UNL     1      -9.895   3.793  67.996  1.00  0.00    -0.018 A  
HETATM   11  C   UNL     1     -10.618   6.960  70.539  1.00  0.00    -0.247 A  
HETATM   12  O   UNL     1      -6.637   6.899  70.675  1.00  0.00    -0.050 OA 
HETATM   13  C   UNL     1     -11.742   7.460  71.199  1.00  0.00    -0.322 A  
HETATM   14  C   UNL     1      -9.797   5.149  68.296  1.00  0.00    -0.212 A  
HETATM   15  C   UNL     1      -7.507   3.618  68.170  1.00  0.00    -0.061 A  
HETATM   16  C   UNL     1      -8.749   3.017  67.954  1.00  0.00    -0.137 A  
HETATM   17  C   UNL     1     -11.889   8.828  71.378  1.00  0.00    -0.369 A  
HETATM   18  C   UNL     1      -9.838   9.192  70.147  1.00  0.00    -0.229 A  
HETATM   19  C   UNL     1     -10.912   9.690  70.890  1.00  0.00    -0.412 A  
BRANCH   7  20
HETATM   20  O   UNL     1      -6.779   8.941  69.654  1.00  0.00    -0.044 OA 
BRANCH  20  21
HETATM   21  C   UNL     1      -7.218   9.955  70.592  1.00  0.00    -0.017 C  
HETATM   22  C   UNL     1      -6.034  10.595  71.318  1.00  0.00     0.232 C  
HETATM   23  N   UNL     1      -5.833  12.371  69.548  1.00  0.00    -0.092 NA 
HETATM   24  C   UNL     1      -5.137  11.349  70.336  1.00  0.00    -0.089 C  
HETATM   25  C   UNL     1      -6.116  13.579  70.317  1.00  0.00    -0.110 C  
HETATM   26  C   UNL     1      -7.023  11.822  68.884  1.00  0.00    -0.109 C  
HETATM   27  C   UNL     1      -7.964  11.042  69.809  1.00  0.00     0.430 C  
ENDBRANCH  20  21
ENDBRANCH   7  20
ENDBRANCH   3   4
ENDBRANCH   2   3
TORSDOF 4
ENDMDL
MODEL      135
REMARK 921   NORMALIZED FREE ENERGY PREDICTED BY IDOCK:    0.37 KCAL/MOL
REMARK 922        TOTAL FREE ENERGY PREDICTED BY IDOCK:   -0.84 KCAL/MOL
REMARK 923 INTER-LIGAND FREE ENERGY PREDICTED BY IDOCK:   -4.15 KCAL/MOL
REMARK 924 INTRA-LIGAND FREE ENERGY PREDICTED BY IDOCK:    3.31 KCAL/MOL
REMARK 927      BINDING AFFINITY PREDICTED BY RF-SCORE:    0.00 PKD
ROOT
HETATM    1  C   UNL     1     -11.701  14.208  64.645  1.00  0.00    -0.427 C  
HETATM    2  C   UNL     1     -12.241  12.842  65.054  1.00  0.00    -0.527 C  
ENDROOT
BRANCH   2   3
HETATM    3  C   UNL     1     -11.496  12.336  66.284  1.00  0.00    -0.380 C  
BRANCH   3   4
HETATM    4  O   UNL     1     -11.849  13.086  67.445  1.00  0.00    -0.358 OA 
HETATM    5  C   UNL     1     -10.826  13.164  68.496  1.00  0.00    -0.262 C  
HETATM    6  C   UNL     1      -9.551  13.834  67.873  1.00  0.00    -0.222 A  
HETATM    7  C   UNL     1     -11.448  14.046  69.682  1.00  0.00    -0.258 C  
HETATM    8  C   UNL     1     -10.604  11.746  69.134  1.00  0.00    -0.109 A  
HETATM    9  C   UNL     1      -9.329  15.220  67.911  1.00  0.00    -0.189 A  
HETATM   10  C   UNL     1      -7.422  13.621  66.639  1.00  0.00     1.173 A  
HETATM   11  C   UNL     1      -9.333  11.191  69.370  1.00  0.00     0.264 A  
HETATM   12  O   UNL     1     -10.806  14.721  70.483  1.00  0.00    -0.104 OA 
HETATM   13  C   UNL     1      -9.176   9.872  69.798  1.00  0.00    -0.252 A  
HETATM   14  C   UNL     1      -8.592  13.070  67.155  1.00  0.00    -0.195 A  
HETATM   15  C   UNL     1      -8.162  15.784  67.373  1.00  0.00    -0.196 A  
HETATM   16  C   UNL     1      -7.194  14.981  66.766  1.00  0.00     0.656 A  
HETATM   17  C   UNL     1     -10.288   9.116  70.139  1.00  0.00    -0.244 A  
HETATM   18  C   UNL     1     -11.714  10.973  69.528  1.00  0.00    -0.400 A  
HETATM   19  C   UNL     1     -11.555   9.685  70.047  1.00  0.00    -0.137 A  
BRANCH   7  20
HETATM   20  O   UNL     1     -12.811  13.871  69.781  1.00  0.00    -0.062 OA 
BRANCH  20  21
HETATM   21  C   UNL     1     -13.595  14.925  70.391  1.00  0.00     0.272 C  
HETATM   22  C   UNL     1     -14.398  14.405  71.584  1.00  0.00    -0.516 C  
HETATM   23  N   UNL     1     -12.515  14.942  73.162  1.00  0.00    -0.407 NA 
HETATM   24  C   UNL     1     -13.468  13.929  72.700  1.00  0.00    -0.546 C  
HETATM   25  C   UNL     1     -13.134  15.948  74.019  1.00  0.00    -0.171 C  
HETATM   26  C   UNL     1     -11.764  15.526  72.043  1.00  0.00    -0.455 C  
HETATM   27  C   UNL     1     -12.635  16.016  70.881  1.00  0.00    -0.095 C  
ENDBRANCH  20  21
ENDBRANCH   7  20
ENDBRANCH   3   4
ENDBRANCH   2   3
TORSDOF 4
ENDMDL
MODEL      136
REMARK 921   NORMALIZED FREE ENERGY PREDICTED BY IDOCK:    0.45 KCAL/MOL
REMARK 922        TOTAL FREE ENERGY PREDICTED BY IDOCK:   -0.75 KCAL/MOL
REMARK 923 INTER-LIGAND FREE ENERGY PREDICTED BY IDOCK:   -4.43 KCAL/MOL
REMARK 924 INTRA-LIGAND FREE ENERGY PREDICTED BY IDOCK:    3.68 KCAL/MOL
REMARK 927      BINDING AFFINITY PREDICTED BY RF-SCORE:    0.00 PKD
ROOT
HETATM    1  C   UNL     1     -11.977  13.590  67.970  1.00  0.00    -0.372 C  
HETATM    2  C   UNL     1     -11.822  14.715  66.952  1.00  0.00    -0.345 C  
ENDROOT
BRANCH   2   3
HETATM    3  C   UNL     1     -10.887  14.274  65.831  1.00  0.00    -0.300 C  
BRANCH   3   4
HETATM    4  O   UNL     1      -9.613  14.904  65.945  1.00  0.00    -0.314 OA 
HETATM    5  C   UNL     1      -8.849  14.597  67.160  1.00  0.00    -0.221 C  
HETATM    6  C   UNL     1      -8.612  13.046  67.196  1.00  0.00    -0.195 A  
HETATM    7  C   UNL     1      -7.473  15.412  67.061  1.00  0.00    -0.131 C  
HETATM    8  C   UNL     1      -9.575  15.200  68.416  1.00  0.00    -0.212 A  
HETATM    9  C   UNL     1      -7.475  12.441  66.637  1.00  0.00     0.324 A  
HETATM   10  C   UNL     1      -9.390  10.787  67.822  1.00  0.00    -0.158 A  
HETATM   11  C   UNL     1      -9.791  14.484  69.608  1.00  0.00     0.257 A  
HETATM   12  O   UNL     1      -6.411  15.089  67.588  1.00  0.00    -0.159 OA 
HETATM   13  C   UNL     1     -10.569  15.001  70.644  1.00  0.00     0.016 A  
HETATM   14  C   UNL     1      -9.591  12.161  67.724  1.00  0.00    -0.195 A  
HETATM   15  C   UNL     1      -7.277  11.054  66.715  1.00  0.00    -0.139 A  
HETATM   16  C   UNL     1      -8.218  10.231  67.336  1.00  0.00    -0.114 A  
HETATM   17  C   UNL     1     -11.034  16.306  70.578  1.00  0.00    -0.233 A  
HETATM   18  C   UNL     1     -10.022  16.536  68.392  1.00  0.00    -0.250 A  
HETATM   19  C   UNL     1     -10.720  17.088  69.470  1.00  0.00    -0.124 A  
BRANCH   7  20
HETATM   20  O   UNL     1      -7.639  16.606  66.396  1.00  0.00    -0.278 OA 
BRANCH  20  21
HETATM   21  C   UNL     1      -7.636  17.830  67.172  1.00  0.00    -0.203 C  
HETATM   22  C   UNL     1      -6.275  18.071  67.829  1.00  0.00    -0.176 C  
HETATM   23  N   UNL     1      -5.479  19.379  65.833  1.00  0.00    -0.154 NA 
HETATM   24  C   UNL     1      -5.193  18.289  66.772  1.00  0.00    -0.136 C  
HETATM   25  C   UNL     1      -5.263  20.698  66.419  1.00  0.00    -0.165 C  
HETATM   26  C   UNL     1      -6.808  19.232  65.225  1.00  0.00    -0.149 C  
HETATM   27  C   UNL     1      -7.943  18.998  66.228  1.00  0.00    -0.302 C  
ENDBRANCH  20  21
ENDBRANCH   7  20
ENDBRANCH   3   4
ENDBRANCH   2   3
TORSDOF 4
ENDMDL
MODEL      137
REMARK 921   NORMALIZED FREE ENERGY PREDICTED BY IDOCK:    1.10 KCAL/MOL
REMARK 922        TOTAL FREE ENERGY PREDICTED BY IDOCK:    0.05 KCAL/MOL
REMARK 923 INTER-LIGAND FREE ENERGY PREDICTED BY IDOCK:   -2.06 KCAL/MOL
REMARK 924 INTRA-LIGAND FREE ENERGY PREDICTED BY IDOCK:    2.11 KCAL/MOL
REMARK 927      BINDING AFFINITY PREDICTED BY RF-SCORE:    0.00 PKD
ROOT
HETATM    1  C   UNL     1      -7.812  17.275  67.361  1.00  0.00    -0.198 C  
HETATM    2  C   UNL     1      -9.010  17.215  66.419  1.00  0.00    -0.291 C  
ENDROOT
BRANCH   2   3
HETATM    3  C   UNL     1     -10.061  16.263  66.977  1.00  0.00    -0.270 C  
BRANCH   3   4
HETATM    4  O   UNL     1      -9.493  14.991  67.286  1.00  0.00    -0.202 OA 
HETATM    5  C   UNL     1     -10.447  13.909  67.557  1.00  0.00    -0.248 C  
HETATM    6  C   UNL     1     -11.338  13.727  66.278  1.00  0.00    -0.329 A  
HETATM    7  C   UNL     1      -9.581  12.598  67.877  1.00  0.00    -0.211 C  
HETATM    8  C   UNL     1     -11.226  14.201  68.889  1.00  0.00    -0.294 A  
HETATM    9  C   UNL     1     -11.008  12.832  65.247  1.00  0.00    -0.314 A  
HETATM   10  C   UNL     1     -13.332  14.359  64.964  1.00  0.00     0.693 A  
HETATM   11  C   UNL     1     -12.621  14.073  69.018  1.00  0.00     0.315 A  
HETATM   12  O   UNL     1      -9.944  11.439  67.691  1.00  0.00    -0.176 OA 
HETATM   13  C   UNL     1     -13.294  14.485  70.169  1.00  0.00     0.431 A  
HETATM   14  C   UNL     1     -12.488  14.532  66.058  1.00  0.00    -0.187 A  
HETATM   15  C   UNL     1     -11.844  12.669  64.131  1.00  0.00    -0.483 A  
HETATM   16  C   UNL     1     -13.021  13.408  64.006  1.00  0.00     0.404 A  
HETATM   17  C   UNL     1     -12.575  14.902  71.281  1.00  0.00    -0.402 A  
HETATM   18  C   UNL     1     -10.518  14.588  70.044  1.00  0.00     0.216 A  
HETATM   19  C   UNL     1     -11.184  14.909  71.231  1.00  0.00    -0.183 A  
BRANCH   7  20
HETATM   20  O   UNL     1      -8.397  12.915  68.505  1.00  0.00    -0.137 OA 
BRANCH  20  21
HETATM   21  C   UNL     1      -7.203  12.187  68.126  1.00  0.00    -0.096 C  
HETATM   22  C   UNL     1      -6.356  11.830  69.348  1.00  0.00    -0.114 C  
HETATM   23  N   UNL     1      -7.561   9.639  69.616  1.00  0.00    -0.099 NA 
HETATM   24  C   UNL     1      -7.108  10.871  70.270  1.00  0.00     0.372 C  
HETATM   25  C   UNL     1      -6.478   8.685  69.401  1.00  0.00    -0.045 C  
HETATM   26  C   UNL     1      -8.324   9.926  68.394  1.00  0.00    -0.107 C  
HETATM   27  C   UNL     1      -7.632  10.892  67.426  1.00  0.00    -0.100 C  
ENDBRANCH  20  21
ENDBRANCH   7  20
ENDBRANCH   3   4
ENDBRANCH   2   3
TORSDOF 4
ENDMDL
MODEL      138
REMARK 921   NORMALIZED FREE ENERGY PREDICTED BY IDOCK:    1.46 KCAL/MOL
REMARK 922        TOTAL FREE ENERGY PREDICTED BY IDOCK:    0.49 KCAL/MOL
REMARK 923 INTER-LIGAND FREE ENERGY PREDICTED BY IDOCK:   -0.79 KCAL/MOL
REMARK 924 INTRA-LIGAND FREE ENERGY PREDICTED BY IDOCK:    1.28 KCAL/MOL
REMARK 927      BINDING AFFINITY PREDICTED BY RF-SCORE:    0.00 PKD
ROOT
HETATM    1  C   UNL     1      -7.299   9.676  73.013  1.00  0.00     2.090 C  
HETATM    2  C   UNL     1      -7.976   8.632  72.131  1.00  0.00    -0.098 C  
ENDROOT
BRANCH   2   3
HETATM    3  C   UNL     1      -7.045   8.234  70.992  1.00  0.00    -0.056 C  
BRANCH   3   4
HETATM    4  O   UNL     1      -6.782   6.831  71.008  1.00  0.00    -0.052 OA 
HETATM    5  C   UNL     1      -7.614   6.011  70.119  1.00  0.00    -0.095 C  
HETATM    6  C   UNL     1      -7.387   6.515  68.651  1.00  0.00    -0.087 A  
HETATM    7  C   UNL     1      -7.140   4.492  70.312  1.00  0.00    -0.048 C  
HETATM    8  C   UNL     1      -9.104   6.024  70.616  1.00  0.00    -0.157 A  
HETATM    9  C   UNL     1      -6.403   5.973  67.809  1.00  0.00    -0.037 A  
HETATM   10  C   UNL     1      -7.978   8.055  66.812  1.00  0.00    -0.103 A  
HETATM   11  C   UNL     1     -10.206   6.229  69.766  1.00  0.00    -0.234 A  
HETATM   12  O   UNL     1      -7.226   3.603  69.468  1.00  0.00    -0.045 OA 
HETATM   13  C   UNL     1     -11.500   6.384  70.264  1.00  0.00    -0.468 A  
HETATM   14  C   UNL     1      -8.114   7.618  68.127  1.00  0.00    -0.124 A  
HETATM   15  C   UNL     1      -6.246   6.425  66.489  1.00  0.00    -0.037 A  
HETATM   16  C   UNL     1      -7.055   7.443  65.981  1.00  0.00    -0.066 A  
HETATM   17  C   UNL     1     -11.751   6.194  71.616  1.00  0.00    -0.290 A  
HETATM   18  C   UNL     1      -9.392   5.794  71.976  1.00  0.00    -0.163 A  
HETATM   19  C   UNL     1     -10.700   5.854  72.463  1.00  0.00    -0.274 A  
BRANCH   7  20
HETATM   20  O   UNL     1      -6.717   4.255  71.601  1.00  0.00    -0.028 OA 
BRANCH  20  21
HETATM   21  C   UNL     1      -6.741   2.891  72.092  1.00  0.00    -0.015 C  
HETATM   22  C   UNL     1      -6.909   2.848  73.611  1.00  0.00    -0.034 C  
HETATM   23  N   UNL     1      -9.413   2.775  73.393  1.00  0.00    -0.087 NA 
HETATM   24  C   UNL     1      -8.262   3.425  74.026  1.00  0.00    -0.074 C  
HETATM   25  C   UNL     1      -9.717   1.473  73.976  1.00  0.00    -0.068 C  
HETATM   26  C   UNL     1      -9.269   2.728  71.931  1.00  0.00    -0.099 C  
HETATM   27  C   UNL     1      -7.928   2.169  71.443  1.00  0.00    -0.040 C  
ENDBRANCH  20  21
ENDBRANCH   7  20
ENDBRANCH   3   4
ENDBRANCH   2   3
TORSDOF 4
ENDMDL
MODEL      139
REMARK 921   NORMALIZED FREE ENERGY PREDICTED BY IDOCK:    2.01 KCAL/MOL
REMARK 922        TOTAL FREE ENERGY PREDICTED BY IDOCK:    1.19 KCAL/MOL
REMARK 923 INTER-LIGAND FREE ENERGY PREDICTED BY IDOCK:   -3.51 KCAL/MOL
REMARK 924 INTRA-LIGAND FREE ENERGY PREDICTED BY IDOCK:    4.69 KCAL/MOL
REMARK 927      BINDING AFFINITY PREDICTED BY RF-SCORE:    0.00 PKD
ROOT
HETATM    1  C   UNL     1      -9.258  12.746  69.559  1.00  0.00     1.592 C  
HETATM    2  C   UNL     1      -9.657  13.777  68.509  1.00  0.00    -0.176 C  
ENDROOT
BRANCH   2   3
HETATM    3  C   UNL     1     -10.596  14.808  69.125  1.00  0.00    -0.248 C  
BRANCH   3   4
HETATM    4  O   UNL     1     -10.362  16.107  68.584  1.00  0.00    -0.231 OA 
HETATM    5  C   UNL     1      -9.481  16.166  67.411  1.00  0.00    -0.226 C  
HETATM    6  C   UNL     1     -10.134  15.296  66.279  1.00  0.00    -0.297 A  
HETATM    7  C   UNL     1      -9.371  17.710  66.992  1.00  0.00    -0.257 C  
HETATM    8  C   UNL     1      -8.019  15.762  67.818  1.00  0.00    -0.155 A  
HETATM    9  C   UNL     1     -11.014  15.832  65.326  1.00  0.00    -0.354 A  
HETATM   10  C   UNL     1     -10.448  13.098  65.197  1.00  0.00    -0.339 A  
HETATM   11  C   UNL     1      -7.229  14.860  67.083  1.00  0.00    -0.005 A  
HETATM   12  O   UNL     1      -9.148  18.129  65.859  1.00  0.00    -0.509 OA 
HETATM   13  C   UNL     1      -5.994  14.411  67.554  1.00  0.00     0.084 A  
HETATM   14  C   UNL     1      -9.931  13.891  66.218  1.00  0.00    -0.315 A  
HETATM   15  C   UNL     1     -11.555  15.033  64.306  1.00  0.00    -0.190 A  
HETATM   16  C   UNL     1     -11.246  13.674  64.223  1.00  0.00    -0.355 A  
HETATM   17  C   UNL     1      -5.450  14.963  68.705  1.00  0.00    -0.088 A  
HETATM   18  C   UNL     1      -7.425  16.337  68.958  1.00  0.00    -0.220 A  
HETATM   19  C   UNL     1      -6.147  15.960  69.381  1.00  0.00    -0.143 A  
BRANCH   7  20
HETATM   20  O   UNL     1      -9.443  18.537  68.091  1.00  0.00    -0.295 OA 
BRANCH  20  21
HETATM   21  C   UNL     1      -9.011  19.913  67.943  1.00  0.00    -0.305 C  
HETATM   22  C   UNL     1      -8.384  20.443  69.234  1.00  0.00     0.840 C  
HETATM   23  N   UNL     1      -6.099  19.686  68.502  1.00  0.00    -0.228 NA 
HETATM   24  C   UNL     1      -7.104  19.677  69.570  1.00  0.00    -0.233 C  
HETATM   25  C   UNL     1      -5.390  20.958  68.407  1.00  0.00    -0.313 C  
HETATM   26  C   UNL     1      -6.670  19.250  67.221  1.00  0.00    -0.193 C  
HETATM   27  C   UNL     1      -7.964  19.970  66.825  1.00  0.00    -0.349 C  
ENDBRANCH  20  21
ENDBRANCH   7  20
ENDBRANCH   3   4
ENDBRANCH   2   3
TORSDOF 4
ENDMDL
MODEL      140
REMARK 921   NORMALIZED FREE ENERGY PREDICTED BY IDOCK:    2.24 KCAL/MOL
REMARK 922        TOTAL FREE ENERGY PREDICTED BY IDOCK:    1.47 KCAL/MOL
REMARK 923 INTER-LIGAND FREE ENERGY PREDICTED BY IDOCK:    0.48 KCAL/MOL
REMARK 924 INTRA-LIGAND FREE ENERGY PREDICTED BY IDOCK:    0.98 KCAL/MOL
REMARK 927      BINDING AFFINITY PREDICTED BY RF-SCORE:    0.00 PKD
ROOT
HETATM    1  C   UNL     1     -12.103  11.978  71.175  1.00  0.00     0.056 C  
HETATM    2  C   UNL     1     -10.844  12.048  70.317  1.00  0.00     1.210 C  
ENDROOT
BRANCH   2   3
HETATM    3  C   UNL     1     -10.630  13.476  69.827  1.00  0.00     0.587 C  
BRANCH   3   4
HETATM    4  O   UNL     1      -9.284  13.676  69.396  1.00  0.00     0.530 OA 
HETATM    5  C   UNL     1      -9.016  13.404  67.978  1.00  0.00    -0.190 C  
HETATM    6  C   UNL     1      -9.929  14.355  67.127  1.00  0.00    -0.253 A  
HETATM    7  C   UNL     1      -7.458  13.695  67.738  1.00  0.00    -0.168 C  
HETATM    8  C   UNL     1      -9.179  11.869  67.687  1.00  0.00    -0.183 A  
HETATM    9  C   UNL     1      -9.507  15.624  66.699  1.00  0.00    -0.282 A  
HETATM   10  C   UNL     1     -12.092  14.804  66.023  1.00  0.00    -0.101 A  
HETATM   11  C   UNL     1      -9.894  11.358  66.588  1.00  0.00    -0.233 A  
HETATM   12  O   UNL     1      -6.950  14.040  66.674  1.00  0.00     0.685 OA 
HETATM   13  C   UNL     1     -10.145   9.993  66.445  1.00  0.00    -0.307 A  
HETATM   14  C   UNL     1     -11.273  14.010  66.822  1.00  0.00    -0.323 A  
HETATM   15  C   UNL     1     -10.337  16.438  65.912  1.00  0.00    -0.378 A  
HETATM   16  C   UNL     1     -11.616  16.014  65.547  1.00  0.00     0.451 A  
HETATM   17  C   UNL     1      -9.564   9.086  67.320  1.00  0.00    -0.206 A  
HETATM   18  C   UNL     1      -8.567  10.925  68.535  1.00  0.00    -0.152 A  
HETATM   19  C   UNL     1      -8.737   9.552  68.338  1.00  0.00    -0.124 A  
BRANCH   7  20
HETATM   20  O   UNL     1      -6.710  13.398  68.856  1.00  0.00    -0.100 OA 
BRANCH  20  21
HETATM   21  C   UNL     1      -5.445  14.081  69.036  1.00  0.00    -0.083 C  
HETATM   22  C   UNL     1      -5.388  15.376  68.224  1.00  0.00    -0.113 C  
HETATM   23  N   UNL     1      -6.330  16.693  70.148  1.00  0.00    -0.007 NA 
HETATM   24  C   UNL     1      -6.433  16.375  68.721  1.00  0.00    -0.142 C  
HETATM   25  C   UNL     1      -5.227  17.600  70.446  1.00  0.00    -0.252 C  
HETATM   26  C   UNL     1      -6.310  15.476  70.972  1.00  0.00     0.680 C  
HETATM   27  C   UNL     1      -5.291  14.423  70.523  1.00  0.00    -0.118 C  
ENDBRANCH  20  21
ENDBRANCH   7  20
ENDBRANCH   3   4
ENDBRANCH   2   3
TORSDOF 4
ENDMDL
MODEL      141
REMARK 921   NORMALIZED FREE ENERGY PREDICTED BY IDOCK:    3.30 KCAL/MOL
REMARK 922        TOTAL FREE ENERGY PREDICTED BY IDOCK:    2.77 KCAL/MOL
REMARK 923 INTER-LIGAND FREE ENERGY PREDICTED BY IDOCK:    3.89 KCAL/MOL
REMARK 924 INTRA-LIGAND FREE ENERGY PREDICTED BY IDOCK:   -1.12 KCAL/MOL
REMARK 927      BINDING AFFINITY PREDICTED BY RF-SCORE:    0.00 PKD
ROOT
HETATM    1  C   UNL     1      -8.247   6.718  63.058  1.00  0.00     0.045 C  
HETATM    2  C   UNL     1      -7.326   7.511  63.981  1.00  0.00    -0.095 C  
ENDROOT
BRANCH   2   3
HETATM    3  C   UNL     1      -6.985   6.680  65.212  1.00  0.00    -0.052 C  
BRANCH   3   4
HETATM    4  O   UNL     1      -7.187   7.427  66.411  1.00  0.00    -0.075 OA 
HETATM    5  C   UNL     1      -7.831   6.708  67.517  1.00  0.00    -0.111 C  
HETATM    6  C   UNL     1      -6.927   5.476  67.877  1.00  0.00    -0.066 A  
HETATM    7  C   UNL     1      -7.949   7.742  68.735  1.00  0.00    -0.125 C  
HETATM    8  C   UNL     1      -9.318   6.370  67.142  1.00  0.00    -0.133 A  
HETATM    9  C   UNL     1      -5.914   5.540  68.847  1.00  0.00    -0.024 A  
HETATM   10  C   UNL     1      -6.288   3.121  67.497  1.00  0.00    -0.036 A  
HETATM   11  C   UNL     1      -9.902   5.105  67.340  1.00  0.00    -0.193 A  
HETATM   12  O   UNL     1      -7.977   7.444  69.927  1.00  0.00    -0.115 OA 
HETATM   13  C   UNL     1     -11.176   4.800  66.858  1.00  0.00     1.764 A  
HETATM   14  C   UNL     1      -7.034   4.249  67.167  1.00  0.00    -0.060 A  
HETATM   15  C   UNL     1      -5.145   4.410  69.168  1.00  0.00     0.000 A  
HETATM   16  C   UNL     1      -5.354   3.193  68.517  1.00  0.00    -0.013 A  
HETATM   17  C   UNL     1     -11.959   5.795  66.291  1.00  0.00     2.533 A  
HETATM   18  C   UNL     1     -10.150   7.371  66.602  1.00  0.00    -0.253 A  
HETATM   19  C   UNL     1     -11.461   7.091  66.206  1.00  0.00     2.375 A  
BRANCH   7  20
HETATM   20  O   UNL     1      -8.134   9.032  68.288  1.00  0.00    -0.107 OA 
BRANCH  20  21
HETATM   21  C   UNL     1      -8.540  10.039  69.246  1.00  0.00    -0.168 C  
HETATM   22  C   UNL     1      -8.173  11.445  68.768  1.00  0.00    -0.107 C  
HETATM   23  N   UNL     1     -10.395  11.698  67.618  1.00  0.00    -0.186 NA 
HETATM   24  C   UNL     1      -8.938  11.803  67.494  1.00  0.00    -0.168 C  
HETATM   25  C   UNL     1     -10.980  12.810  68.359  1.00  0.00    -0.254 C  
HETATM   26  C   UNL     1     -10.798  10.385  68.141  1.00  0.00    -0.264 C  
HETATM   27  C   UNL     1     -10.061   9.956  69.415  1.00  0.00    -0.227 C  
ENDBRANCH  20  21
ENDBRANCH   7  20
ENDBRANCH   3   4
ENDBRANCH   2   3
TORSDOF 4
ENDMDL
MODEL      142
REMARK 921   NORMALIZED FREE ENERGY PREDICTED BY IDOCK:    6.51 KCAL/MOL
REMARK 922        TOTAL FREE ENERGY PREDICTED BY IDOCK:    6.73 KCAL/MOL
REMARK 923 INTER-LIGAND FREE ENERGY PREDICTED BY IDOCK:    4.10 KCAL/MOL
REMARK 924 INTRA-LIGAND FREE ENERGY PREDICTED BY IDOCK:    2.64 KCAL/MOL
REMARK 927      BINDING AFFINITY PREDICTED BY RF-SCORE:    0.00 PKD
ROOT
HETATM    1  C   UNL     1     -11.814  12.618  70.291  1.00  0.00    -0.295 C  
HETATM    2  C   UNL     1     -10.532  11.884  70.672  1.00  0.00     3.334 C  
ENDROOT
BRANCH   2   3
HETATM    3  C   UNL     1      -9.430  12.211  69.671  1.00  0.00     1.701 C  
BRANCH   3   4
HETATM    4  O   UNL     1      -8.828  11.023  69.160  1.00  0.00    -0.110 OA 
HETATM    5  C   UNL     1      -9.753   9.992  68.673  1.00  0.00    -0.159 C  
HETATM    6  C   UNL     1     -10.604  10.623  67.515  1.00  0.00    -0.297 A  
HETATM    7  C   UNL     1      -8.853   8.769  68.158  1.00  0.00    -0.141 C  
HETATM    8  C   UNL     1     -10.575   9.399  69.873  1.00  0.00    -0.258 A  
HETATM    9  C   UNL     1     -10.218  10.551  66.167  1.00  0.00    -0.299 A  
HETATM   10  C   UNL     1     -12.583  11.907  66.784  1.00  0.00     2.089 A  
HETATM   11  C   UNL     1     -11.968   9.204  69.840  1.00  0.00     0.456 A  
HETATM   12  O   UNL     1      -9.172   7.963  67.288  1.00  0.00    -0.137 OA 
HETATM   13  C   UNL     1     -12.683   8.817  70.974  1.00  0.00    -0.068 A  
HETATM   14  C   UNL     1     -11.774  11.381  67.788  1.00  0.00    -0.279 A  
HETATM   15  C   UNL     1     -11.020  11.097  65.152  1.00  0.00    -0.156 A  
HETATM   16  C   UNL     1     -12.217  11.746  65.458  1.00  0.00     0.522 A  
HETATM   17  C   UNL     1     -12.007   8.473  72.136  1.00  0.00    -0.451 A  
HETATM   18  C   UNL     1      -9.910   9.003  71.050  1.00  0.00    -0.352 A  
HETATM   19  C   UNL     1     -10.616   8.523  72.157  1.00  0.00    -0.419 A  
BRANCH   7  20
HETATM   20  O   UNL     1      -7.696   8.647  68.896  1.00  0.00    -0.096 OA 
BRANCH  20  21
HETATM   21  C   UNL     1      -6.934   7.421  68.779  1.00  0.00    -0.078 C  
HETATM   22  C   UNL     1      -5.774   7.387  69.776  1.00  0.00    -0.023 C  
HETATM   23  N   UNL     1      -7.219   6.279  71.510  1.00  0.00    -0.081 NA 
HETATM   24  C   UNL     1      -6.292   7.375  71.214  1.00  0.00    -0.036 C  
HETATM   25  C   UNL     1      -6.541   4.998  71.677  1.00  0.00    -0.032 C  
HETATM   26  C   UNL     1      -8.318   6.223  70.537  1.00  0.00    -0.129 C  
HETATM   27  C   UNL     1      -7.871   6.243  69.072  1.00  0.00    -0.109 C  
ENDBRANCH  20  21
ENDBRANCH   7  20
ENDBRANCH   3   4
ENDBRANCH   2   3
TORSDOF 4
ENDMDL
MODEL      143
REMARK 921   NORMALIZED FREE ENERGY PREDICTED BY IDOCK:    6.94 KCAL/MOL
REMARK 922        TOTAL FREE ENERGY PREDICTED BY IDOCK:    7.27 KCAL/MOL
REMARK 923 INTER-LIGAND FREE ENERGY PREDICTED BY IDOCK:   -3.02 KCAL/MOL
REMARK 924 INTRA-LIGAND FREE ENERGY PREDICTED BY IDOCK:   10.28 KCAL/MOL
REMARK 927      BINDING AFFINITY PREDICTED BY RF-SCORE:    0.00 PKD
ROOT
HETATM    1  C   UNL     1     -11.164  10.067  67.789  1.00  0.00    -0.137 C  
HETATM    2  C   UNL     1      -9.836  10.114  67.041  1.00  0.00    -0.238 C  
ENDROOT
BRANCH   2   3
HETATM    3  C   UNL     1      -9.851   9.109  65.895  1.00  0.00    -0.235 C  
BRANCH   3   4
HETATM    4  O   UNL     1      -8.750   8.206  65.988  1.00  0.00    -0.141 OA 
HETATM    5  C   UNL     1      -8.213   7.981  67.336  1.00  0.00    -0.123 C  
HETATM    6  C   UNL     1      -9.373   7.401  68.220  1.00  0.00    -0.140 A  
HETATM    7  C   UNL     1      -6.999   6.945  67.184  1.00  0.00    -0.074 C  
HETATM    8  C   UNL     1      -7.545   9.296  67.873  1.00  0.00    -0.084 A  
HETATM    9  C   UNL     1      -9.601   6.022  68.359  1.00  0.00    -0.130 A  
HETATM   10  C   UNL     1     -11.317   7.777  69.696  1.00  0.00     0.146 A  
HETATM   11  C   UNL     1      -7.767   9.811  69.163  1.00  0.00    -0.092 A  
HETATM   12  O   UNL     1      -6.613   6.164  68.050  1.00  0.00    -0.056 OA 
HETATM   13  C   UNL     1      -7.276  11.058  69.552  1.00  0.00    -0.091 A  
HETATM   14  C   UNL     1     -10.312   8.254  68.860  1.00  0.00    -0.230 A  
HETATM   15  C   UNL     1     -10.627   5.535  69.184  1.00  0.00    -0.300 A  
HETATM   16  C   UNL     1     -11.463   6.412  69.878  1.00  0.00    -0.483 A  
HETATM   17  C   UNL     1      -6.426  11.762  68.711  1.00  0.00    -0.066 A  
HETATM   18  C   UNL     1      -6.646  10.010  67.055  1.00  0.00    -0.070 A  
HETATM   19  C   UNL     1      -6.076  11.214  67.480  1.00  0.00    -0.052 A  
BRANCH   7  20
HETATM   20  O   UNL     1      -6.344   7.108  65.983  1.00  0.00    -0.042 OA 
BRANCH  20  21
HETATM   21  C   UNL     1      -6.380   6.018  65.029  1.00  0.00    -0.037 C  
HETATM   22  C   UNL     1      -5.345   4.944  65.369  1.00  0.00    -0.013 C  
HETATM   23  N   UNL     1      -7.010   3.705  66.789  1.00  0.00    -0.054 NA 
HETATM   24  C   UNL     1      -5.666   4.285  66.710  1.00  0.00    -0.022 C  
HETATM   25  C   UNL     1      -7.123   2.442  66.068  1.00  0.00    -0.063 C  
HETATM   26  C   UNL     1      -8.041   4.680  66.404  1.00  0.00    -0.103 C  
HETATM   27  C   UNL     1      -7.777   5.389  65.071  1.00  0.00    -0.087 C  
ENDBRANCH  20  21
ENDBRANCH   7  20
ENDBRANCH   3   4
ENDBRANCH   2   3
TORSDOF 4
ENDMDL
MODEL      144
REMARK 921   NORMALIZED FREE ENERGY PREDICTED BY IDOCK:    7.48 KCAL/MOL
REMARK 922        TOTAL FREE ENERGY PREDICTED BY IDOCK:    7.92 KCAL/MOL
REMARK 923 INTER-LIGAND FREE ENERGY PREDICTED BY IDOCK:    4.03 KCAL/MOL
REMARK 924 INTRA-LIGAND FREE ENERGY PREDICTED BY IDOCK:    3.90 KCAL/MOL
REMARK 927      BINDING AFFINITY PREDICTED BY RF-SCORE:    0.00 PKD
ROOT
HETATM    1  C   UNL     1      -8.147  12.386  68.246  1.00  0.00    -0.166 C  
HETATM    2  C   UNL     1      -7.853  11.626  66.957  1.00  0.00    -0.164 C  
ENDROOT
BRANCH   2   3
HETATM    3  C   UNL     1      -9.144  11.413  66.175  1.00  0.00    -0.207 C  
BRANCH   3   4
HETATM    4  O   UNL     1      -9.567  10.052  66.240  1.00  0.00    -0.179 OA 
HETATM    5  C   UNL     1      -9.816   9.519  67.585  1.00  0.00    -0.165 C  
HETATM    6  C   UNL     1     -10.941  10.394  68.244  1.00  0.00    -0.321 A  
HETATM    7  C   UNL     1     -10.272   7.994  67.402  1.00  0.00    -0.261 C  
HETATM    8  C   UNL     1      -8.468   9.434  68.386  1.00  0.00    -0.120 A  
HETATM    9  C   UNL     1     -12.304  10.073  68.143  1.00  0.00     2.964 A  
HETATM   10  C   UNL     1     -11.600  12.383  69.550  1.00  0.00    -0.353 A  
HETATM   11  C   UNL     1      -8.321   9.885  69.711  1.00  0.00    -0.196 A  
HETATM   12  O   UNL     1     -10.995   7.366  68.172  1.00  0.00    -0.087 OA 
HETATM   13  C   UNL     1      -7.074   9.931  70.337  1.00  0.00    -0.146 A  
HETATM   14  C   UNL     1     -10.635  11.613  68.907  1.00  0.00    -0.224 A  
HETATM   15  C   UNL     1     -13.283  10.859  68.772  1.00  0.00     3.525 A  
HETATM   16  C   UNL     1     -12.928  11.994  69.502  1.00  0.00     1.181 A  
HETATM   17  C   UNL     1      -5.961   9.392  69.707  1.00  0.00    -0.036 A  
HETATM   18  C   UNL     1      -7.332   8.855  67.787  1.00  0.00    -0.085 A  
HETATM   19  C   UNL     1      -6.102   8.812  68.450  1.00  0.00    -0.050 A  
BRANCH   7  20
HETATM   20  O   UNL     1      -9.658   7.410  66.316  1.00  0.00    -0.149 OA 
BRANCH  20  21
HETATM   21  C   UNL     1      -8.532   6.531  66.555  1.00  0.00    -0.120 C  
HETATM   22  C   UNL     1      -8.991   5.151  67.031  1.00  0.00    -0.112 C  
HETATM   23  N   UNL     1      -9.100   4.306  64.664  1.00  0.00    -0.144 NA 
HETATM   24  C   UNL     1      -9.801   4.443  65.945  1.00  0.00    -0.228 C  
HETATM   25  C   UNL     1      -8.089   3.255  64.685  1.00  0.00    -0.090 C  
HETATM   26  C   UNL     1      -8.577   5.596  64.195  1.00  0.00     0.054 C  
HETATM   27  C   UNL     1      -7.762   6.368  65.239  1.00  0.00    -0.098 C  
ENDBRANCH  20  21
ENDBRANCH   7  20
ENDBRANCH   3   4
ENDBRANCH   2   3
TORSDOF 4
ENDMDL
MODEL      145
REMARK 921   NORMALIZED FREE ENERGY PREDICTED BY IDOCK:    8.52 KCAL/MOL
REMARK 922        TOTAL FREE ENERGY PREDICTED BY IDOCK:    9.21 KCAL/MOL
REMARK 923 INTER-LIGAND FREE ENERGY PREDICTED BY IDOCK:    0.26 KCAL/MOL
REMARK 924 INTRA-LIGAND FREE ENERGY PREDICTED BY IDOCK:    8.96 KCAL/MOL
REMARK 927      BINDING AFFINITY PREDICTED BY RF-SCORE:    0.00 PKD
ROOT
HETATM    1  C   UNL     1      -8.202   9.847  65.977  1.00  0.00    -0.119 C  
HETATM    2  C   UNL     1      -8.526  10.891  67.040  1.00  0.00    -0.134 C  
ENDROOT
BRANCH   2   3
HETATM    3  C   UNL     1      -8.286  12.290  66.483  1.00  0.00     0.116 C  
BRANCH   3   4
HETATM    4  O   UNL     1      -7.644  13.125  67.445  1.00  0.00    -0.155 OA 
HETATM    5  C   UNL     1      -8.145  13.024  68.821  1.00  0.00     0.086 C  
HETATM    6  C   UNL     1      -7.960  11.537  69.289  1.00  0.00     0.198 A  
HETATM    7  C   UNL     1      -7.281  14.044  69.705  1.00  0.00     0.250 C  
HETATM    8  C   UNL     1      -9.612  13.580  68.899  1.00  0.00     0.122 A  
HETATM    9  C   UNL     1      -6.804  11.091  69.950  1.00  0.00    -0.097 A  
HETATM   10  C   UNL     1      -8.821   9.227  69.432  1.00  0.00    -0.149 A  
HETATM   11  C   UNL     1     -10.661  12.917  69.561  1.00  0.00     0.269 A  
HETATM   12  O   UNL     1      -7.052  13.932  70.907  1.00  0.00     0.826 OA 
HETATM   13  C   UNL     1     -11.981  13.365  69.482  1.00  0.00    -0.377 A  
HETATM   14  C   UNL     1      -8.926  10.541  68.985  1.00  0.00    -0.183 A  
HETATM   15  C   UNL     1      -6.683   9.762  70.385  1.00  0.00    -0.123 A  
HETATM   16  C   UNL     1      -7.705   8.839  70.155  1.00  0.00    -0.084 A  
HETATM   17  C   UNL     1     -12.267  14.571  68.857  1.00  0.00    -0.194 A  
HETATM   18  C   UNL     1      -9.923  14.821  68.309  1.00  0.00    -0.222 A  
HETATM   19  C   UNL     1     -11.228  15.321  68.311  1.00  0.00    -0.318 A  
BRANCH   7  20
HETATM   20  O   UNL     1      -6.904  15.150  68.977  1.00  0.00    -0.107 OA 
BRANCH  20  21
HETATM   21  C   UNL     1      -7.321  15.235  67.592  1.00  0.00    -0.178 C  
HETATM   22  C   UNL     1      -8.108  16.519  67.322  1.00  0.00    -0.193 C  
HETATM   23  N   UNL     1      -6.000  17.754  66.724  1.00  0.00    -0.146 NA 
HETATM   24  C   UNL     1      -7.225  17.750  67.529  1.00  0.00    -0.190 C  
HETATM   25  C   UNL     1      -6.246  18.085  65.324  1.00  0.00    -0.020 C  
HETATM   26  C   UNL     1      -5.240  16.508  66.893  1.00  0.00     0.037 C  
HETATM   27  C   UNL     1      -6.066  15.230  66.711  1.00  0.00     1.344 C  
ENDBRANCH  20  21
ENDBRANCH   7  20
ENDBRANCH   3   4
ENDBRANCH   2   3
TORSDOF 4
ENDMDL
MODEL      146
REMARK 921   NORMALIZED FREE ENERGY PREDICTED BY IDOCK:    8.65 KCAL/MOL
REMARK 922        TOTAL FREE ENERGY PREDICTED BY IDOCK:    9.37 KCAL/MOL
REMARK 923 INTER-LIGAND FREE ENERGY PREDICTED BY IDOCK:    5.30 KCAL/MOL
REMARK 924 INTRA-LIGAND FREE ENERGY PREDICTED BY IDOCK:    4.08 KCAL/MOL
REMARK 927      BINDING AFFINITY PREDICTED BY RF-SCORE:    0.00 PKD
ROOT
HETATM    1  C   UNL     1     -11.704  16.991  64.379  1.00  0.00     1.424 C  
HETATM    2  C   UNL     1     -11.496  16.681  65.857  1.00  0.00     0.851 C  
ENDROOT
BRANCH   2   3
HETATM    3  C   UNL     1     -10.006  16.569  66.160  1.00  0.00    -0.343 C  
BRANCH   3   4
HETATM    4  O   UNL     1      -9.747  16.757  67.550  1.00  0.00    -0.245 OA 
HETATM    5  C   UNL     1      -8.334  16.744  67.948  1.00  0.00    -0.195 C  
HETATM    6  C   UNL     1      -7.608  17.900  67.173  1.00  0.00    -0.219 A  
HETATM    7  C   UNL     1      -8.298  16.971  69.534  1.00  0.00     0.520 C  
HETATM    8  C   UNL     1      -7.732  15.308  67.741  1.00  0.00    -0.164 A  
HETATM    9  C   UNL     1      -7.478  19.196  67.696  1.00  0.00    -0.263 A  
HETATM   10  C   UNL     1      -6.422  18.695  65.157  1.00  0.00    -0.201 A  
HETATM   11  C   UNL     1      -6.494  15.066  67.118  1.00  0.00     0.360 A  
HETATM   12  O   UNL     1      -7.373  17.479  70.163  1.00  0.00     1.007 OA 
HETATM   13  C   UNL     1      -6.063  13.773  66.819  1.00  0.00     2.010 A  
HETATM   14  C   UNL     1      -7.120  17.710  65.852  1.00  0.00    -0.250 A  
HETATM   15  C   UNL     1      -6.794  20.199  66.991  1.00  0.00    -0.267 A  
HETATM   16  C   UNL     1      -6.239  19.939  65.737  1.00  0.00    -0.220 A  
HETATM   17  C   UNL     1      -6.791  12.678  67.263  1.00  0.00    -0.102 A  
HETATM   18  C   UNL     1      -8.430  14.181  68.218  1.00  0.00    -0.169 A  
HETATM   19  C   UNL     1      -7.952  12.885  68.003  1.00  0.00    -0.158 A  
BRANCH   7  20
HETATM   20  O   UNL     1      -9.399  16.416  70.149  1.00  0.00     0.634 OA 
BRANCH  20  21
HETATM   21  C   UNL     1     -10.332  15.664  69.336  1.00  0.00    -0.260 C  
HETATM   22  C   UNL     1     -10.564  14.263  69.904  1.00  0.00     0.211 C  
HETATM   23  N   UNL     1     -12.493  15.081  71.296  1.00  0.00    -0.307 NA 
HETATM   24  C   UNL     1     -11.230  14.336  71.278  1.00  0.00     0.776 C  
HETATM   25  C   UNL     1     -13.602  14.324  70.727  1.00  0.00     0.067 C  
HETATM   26  C   UNL     1     -12.341  16.414  70.695  1.00  0.00     0.795 C  
HETATM   27  C   UNL     1     -11.668  16.417  69.318  1.00  0.00     0.005 C  
ENDBRANCH  20  21
ENDBRANCH   7  20
ENDBRANCH   3   4
ENDBRANCH   2   3
TORSDOF 4
ENDMDL
MODEL      147
REMARK 921   NORMALIZED FREE ENERGY PREDICTED BY IDOCK:   10.62 KCAL/MOL
REMARK 922        TOTAL FREE ENERGY PREDICTED BY IDOCK:   11.80 KCAL/MOL
REMARK 923 INTER-LIGAND FREE ENERGY PREDICTED BY IDOCK:    6.15 KCAL/MOL
REMARK 924 INTRA-LIGAND FREE ENERGY PREDICTED BY IDOCK:    5.65 KCAL/MOL
REMARK 927      BINDING AFFINITY PREDICTED BY RF-SCORE:    0.00 PKD
ROOT
HETATM    1  C   UNL     1     -13.192   7.281  68.886  1.00  0.00     8.116 C  
HETATM    2  C   UNL     1     -11.725   7.690  68.968  1.00  0.00     1.079 C  
ENDROOT
BRANCH   2   3
HETATM    3  C   UNL     1     -10.861   6.670  68.236  1.00  0.00    -0.254 C  
BRANCH   3   4
HETATM    4  O   UNL     1     -10.110   5.877  69.154  1.00  0.00    -0.162 OA 
HETATM    5  C   UNL     1      -8.650   5.940  69.014  1.00  0.00    -0.114 C  
HETATM    6  C   UNL     1      -8.214   7.434  69.217  1.00  0.00    -0.131 A  
HETATM    7  C   UNL     1      -8.034   4.978  70.138  1.00  0.00    -0.077 C  
HETATM    8  C   UNL     1      -8.213   5.286  67.654  1.00  0.00    -0.099 A  
HETATM    9  C   UNL     1      -7.860   7.955  70.472  1.00  0.00    -0.095 A  
HETATM   10  C   UNL     1      -7.811   9.681  68.275  1.00  0.00    -0.085 A  
HETATM   11  C   UNL     1      -7.293   5.876  66.768  1.00  0.00    -0.079 A  
HETATM   12  O   UNL     1      -6.928   5.101  70.658  1.00  0.00    -0.048 OA 
HETATM   13  C   UNL     1      -7.044   5.340  65.503  1.00  0.00    -0.067 A  
HETATM   14  C   UNL     1      -8.244   8.365  68.143  1.00  0.00    -0.124 A  
HETATM   15  C   UNL     1      -7.443   9.288  70.614  1.00  0.00    -0.145 A  
HETATM   16  C   UNL     1      -7.388  10.141  69.510  1.00  0.00    -0.123 A  
HETATM   17  C   UNL     1      -7.599   4.120  65.146  1.00  0.00    -0.081 A  
HETATM   18  C   UNL     1      -8.729   4.029  67.283  1.00  0.00    -0.120 A  
HETATM   19  C   UNL     1      -8.405   3.443  66.056  1.00  0.00    -0.103 A  
BRANCH   7  20
HETATM   20  O   UNL     1      -8.857   3.901  70.387  1.00  0.00    -0.075 OA 
BRANCH  20  21
HETATM   21  C   UNL     1      -9.693   3.935  71.570  1.00  0.00    -0.177 C  
HETATM   22  C   UNL     1      -8.887   3.622  72.832  1.00  0.00    -0.102 C  
HETATM   23  N   UNL     1      -8.367   6.059  73.176  1.00  0.00    -0.116 NA 
HETATM   24  C   UNL     1      -7.831   4.697  73.084  1.00  0.00    -0.096 C  
HETATM   25  C   UNL     1      -9.028   6.319  74.450  1.00  0.00    -0.150 C  
HETATM   26  C   UNL     1      -9.209   6.386  72.016  1.00  0.00    -0.148 C  
HETATM   27  C   UNL     1     -10.286   5.343  71.699  1.00  0.00    -0.268 C  
ENDBRANCH  20  21
ENDBRANCH   7  20
ENDBRANCH   3   4
ENDBRANCH   2   3
TORSDOF 4
ENDMDL
MODEL      148
REMARK 921   NORMALIZED FREE ENERGY PREDICTED BY IDOCK:   14.28 KCAL/MOL
REMARK 922        TOTAL FREE ENERGY PREDICTED BY IDOCK:   16.31 KCAL/MOL
REMARK 923 INTER-LIGAND FREE ENERGY PREDICTED BY IDOCK:   14.43 KCAL/MOL
REMARK 924 INTRA-LIGAND FREE ENERGY PREDICTED BY IDOCK:    1.88 KCAL/MOL
REMARK 927      BINDING AFFINITY PREDICTED BY RF-SCORE:    0.00 PKD
ROOT
HETATM    1  C   UNL     1     -12.801  10.330  66.330  1.00  0.00    10.171 C  
HETATM    2  C   UNL     1     -11.846  10.216  67.514  1.00  0.00     1.602 C  
ENDROOT
BRANCH   2   3
HETATM    3  C   UNL     1     -11.632  11.589  68.141  1.00  0.00    -0.308 C  
BRANCH   3   4
HETATM    4  O   UNL     1     -10.273  12.005  68.017  1.00  0.00    -0.187 OA 
HETATM    5  C   UNL     1      -9.978  12.917  66.905  1.00  0.00    -0.238 C  
HETATM    6  C   UNL     1     -10.850  14.207  67.100  1.00  0.00    -0.291 A  
HETATM    7  C   UNL     1      -8.409  13.237  66.972  1.00  0.00    -0.080 C  
HETATM    8  C   UNL     1     -10.170  12.170  65.536  1.00  0.00    -0.294 A  
HETATM    9  C   UNL     1     -10.390  15.330  67.805  1.00  0.00    -0.244 A  
HETATM   10  C   UNL     1     -12.977  15.413  66.749  1.00  0.00     2.640 A  
HETATM   11  C   UNL     1     -10.871  12.716  64.445  1.00  0.00    -0.386 A  
HETATM   12  O   UNL     1      -7.870  14.261  66.560  1.00  0.00     0.494 OA 
HETATM   13  C   UNL     1     -11.149  11.966  63.301  1.00  0.00    -0.390 A  
HETATM   14  C   UNL     1     -12.194  14.266  66.643  1.00  0.00    -0.411 A  
HETATM   15  C   UNL     1     -11.183  16.482  67.934  1.00  0.00    -0.155 A  
HETATM   16  C   UNL     1     -12.463  16.535  67.378  1.00  0.00     2.659 A  
HETATM   17  C   UNL     1     -10.609  10.695  63.156  1.00  0.00     0.387 A  
HETATM   18  C   UNL     1      -9.599  10.897  65.346  1.00  0.00    -0.271 A  
HETATM   19  C   UNL     1      -9.796  10.181  64.162  1.00  0.00    -0.226 A  
BRANCH   7  20
HETATM   20  O   UNL     1      -7.694  12.162  67.452  1.00  0.00    -0.146 OA 
BRANCH  20  21
HETATM   21  C   UNL     1      -6.414  11.862  66.843  1.00  0.00    -0.095 C  
HETATM   22  C   UNL     1      -5.613  10.869  67.687  1.00  0.00    -0.043 C  
HETATM   23  N   UNL     1      -6.615   8.921  66.452  1.00  0.00    -0.066 NA 
HETATM   24  C   UNL     1      -6.325   9.518  67.759  1.00  0.00    -0.057 C  
HETATM   25  C   UNL     1      -5.434   8.337  65.825  1.00  0.00    -0.032 C  
HETATM   26  C   UNL     1      -7.325   9.861  65.575  1.00  0.00    -0.122 C  
HETATM   27  C   UNL     1      -6.672  11.243  65.464  1.00  0.00     0.523 C  
ENDBRANCH  20  21
ENDBRANCH   7  20
ENDBRANCH   3   4
ENDBRANCH   2   3
TORSDOF 4
ENDMDL
MODEL      149
REMARK 921   NORMALIZED FREE ENERGY PREDICTED BY IDOCK:   16.65 KCAL/MOL
REMARK 922        TOTAL FREE ENERGY PREDICTED BY IDOCK:   19.24 KCAL/MOL
REMARK 923 INTER-LIGAND FREE ENERGY PREDICTED BY IDOCK:   13.07 KCAL/MOL
REMARK 924 INTRA-LIGAND FREE ENERGY PREDICTED BY IDOCK:    6.17 KCAL/MOL
REMARK 927      BINDING AFFINITY PREDICTED BY RF-SCORE:    0.00 PKD
ROOT
HETATM    1  C   UNL     1      -9.698  13.758  64.385  1.00  0.00     0.929 C  
HETATM    2  C   UNL     1     -10.336  14.812  65.284  1.00  0.00    -0.425 C  
ENDROOT
BRANCH   2   3
HETATM    3  C   UNL     1     -10.147  14.427  66.747  1.00  0.00    -0.266 C  
BRANCH   3   4
HETATM    4  O   UNL     1      -9.260  15.329  67.406  1.00  0.00    -0.189 OA 
HETATM    5  C   UNL     1      -9.871  16.543  67.962  1.00  0.00    -0.240 C  
HETATM    6  C   UNL     1     -10.952  16.097  69.008  1.00  0.00    -0.312 A  
HETATM    7  C   UNL     1      -8.690  17.388  68.641  1.00  0.00    -0.261 C  
HETATM    8  C   UNL     1     -10.393  17.460  66.798  1.00  0.00    -0.305 A  
HETATM    9  C   UNL     1     -10.661  15.929  70.372  1.00  0.00    -0.193 A  
HETATM   10  C   UNL     1     -13.269  15.408  69.515  1.00  0.00     0.939 A  
HETATM   11  C   UNL     1     -11.665  18.061  66.793  1.00  0.00     2.180 A  
HETATM   12  O   UNL     1      -8.819  18.171  69.578  1.00  0.00     0.362 OA 
HETATM   13  C   UNL     1     -12.150  18.745  65.677  1.00  0.00     5.303 A  
HETATM   14  C   UNL     1     -12.271  15.753  68.607  1.00  0.00     0.158 A  
HETATM   15  C   UNL     1     -11.659  15.561  71.288  1.00  0.00    -0.462 A  
HETATM   16  C   UNL     1     -12.969  15.333  70.864  1.00  0.00    -0.522 A  
HETATM   17  C   UNL     1     -11.320  18.972  64.588  1.00  0.00     3.375 A  
HETATM   18  C   UNL     1      -9.558  17.741  65.699  1.00  0.00     0.397 A  
HETATM   19  C   UNL     1     -10.008  18.508  64.621  1.00  0.00     4.380 A  
BRANCH   7  20
HETATM   20  O   UNL     1      -7.499  17.221  67.970  1.00  0.00    -0.184 OA 
BRANCH  20  21
HETATM   21  C   UNL     1      -7.415  17.678  66.598  1.00  0.00    -0.235 C  
HETATM   22  C   UNL     1      -8.031  19.068  66.433  1.00  0.00    -0.300 C  
HETATM   23  N   UNL     1      -5.818  20.169  66.895  1.00  0.00    -0.170 NA 
HETATM   24  C   UNL     1      -7.244  20.110  67.228  1.00  0.00    -0.270 C  
HETATM   25  C   UNL     1      -5.562  20.849  65.630  1.00  0.00    -0.229 C  
HETATM   26  C   UNL     1      -5.191  18.842  66.971  1.00  0.00    -0.142 C  
HETATM   27  C   UNL     1      -5.935  17.744  66.203  1.00  0.00    -0.251 C  
ENDBRANCH  20  21
ENDBRANCH   7  20
ENDBRANCH   3   4
ENDBRANCH   2   3
TORSDOF 4
ENDMDL
MODEL      150
REMARK 921   NORMALIZED FREE ENERGY PREDICTED BY IDOCK:   20.65 KCAL/MOL
REMARK 922        TOTAL FREE ENERGY PREDICTED BY IDOCK:   24.17 KCAL/MOL
REMARK 923 INTER-LIGAND FREE ENERGY PREDICTED BY IDOCK:    1.36 KCAL/MOL
REMARK 924 INTRA-LIGAND FREE ENERGY PREDICTED BY IDOCK:   22.82 KCAL/MOL
REMARK 927      BINDING AFFINITY PREDICTED BY RF-SCORE:    0.00 PKD
ROOT
HETATM    1  C   UNL     1     -10.931  12.133  67.210  1.00  0.00    -0.308 C  
HETATM    2  C   UNL     1     -10.866  12.686  65.790  1.00  0.00    -0.304 C  
ENDROOT
BRANCH   2   3
HETATM    3  C   UNL     1      -9.431  13.070  65.448  1.00  0.00     0.230 C  
BRANCH   3   4
HETATM    4  O   UNL     1      -8.595  13.020  66.603  1.00  0.00    -0.108 OA 
HETATM    5  C   UNL     1      -8.901  11.962  67.574  1.00  0.00    -0.169 C  
HETATM    6  C   UNL     1      -8.768  10.583  66.836  1.00  0.00    -0.130 A  
HETATM    7  C   UNL     1      -7.842  12.108  68.768  1.00  0.00    -0.017 C  
HETATM    8  C   UNL     1     -10.294  12.239  68.246  1.00  0.00    -0.227 A  
HETATM    9  C   UNL     1      -7.569   9.854  66.806  1.00  0.00    -0.095 A  
HETATM   10  C   UNL     1      -9.778   8.798  65.460  1.00  0.00     0.103 A  
HETATM   11  C   UNL     1     -11.286  11.255  68.411  1.00  0.00    -0.348 A  
HETATM   12  O   UNL     1      -7.454  11.197  69.495  1.00  0.00    -0.088 OA 
HETATM   13  C   UNL     1     -12.564  11.572  68.875  1.00  0.00     0.626 A  
HETATM   14  C   UNL     1      -9.843  10.043  66.079  1.00  0.00    -0.321 A  
HETATM   15  C   UNL     1      -7.492   8.608  66.164  1.00  0.00    -0.086 A  
HETATM   16  C   UNL     1      -8.605   8.066  65.520  1.00  0.00    -0.158 A  
HETATM   17  C   UNL     1     -12.841  12.855  69.323  1.00  0.00     1.088 A  
HETATM   18  C   UNL     1     -10.587  13.522  68.748  1.00  0.00    -0.237 A  
HETATM   19  C   UNL     1     -11.836  13.818  69.302  1.00  0.00    -0.392 A  
BRANCH   7  20
HETATM   20  O   UNL     1      -7.488  13.423  68.971  1.00  0.00    -0.055 OA 
BRANCH  20  21
HETATM   21  C   UNL     1      -6.108  13.804  68.750  1.00  0.00    -0.086 C  
HETATM   22  C   UNL     1      -5.764  13.816  67.259  1.00  0.00     0.472 C  
HETATM   23  N   UNL     1      -6.423  16.236  67.066  1.00  0.00    -0.259 NA 
HETATM   24  C   UNL     1      -6.574  14.882  66.523  1.00  0.00     2.500 C  
HETATM   25  C   UNL     1      -5.154  16.853  66.696  1.00  0.00    -0.039 C  
HETATM   26  C   UNL     1      -6.675  16.267  68.513  1.00  0.00    -0.135 C  
HETATM   27  C   UNL     1      -5.902  15.214  69.315  1.00  0.00    -0.097 C  
ENDBRANCH  20  21
ENDBRANCH   7  20
ENDBRANCH   3   4
ENDBRANCH   2   3
TORSDOF 4
ENDMDL
MODEL      151
REMARK 921   NORMALIZED FREE ENERGY PREDICTED BY IDOCK:   22.46 KCAL/MOL
REMARK 922        TOTAL FREE ENERGY PREDICTED BY IDOCK:   26.41 KCAL/MOL
REMARK 923 INTER-LIGAND FREE ENERGY PREDICTED BY IDOCK:   17.59 KCAL/MOL
REMARK 924 INTRA-LIGAND FREE ENERGY PREDICTED BY IDOCK:    8.81 KCAL/MOL
REMARK 927      BINDING AFFINITY PREDICTED BY RF-SCORE:    0.00 PKD
ROOT
HETATM    1  C   UNL     1     -11.493  14.365  65.972  1.00  0.00    -0.349 C  
HETATM    2  C   UNL     1     -10.316  14.819  65.114  1.00  0.00    -0.439 C  
ENDROOT
BRANCH   2   3
HETATM    3  C   UNL     1      -9.845  16.196  65.567  1.00  0.00    -0.155 C  
BRANCH   3   4
HETATM    4  O   UNL     1      -9.796  16.282  66.990  1.00  0.00    -0.235 OA 
HETATM    5  C   UNL     1      -8.553  16.819  67.560  1.00  0.00    -0.194 C  
HETATM    6  C   UNL     1      -8.357  18.269  66.994  1.00  0.00    -0.256 A  
HETATM    7  C   UNL     1      -8.734  16.815  69.152  1.00  0.00    -0.092 C  
HETATM    8  C   UNL     1      -7.368  15.822  67.295  1.00  0.00    -0.257 A  
HETATM    9  C   UNL     1      -8.848  19.409  67.650  1.00  0.00    -0.355 A  
HETATM   10  C   UNL     1      -7.501  19.768  65.228  1.00  0.00     0.084 A  
HETATM   11  C   UNL     1      -6.109  16.223  66.812  1.00  0.00     0.185 A  
HETATM   12  O   UNL     1      -8.175  17.576  69.937  1.00  0.00     1.035 OA 
HETATM   13  C   UNL     1      -5.132  15.295  66.448  1.00  0.00     2.817 A  
HETATM   14  C   UNL     1      -7.742  18.494  65.733  1.00  0.00    -0.015 A  
HETATM   15  C   UNL     1      -8.627  20.696  67.134  1.00  0.00    -0.299 A  
HETATM   16  C   UNL     1      -7.926  20.877  65.940  1.00  0.00     0.667 A  
HETATM   17  C   UNL     1      -5.334  13.944  66.692  1.00  0.00     2.583 A  
HETATM   18  C   UNL     1      -7.531  14.450  67.572  1.00  0.00    -0.206 A  
HETATM   19  C   UNL     1      -6.517  13.528  67.297  1.00  0.00     0.212 A  
BRANCH   7  20
HETATM   20  O   UNL     1      -9.520  15.763  69.569  1.00  0.00    -0.259 OA 
BRANCH  20  21
HETATM   21  C   UNL     1      -9.092  15.003  70.726  1.00  0.00     1.969 C  
HETATM   22  C   UNL     1      -8.294  13.764  70.317  1.00  0.00     2.790 C  
HETATM   23  N   UNL     1      -6.135  15.052  70.410  1.00  0.00    -0.145 NA 
HETATM   24  C   UNL     1      -6.992  14.161  69.621  1.00  0.00    -0.011 C  
HETATM   25  C   UNL     1      -5.426  14.353  71.476  1.00  0.00    -0.172 C  
HETATM   26  C   UNL     1      -6.875  16.228  70.888  1.00  0.00     2.113 C  
HETATM   27  C   UNL     1      -8.199  15.904  71.588  1.00  0.00     6.576 C  
ENDBRANCH  20  21
ENDBRANCH   7  20
ENDBRANCH   3   4
ENDBRANCH   2   3
TORSDOF 4
ENDMDL
MODEL      152
REMARK 921   NORMALIZED FREE ENERGY PREDICTED BY IDOCK:   22.84 KCAL/MOL
REMARK 922        TOTAL FREE ENERGY PREDICTED BY IDOCK:   26.88 KCAL/MOL
REMARK 923 INTER-LIGAND FREE ENERGY PREDICTED BY IDOCK:   14.90 KCAL/MOL
REMARK 924 INTRA-LIGAND FREE ENERGY PREDICTED BY IDOCK:   11.97 KCAL/MOL
REMARK 927      BINDING AFFINITY PREDICTED BY RF-SCORE:    0.00 PKD
ROOT
HETATM    1  C   UNL     1      -8.331  12.961  71.497  1.00  0.00    13.428 C  
HETATM    2  C   UNL     1      -8.779  13.712  70.248  1.00  0.00     3.443 C  
ENDROOT
BRANCH   2   3
HETATM    3  C   UNL     1      -9.730  14.840  70.635  1.00  0.00     1.359 C  
BRANCH   3   4
HETATM    4  O   UNL     1      -9.965  15.716  69.534  1.00  0.00    -0.253 OA 
HETATM    5  C   UNL     1      -8.975  15.669  68.451  1.00  0.00    -0.185 C  
HETATM    6  C   UNL     1      -8.951  14.203  67.889  1.00  0.00    -0.185 A  
HETATM    7  C   UNL     1      -9.447  16.728  67.345  1.00  0.00    -0.236 C  
HETATM    8  C   UNL     1      -7.596  16.221  68.961  1.00  0.00    -0.219 A  
HETATM    9  C   UNL     1      -9.762  13.791  66.820  1.00  0.00    -0.277 A  
HETATM   10  C   UNL     1      -8.076  11.896  67.994  1.00  0.00    -0.151 A  
HETATM   11  C   UNL     1      -6.366  15.579  68.724  1.00  0.00    -0.103 A  
HETATM   12  O   UNL     1      -9.199  16.666  66.143  1.00  0.00    -0.300 OA 
HETATM   13  C   UNL     1      -5.182  16.017  69.319  1.00  0.00    -0.110 A  
HETATM   14  C   UNL     1      -8.164  13.190  68.500  1.00  0.00    -0.076 A  
HETATM   15  C   UNL     1      -9.694  12.481  66.320  1.00  0.00    -0.259 A  
HETATM   16  C   UNL     1      -8.827  11.544  66.886  1.00  0.00    -0.182 A  
HETATM   17  C   UNL     1      -5.169  17.195  70.052  1.00  0.00    -0.202 A  
HETATM   18  C   UNL     1      -7.547  17.435  69.674  1.00  0.00     0.589 A  
HETATM   19  C   UNL     1      -6.345  17.927  70.190  1.00  0.00     0.199 A  
BRANCH   7  20
HETATM   20  O   UNL     1     -10.086  17.806  67.917  1.00  0.00    -0.308 OA 
BRANCH  20  21
HETATM   21  C   UNL     1      -9.900  19.112  67.317  1.00  0.00    -0.334 C  
HETATM   22  C   UNL     1      -8.827  19.917  68.052  1.00  0.00    -0.335 C  
HETATM   23  N   UNL     1      -7.030  19.009  66.544  1.00  0.00    -0.204 NA 
HETATM   24  C   UNL     1      -7.460  19.243  67.926  1.00  0.00    -0.259 C  
HETATM   25  C   UNL     1      -6.563  20.224  65.886  1.00  0.00    -0.238 C  
HETATM   26  C   UNL     1      -8.058  18.297  65.773  1.00  0.00     0.215 C  
HETATM   27  C   UNL     1      -9.458  18.912  65.862  1.00  0.00     0.088 C  
ENDBRANCH  20  21
ENDBRANCH   7  20
ENDBRANCH   3   4
ENDBRANCH   2   3
TORSDOF 4
ENDMDL
MODEL      153
REMARK 921   NORMALIZED FREE ENERGY PREDICTED BY IDOCK:   23.90 KCAL/MOL
REMARK 922        TOTAL FREE ENERGY PREDICTED BY IDOCK:   28.18 KCAL/MOL
REMARK 923 INTER-LIGAND FREE ENERGY PREDICTED BY IDOCK:    0.19 KCAL/MOL
REMARK 924 INTRA-LIGAND FREE ENERGY PREDICTED BY IDOCK:   27.99 KCAL/MOL
REMARK 927      BINDING AFFINITY PREDICTED BY RF-SCORE:    0.00 PKD
ROOT
HETATM    1  C   UNL     1     -11.554  14.295  65.973  1.00  0.00    -0.362 C  
HETATM    2  C   UNL     1     -10.303  14.407  65.108  1.00  0.00    -0.447 C  
ENDROOT
BRANCH   2   3
HETATM    3  C   UNL     1      -9.457  15.588  65.572  1.00  0.00    -0.133 C  
BRANCH   3   4
HETATM    4  O   UNL     1      -9.427  15.674  66.995  1.00  0.00    -0.216 OA 
HETATM    5  C   UNL     1      -8.108  15.525  67.621  1.00  0.00    -0.146 C  
HETATM    6  C   UNL     1      -7.183  16.663  67.062  1.00  0.00    -0.236 A  
HETATM    7  C   UNL     1      -8.328  15.655  69.204  1.00  0.00    -0.251 C  
HETATM    8  C   UNL     1      -7.579  14.060  67.416  1.00  0.00    -0.167 A  
HETATM    9  C   UNL     1      -7.056  17.912  67.691  1.00  0.00    -0.202 A  
HETATM   10  C   UNL     1      -5.618  17.479  65.334  1.00  0.00     0.395 A  
HETATM   11  C   UNL     1      -6.272  13.758  66.992  1.00  0.00     1.036 A  
HETATM   12  O   UNL     1      -7.493  16.050  70.012  1.00  0.00     0.166 OA 
HETATM   13  C   UNL     1      -5.885  12.455  66.677  1.00  0.00     0.632 A  
HETATM   14  C   UNL     1      -6.489  16.513  65.831  1.00  0.00     1.588 A  
HETATM   15  C   UNL     1      -6.195  18.897  67.182  1.00  0.00    -0.175 A  
HETATM   16  C   UNL     1      -5.452  18.668  66.023  1.00  0.00    -0.193 A  
HETATM   17  C   UNL     1      -6.751  11.397  66.915  1.00  0.00    -0.145 A  
HETATM   18  C   UNL     1      -8.423  12.966  67.688  1.00  0.00    -0.183 A  
HETATM   19  C   UNL     1      -8.005  11.651  67.464  1.00  0.00    -0.141 A  
BRANCH   7  20
HETATM   20  O   UNL     1      -9.554  15.154  69.586  1.00  0.00    -0.205 OA 
BRANCH  20  21
HETATM   21  C   UNL     1     -10.716  15.509  68.797  1.00  0.00    -0.249 C  
HETATM   22  C   UNL     1     -11.441  16.721  69.384  1.00  0.00     0.309 C  
HETATM   23  N   UNL     1     -10.061  18.296  67.990  1.00  0.00    -0.345 NA 
HETATM   24  C   UNL     1     -10.553  17.964  69.331  1.00  0.00     0.386 C  
HETATM   25  C   UNL     1     -11.083  18.912  67.152  1.00  0.00    -0.010 C  
HETATM   26  C   UNL     1      -9.415  17.141  67.352  1.00  0.00    -0.247 C  
HETATM   27  C   UNL     1     -10.246  15.853  67.378  1.00  0.00    -0.270 C  
ENDBRANCH  20  21
ENDBRANCH   7  20
ENDBRANCH   3   4
ENDBRANCH   2   3
TORSDOF 4
ENDMDL
MODEL      154
REMARK 921   NORMALIZED FREE ENERGY PREDICTED BY IDOCK:   24.09 KCAL/MOL
REMARK 922        TOTAL FREE ENERGY PREDICTED BY IDOCK:   28.43 KCAL/MOL
REMARK 923 INTER-LIGAND FREE ENERGY PREDICTED BY IDOCK:   10.89 KCAL/MOL
REMARK 924 INTRA-LIGAND FREE ENERGY PREDICTED BY IDOCK:   17.54 KCAL/MOL
REMARK 927      BINDING AFFINITY PREDICTED BY RF-SCORE:    0.00 PKD
ROOT
HETATM    1  C   UNL     1     -11.083  17.550  71.137  1.00  0.00     1.847 C  
HETATM    2  C   UNL     1     -10.060  16.751  70.336  1.00  0.00     1.117 C  
ENDROOT
BRANCH   2   3
HETATM    3  C   UNL     1     -10.773  15.734  69.452  1.00  0.00    -0.266 C  
BRANCH   3   4
HETATM    4  O   UNL     1     -11.242  16.337  68.247  1.00  0.00    -0.352 OA 
HETATM    5  C   UNL     1     -10.389  16.162  67.066  1.00  0.00    -0.290 C  
HETATM    6  C   UNL     1     -10.252  14.622  66.799  1.00  0.00    -0.268 A  
HETATM    7  C   UNL     1     -11.115  16.919  65.854  1.00  0.00     0.289 C  
HETATM    8  C   UNL     1      -9.037  16.938  67.261  1.00  0.00    -0.225 A  
HETATM    9  C   UNL     1     -11.127  13.920  65.954  1.00  0.00    -0.291 A  
HETATM   10  C   UNL     1      -9.095  12.481  67.222  1.00  0.00    -0.189 A  
HETATM   11  C   UNL     1      -7.775  16.383  66.982  1.00  0.00    -0.250 A  
HETATM   12  O   UNL     1     -11.005  16.635  64.664  1.00  0.00    -0.793 OA 
HETATM   13  C   UNL     1      -6.592  17.047  67.309  1.00  0.00    -0.195 A  
HETATM   14  C   UNL     1      -9.280  13.838  67.476  1.00  0.00    -0.216 A  
HETATM   15  C   UNL     1     -10.958  12.548  65.710  1.00  0.00    -0.327 A  
HETATM   16  C   UNL     1      -9.923  11.836  66.319  1.00  0.00    -0.246 A  
HETATM   17  C   UNL     1      -6.637  18.347  67.793  1.00  0.00    -0.213 A  
HETATM   18  C   UNL     1      -9.054  18.272  67.713  1.00  0.00    -0.273 A  
HETATM   19  C   UNL     1      -7.869  18.974  67.950  1.00  0.00    -0.301 A  
BRANCH   7  20
HETATM   20  O   UNL     1     -11.809  18.026  66.292  1.00  0.00     2.206 OA 
BRANCH  20  21
HETATM   21  C   UNL     1     -11.058  19.121  66.872  1.00  0.00    -0.050 C  
HETATM   22  C   UNL     1      -9.550  18.896  66.740  1.00  0.00    -0.354 C  
HETATM   23  N   UNL     1      -9.507  20.088  64.525  1.00  0.00     2.497 NA 
HETATM   24  C   UNL     1      -9.129  18.883  65.270  1.00  0.00     1.830 C  
HETATM   25  C   UNL     1      -8.650  21.229  64.827  1.00  0.00     2.888 C  
HETATM   26  C   UNL     1     -10.937  20.389  64.676  1.00  0.00     1.651 C  
HETATM   27  C   UNL     1     -11.432  20.407  66.127  1.00  0.00     1.662 C  
ENDBRANCH  20  21
ENDBRANCH   7  20
ENDBRANCH   3   4
ENDBRANCH   2   3
TORSDOF 4
ENDMDL
MODEL      155
REMARK 921   NORMALIZED FREE ENERGY PREDICTED BY IDOCK:   27.93 KCAL/MOL
REMARK 922        TOTAL FREE ENERGY PREDICTED BY IDOCK:   33.16 KCAL/MOL
REMARK 923 INTER-LIGAND FREE ENERGY PREDICTED BY IDOCK:   20.50 KCAL/MOL
REMARK 924 INTRA-LIGAND FREE ENERGY PREDICTED BY IDOCK:   12.66 KCAL/MOL
REMARK 927      BINDING AFFINITY PREDICTED BY RF-SCORE:    0.00 PKD
ROOT
HETATM    1  C   UNL     1     -11.565  14.300  66.041  1.00  0.00    -0.362 C  
HETATM    2  C   UNL     1     -10.298  14.609  65.249  1.00  0.00    -0.425 C  
ENDROOT
BRANCH   2   3
HETATM    3  C   UNL     1      -9.513  15.719  65.939  1.00  0.00    -0.342 C  
BRANCH   3   4
HETATM    4  O   UNL     1      -9.382  15.466  67.337  1.00  0.00    -0.198 OA 
HETATM    5  C   UNL     1      -8.010  15.348  67.844  1.00  0.00    -0.135 C  
HETATM    6  C   UNL     1      -7.270  16.698  67.539  1.00  0.00    -0.169 A  
HETATM    7  C   UNL     1      -8.120  15.066  69.418  1.00  0.00    -0.155 C  
HETATM    8  C   UNL     1      -7.332  14.057  67.259  1.00  0.00    -0.022 A  
HETATM    9  C   UNL     1      -7.241  17.767  68.449  1.00  0.00    -0.250 A  
HETATM   10  C   UNL     1      -5.951  18.101  65.993  1.00  0.00    -0.243 A  
HETATM   11  C   UNL     1      -6.036  14.040  66.712  1.00  0.00     2.163 A  
HETATM   12  O   UNL     1      -7.275  15.364  70.259  1.00  0.00     0.054 OA 
HETATM   13  C   UNL     1      -5.525  12.912  66.068  1.00  0.00     3.751 A  
HETATM   14  C   UNL     1      -6.662  16.939  66.277  1.00  0.00    -0.034 A  
HETATM   15  C   UNL     1      -6.543  18.949  68.159  1.00  0.00    -0.242 A  
HETATM   16  C   UNL     1      -5.871  19.103  66.945  1.00  0.00    -0.159 A  
HETATM   17  C   UNL     1      -6.241  11.723  66.078  1.00  0.00     0.781 A  
HETATM   18  C   UNL     1      -8.019  12.828  67.293  1.00  0.00    -0.156 A  
HETATM   19  C   UNL     1      -7.469  11.672  66.732  1.00  0.00    -0.091 A  
BRANCH   7  20
HETATM   20  O   UNL     1      -9.245  14.332  69.722  1.00  0.00     0.567 OA 
BRANCH  20  21
HETATM   21  C   UNL     1      -9.085  13.128  70.513  1.00  0.00     6.131 C  
HETATM   22  C   UNL     1      -8.817  11.910  69.629  1.00  0.00     1.602 C  
HETATM   23  N   UNL     1      -6.334  12.284  69.765  1.00  0.00    -0.121 NA 
HETATM   24  C   UNL     1      -7.488  12.057  68.889  1.00  0.00    -0.043 C  
HETATM   25  C   UNL     1      -5.895  11.070  70.445  1.00  0.00    -0.137 C  
HETATM   26  C   UNL     1      -6.568  13.404  70.686  1.00  0.00     0.685 C  
HETATM   27  C   UNL     1      -7.892  13.328  71.455  1.00  0.00     8.047 C  
ENDBRANCH  20  21
ENDBRANCH   7  20
ENDBRANCH   3   4
ENDBRANCH   2   3
TORSDOF 4
ENDMDL
MODEL      156
REMARK 921   NORMALIZED FREE ENERGY PREDICTED BY IDOCK:   32.64 KCAL/MOL
REMARK 922        TOTAL FREE ENERGY PREDICTED BY IDOCK:   38.97 KCAL/MOL
REMARK 923 INTER-LIGAND FREE ENERGY PREDICTED BY IDOCK:   18.29 KCAL/MOL
REMARK 924 INTRA-LIGAND FREE ENERGY PREDICTED BY IDOCK:   20.68 KCAL/MOL
REMARK 927      BINDING AFFINITY PREDICTED BY RF-SCORE:    0.00 PKD
ROOT
HETATM    1  C   UNL     1     -11.656  12.704  71.461  1.00  0.00     2.299 C  
HETATM    2  C   UNL     1     -10.607  11.769  72.054  1.00  0.00    10.033 C  
ENDROOT
BRANCH   2   3
HETATM    3  C   UNL     1      -9.494  11.529  71.040  1.00  0.00     7.534 C  
BRANCH   3   4
HETATM    4  O   UNL     1     -10.008  10.966  69.834  1.00  0.00     0.113 OA 
HETATM    5  C   UNL     1     -11.440  11.176  69.585  1.00  0.00    -0.310 C  
HETATM    6  C   UNL     1     -11.692  12.724  69.527  1.00  0.00    -0.383 A  
HETATM    7  C   UNL     1     -11.777  10.461  68.191  1.00  0.00     0.211 C  
HETATM    8  C   UNL     1     -12.289  10.391  70.647  1.00  0.00    -0.438 A  
HETATM    9  C   UNL     1     -11.638  13.455  68.330  1.00  0.00    -0.379 A  
HETATM   10  C   UNL     1     -12.185  14.846  70.691  1.00  0.00    -0.379 A  
HETATM   11  C   UNL     1     -13.378  10.951  71.340  1.00  0.00    -0.216 A  
HETATM   12  O   UNL     1     -12.679  10.783  67.422  1.00  0.00     2.696 OA 
HETATM   13  C   UNL     1     -14.014  10.273  72.382  1.00  0.00     0.290 A  
HETATM   14  C   UNL     1     -11.903  13.483  70.710  1.00  0.00    -0.118 A  
HETATM   15  C   UNL     1     -11.901  14.834  68.307  1.00  0.00    -0.316 A  
HETATM   16  C   UNL     1     -12.207  15.523  69.482  1.00  0.00    -0.264 A  
HETATM   17  C   UNL     1     -13.671   8.959  72.665  1.00  0.00    -0.400 A  
HETATM   18  C   UNL     1     -11.990   9.043  70.926  1.00  0.00    -0.274 A  
HETATM   19  C   UNL     1     -12.689   8.330  71.904  1.00  0.00    -0.373 A  
BRANCH   7  20
HETATM   20  O   UNL     1     -10.997   9.343  67.995  1.00  0.00    -0.183 OA 
BRANCH  20  21
HETATM   21  C   UNL     1      -9.576   9.527  67.778  1.00  0.00    -0.133 C  
HETATM   22  C   UNL     1      -9.053   8.594  66.685  1.00  0.00    -0.203 C  
HETATM   23  N   UNL     1      -9.510  10.319  64.912  1.00  0.00    -0.253 NA 
HETATM   24  C   UNL     1      -9.689   8.927  65.335  1.00  0.00     0.197 C  
HETATM   25  C   UNL     1      -8.164  10.588  64.416  1.00  0.00    -0.068 C  
HETATM   26  C   UNL     1      -9.934  11.259  65.958  1.00  0.00    -0.231 C  
HETATM   27  C   UNL     1      -9.341  10.978  67.343  1.00  0.00    -0.165 C  
ENDBRANCH  20  21
ENDBRANCH   7  20
ENDBRANCH   3   4
ENDBRANCH   2   3
TORSDOF 4
ENDMDL
MODEL      157
REMARK 921   NORMALIZED FREE ENERGY PREDICTED BY IDOCK:   42.82 KCAL/MOL
REMARK 922        TOTAL FREE ENERGY PREDICTED BY IDOCK:   51.53 KCAL/MOL
REMARK 923 INTER-LIGAND FREE ENERGY PREDICTED BY IDOCK:   19.02 KCAL/MOL
REMARK 924 INTRA-LIGAND FREE ENERGY PREDICTED BY IDOCK:   32.50 KCAL/MOL
REMARK 927      BINDING AFFINITY PREDICTED BY RF-SCORE:    0.00 PKD
ROOT
HETATM    1  C   UNL     1      -8.670  13.663  71.639  1.00  0.00    10.908 C  
HETATM    2  C   UNL     1      -9.320  13.849  70.271  1.00  0.00     2.780 C  
ENDROOT
BRANCH   2   3
HETATM    3  C   UNL     1     -10.552  14.737  70.399  1.00  0.00     0.158 C  
BRANCH   3   4
HETATM    4  O   UNL     1     -11.190  14.917  69.136  1.00  0.00    -0.251 OA 
HETATM    5  C   UNL     1     -10.327  14.793  67.955  1.00  0.00    -0.237 C  
HETATM    6  C   UNL     1      -9.706  13.352  67.967  1.00  0.00    -0.222 A  
HETATM    7  C   UNL     1     -11.258  15.036  66.673  1.00  0.00    -0.311 C  
HETATM    8  C   UNL     1      -9.293  15.975  67.921  1.00  0.00    -0.208 A  
HETATM    9  C   UNL     1     -10.312  12.262  67.321  1.00  0.00    -0.228 A  
HETATM   10  C   UNL     1      -7.926  11.806  68.702  1.00  0.00    -0.116 A  
HETATM   11  C   UNL     1      -7.920  15.800  67.669  1.00  0.00    -0.163 A  
HETATM   12  O   UNL     1     -11.063  14.575  65.550  1.00  0.00    -0.316 OA 
HETATM   13  C   UNL     1      -7.010  16.851  67.795  1.00  0.00    -0.156 A  
HETATM   14  C   UNL     1      -8.534  13.058  68.714  1.00  0.00     0.149 A  
HETATM   15  C   UNL     1      -9.714  10.992  67.322  1.00  0.00    -0.188 A  
HETATM   16  C   UNL     1      -8.505  10.772  67.985  1.00  0.00    -0.124 A  
HETATM   17  C   UNL     1      -7.467  18.139  68.034  1.00  0.00    -0.242 A  
HETATM   18  C   UNL     1      -9.734  17.298  68.120  1.00  0.00    -0.284 A  
HETATM   19  C   UNL     1      -8.835  18.368  68.151  1.00  0.00    -0.319 A  
BRANCH   7  20
HETATM   20  O   UNL     1     -12.267  15.932  66.944  1.00  0.00     0.927 OA 
BRANCH  20  21
HETATM   21  C   UNL     1     -12.263  17.201  66.245  1.00  0.00     3.994 C  
HETATM   22  C   UNL     1     -11.530  18.278  67.047  1.00  0.00     1.128 C  
HETATM   23  N   UNL     1      -9.348  17.703  65.937  1.00  0.00    -0.524 NA 
HETATM   24  C   UNL     1     -10.051  17.927  67.204  1.00  0.00    -0.340 C  
HETATM   25  C   UNL     1      -9.044  18.944  65.233  1.00  0.00     1.830 C  
HETATM   26  C   UNL     1     -10.051  16.724  65.096  1.00  0.00     0.411 C  
HETATM   27  C   UNL     1     -11.545  17.009  64.904  1.00  0.00     0.969 C  
ENDBRANCH  20  21
ENDBRANCH   7  20
ENDBRANCH   3   4
ENDBRANCH   2   3
TORSDOF 4
ENDMDL
MODEL      158
REMARK 921   NORMALIZED FREE ENERGY PREDICTED BY IDOCK:   64.62 KCAL/MOL
REMARK 922        TOTAL FREE ENERGY PREDICTED BY IDOCK:   78.43 KCAL/MOL
REMARK 923 INTER-LIGAND FREE ENERGY PREDICTED BY IDOCK:   55.65 KCAL/MOL
REMARK 924 INTRA-LIGAND FREE ENERGY PREDICTED BY IDOCK:   22.78 KCAL/MOL
REMARK 927      BINDING AFFINITY PREDICTED BY RF-SCORE:    0.00 PKD
ROOT
HETATM    1  C   UNL     1      -9.495  13.733  64.326  1.00  0.00     2.103 C  
HETATM    2  C   UNL     1     -10.090  14.689  65.355  1.00  0.00    -0.403 C  
ENDROOT
BRANCH   2   3
HETATM    3  C   UNL     1      -9.583  14.334  66.748  1.00  0.00    -0.280 C  
BRANCH   3   4
HETATM    4  O   UNL     1      -8.914  15.440  67.350  1.00  0.00    -0.182 OA 
HETATM    5  C   UNL     1      -9.445  15.886  68.644  1.00  0.00    -0.214 C  
HETATM    6  C   UNL     1      -9.350  14.679  69.642  1.00  0.00     0.298 A  
HETATM    7  C   UNL     1      -8.542  17.125  69.113  1.00  0.00     0.013 C  
HETATM    8  C   UNL     1     -10.880  16.495  68.453  1.00  0.00    -0.348 A  
HETATM    9  C   UNL     1      -8.232  14.464  70.464  1.00  0.00     2.063 A  
HETATM   10  C   UNL     1     -10.337  12.632  70.608  1.00  0.00     4.368 A  
HETATM   11  C   UNL     1     -11.976  16.176  69.276  1.00  0.00    -0.086 A  
HETATM   12  O   UNL     1      -8.342  17.464  70.277  1.00  0.00     2.229 OA 
HETATM   13  C   UNL     1     -13.267  16.619  68.986  1.00  0.00     4.459 A  
HETATM   14  C   UNL     1     -10.363  13.684  69.697  1.00  0.00     0.560 A  
HETATM   15  C   UNL     1      -8.191  13.392  71.370  1.00  0.00     9.429 A  
HETATM   16  C   UNL     1      -9.258  12.496  71.465  1.00  0.00    16.535 A  
HETATM   17  C   UNL     1     -13.476  17.513  67.945  1.00  0.00     8.179 A  
HETATM   18  C   UNL     1     -11.113  17.436  67.430  1.00  0.00     0.093 A  
HETATM   19  C   UNL     1     -12.389  17.956  67.197  1.00  0.00     4.466 A  
BRANCH   7  20
HETATM   20  O   UNL     1      -8.093  17.859  68.038  1.00  0.00    -0.238 OA 
BRANCH  20  21
HETATM   21  C   UNL     1      -9.011  18.108  66.945  1.00  0.00    -0.271 C  
HETATM   22  C   UNL     1     -10.464  18.105  67.425  1.00  0.00    -0.414 C  
HETATM   23  N   UNL     1     -10.383  20.579  67.871  1.00  0.00    -0.176 NA 
HETATM   24  C   UNL     1     -10.716  19.254  68.402  1.00  0.00     0.086 C  
HETATM   25  C   UNL     1     -11.380  21.076  66.929  1.00  0.00     4.005 C  
HETATM   26  C   UNL     1      -9.016  20.616  67.332  1.00  0.00    -0.232 C  
HETATM   27  C   UNL     1      -8.690  19.484  66.351  1.00  0.00    -0.389 C  
ENDBRANCH  20  21
ENDBRANCH   7  20
ENDBRANCH   3   4
ENDBRANCH   2   3
TORSDOF 4
ENDMDL
