MODEL        1
REMARK 921   NORMALIZED FREE ENERGY PREDICTED BY IDOCK:   -6.43 KCAL/MOL
REMARK 922        TOTAL FREE ENERGY PREDICTED BY IDOCK:   -9.36 KCAL/MOL
REMARK 923 INTER-LIGAND FREE ENERGY PREDICTED BY IDOCK:   -8.68 KCAL/MOL
REMARK 924 INTRA-LIGAND FREE ENERGY PREDICTED BY IDOCK:   -0.68 KCAL/MOL
REMARK 927      BINDING AFFINITY PREDICTED BY RF-SCORE:    0.00 PKD
ROOT
HETATM    1  C   UNL     1     -10.247  10.817  64.405  1.00  0.00    -0.432 C  
HETATM    2  C   UNL     1     -10.662  12.007  63.539  1.00  0.00    -0.455 C  
HETATM    3  C   UNL     1     -12.180  12.000  63.344  1.00  0.00    -0.627 C  
ENDROOT
BRANCH   2   4
HETATM    4  N   UNL     1     -10.206  13.232  64.200  1.00  0.00    -0.724 NA 
HETATM    5  H   UNL     1      -9.456  13.672  63.668  1.00  0.00     0.000 HD 
BRANCH   4   6
HETATM    6  C   UNL     1     -11.289  14.188  64.466  1.00  0.00    -0.348 C  
BRANCH   6   7
HETATM    7  C   UNL     1     -10.693  15.515  64.957  1.00  0.00    -0.441 C  
HETATM    8  O   UNL     1     -11.345  16.614  64.301  1.00  0.00    -1.304 OA 
HETATM    9  H   UNL     1     -10.976  17.435  64.605  1.00  0.00     0.000 HD 
BRANCH   7  10
HETATM   10  C   UNL     1     -10.824  15.670  66.476  1.00  0.00    -0.260 C  
BRANCH  10  11
HETATM   11  O   UNL     1     -10.990  14.384  67.098  1.00  0.00    -0.291 OA 
BRANCH  11  12
HETATM   12  C   UNL     1     -11.502  14.425  68.379  1.00  0.00    -0.301 A  
HETATM   13  C   UNL     1     -11.832  15.631  69.011  1.00  0.00    -0.379 A  
HETATM   14  C   UNL     1     -12.347  15.642  70.302  1.00  0.00    -0.402 A  
HETATM   15  C   UNL     1     -12.566  14.444  70.970  1.00  0.00    -0.419 A  
HETATM   16  C   UNL     1     -12.286  13.218  70.351  1.00  0.00    -0.404 A  
HETATM   17  C   UNL     1     -11.746  13.190  69.039  1.00  0.00    -0.367 A  
HETATM   18  C   UNL     1     -11.480  11.922  68.471  1.00  0.00    -0.349 A  
HETATM   19  C   UNL     1     -11.745  10.736  69.165  1.00  0.00    -0.368 A  
HETATM   20  C   UNL     1     -12.282  10.786  70.448  1.00  0.00    -0.437 A  
HETATM   21  C   UNL     1     -12.546  12.020  71.036  1.00  0.00    -0.370 A  
ENDBRANCH  11  12
ENDBRANCH  10  11
ENDBRANCH   7  10
ENDBRANCH   6   7
ENDBRANCH   4   6
ENDBRANCH   2   4
TORSDOF 6
ENDMDL
MODEL        2
REMARK 921   NORMALIZED FREE ENERGY PREDICTED BY IDOCK:   -6.22 KCAL/MOL
REMARK 922        TOTAL FREE ENERGY PREDICTED BY IDOCK:   -9.08 KCAL/MOL
REMARK 923 INTER-LIGAND FREE ENERGY PREDICTED BY IDOCK:   -8.67 KCAL/MOL
REMARK 924 INTRA-LIGAND FREE ENERGY PREDICTED BY IDOCK:   -0.41 KCAL/MOL
REMARK 927      BINDING AFFINITY PREDICTED BY RF-SCORE:    0.00 PKD
ROOT
HETATM    1  C   UNL     1     -10.493  11.685  63.249  1.00  0.00    -0.438 C  
HETATM    2  C   UNL     1     -11.765  12.064  64.009  1.00  0.00    -0.410 C  
HETATM    3  C   UNL     1     -11.492  12.041  65.515  1.00  0.00    -0.368 C  
ENDROOT
BRANCH   2   4
HETATM    4  N   UNL     1     -12.190  13.389  63.554  1.00  0.00    -0.861 NA 
HETATM    5  H   UNL     1     -13.076  13.333  63.053  1.00  0.00     0.000 HD 
BRANCH   4   6
HETATM    6  C   UNL     1     -12.265  14.380  64.637  1.00  0.00    -0.464 C  
BRANCH   6   7
HETATM    7  C   UNL     1     -11.136  15.408  64.471  1.00  0.00    -0.256 C  
HETATM    8  O   UNL     1     -11.634  16.573  63.794  1.00  0.00    -1.617 OA 
HETATM    9  H   UNL     1     -10.936  17.208  63.692  1.00  0.00     0.000 HD 
BRANCH   7  10
HETATM   10  C   UNL     1     -10.535  15.813  65.821  1.00  0.00    -0.367 C  
BRANCH  10  11
HETATM   11  O   UNL     1      -9.392  16.662  65.626  1.00  0.00    -0.502 OA 
BRANCH  11  12
HETATM   12  C   UNL     1      -9.420  17.842  66.342  1.00  0.00    -0.264 A  
HETATM   13  C   UNL     1     -10.478  18.754  66.232  1.00  0.00    -0.489 A  
HETATM   14  C   UNL     1     -10.481  19.934  66.967  1.00  0.00    -0.570 A  
HETATM   15  C   UNL     1      -9.438  20.207  67.843  1.00  0.00    -0.438 A  
HETATM   16  C   UNL     1      -8.385  19.297  68.007  1.00  0.00    -0.350 A  
HETATM   17  C   UNL     1      -8.360  18.093  67.255  1.00  0.00    -0.244 A  
HETATM   18  C   UNL     1      -7.268  17.218  67.461  1.00  0.00    -0.180 A  
HETATM   19  C   UNL     1      -6.253  17.514  68.378  1.00  0.00    -0.175 A  
HETATM   20  C   UNL     1      -6.301  18.696  69.112  1.00  0.00    -0.274 A  
HETATM   21  C   UNL     1      -7.359  19.581  68.923  1.00  0.00    -0.398 A  
ENDBRANCH  11  12
ENDBRANCH  10  11
ENDBRANCH   7  10
ENDBRANCH   6   7
ENDBRANCH   4   6
ENDBRANCH   2   4
TORSDOF 6
ENDMDL
MODEL        3
REMARK 921   NORMALIZED FREE ENERGY PREDICTED BY IDOCK:   -6.15 KCAL/MOL
REMARK 922        TOTAL FREE ENERGY PREDICTED BY IDOCK:   -8.99 KCAL/MOL
REMARK 923 INTER-LIGAND FREE ENERGY PREDICTED BY IDOCK:   -8.36 KCAL/MOL
REMARK 924 INTRA-LIGAND FREE ENERGY PREDICTED BY IDOCK:   -0.63 KCAL/MOL
REMARK 927      BINDING AFFINITY PREDICTED BY RF-SCORE:    0.00 PKD
ROOT
HETATM    1  C   UNL     1      -8.857  16.803  66.300  1.00  0.00    -0.334 C  
HETATM    2  C   UNL     1     -10.326  17.197  66.145  1.00  0.00    -0.322 C  
HETATM    3  C   UNL     1     -10.445  18.720  66.052  1.00  0.00    -0.483 C  
ENDROOT
BRANCH   2   4
HETATM    4  N   UNL     1     -10.850  16.538  64.947  1.00  0.00    -0.702 NA 
HETATM    5  H   UNL     1     -10.432  16.933  64.105  1.00  0.00     0.000 HD 
BRANCH   4   6
HETATM    6  C   UNL     1     -10.696  15.077  64.970  1.00  0.00    -0.427 C  
BRANCH   6   7
HETATM    7  C   UNL     1     -12.074  14.414  64.833  1.00  0.00    -0.436 C  
HETATM    8  O   UNL     1     -12.327  14.099  63.454  1.00  0.00    -1.109 OA 
HETATM    9  H   UNL     1     -13.179  13.688  63.369  1.00  0.00     0.000 HD 
BRANCH   7  10
HETATM   10  C   UNL     1     -12.178  13.141  65.680  1.00  0.00    -0.466 C  
BRANCH  10  11
HETATM   11  O   UNL     1     -11.105  13.085  66.635  1.00  0.00    -0.278 OA 
BRANCH  11  12
HETATM   12  C   UNL     1     -11.463  12.601  67.877  1.00  0.00    -0.309 A  
HETATM   13  C   UNL     1     -11.486  11.229  68.163  1.00  0.00    -0.376 A  
HETATM   14  C   UNL     1     -11.850  10.770  69.423  1.00  0.00    -0.370 A  
HETATM   15  C   UNL     1     -12.171  11.677  70.425  1.00  0.00    -0.434 A  
HETATM   16  C   UNL     1     -12.118  13.057  70.184  1.00  0.00    -0.377 A  
HETATM   17  C   UNL     1     -11.762  13.542  68.899  1.00  0.00    -0.379 A  
HETATM   18  C   UNL     1     -11.732  14.945  68.717  1.00  0.00    -0.353 A  
HETATM   19  C   UNL     1     -12.031  15.827  69.762  1.00  0.00    -0.337 A  
HETATM   20  C   UNL     1     -12.370  15.331  71.016  1.00  0.00    -0.426 A  
HETATM   21  C   UNL     1     -12.417  13.954  71.222  1.00  0.00    -0.440 A  
ENDBRANCH  11  12
ENDBRANCH  10  11
ENDBRANCH   7  10
ENDBRANCH   6   7
ENDBRANCH   4   6
ENDBRANCH   2   4
TORSDOF 6
ENDMDL
MODEL        4
REMARK 921   NORMALIZED FREE ENERGY PREDICTED BY IDOCK:   -6.15 KCAL/MOL
REMARK 922        TOTAL FREE ENERGY PREDICTED BY IDOCK:   -8.98 KCAL/MOL
REMARK 923 INTER-LIGAND FREE ENERGY PREDICTED BY IDOCK:   -8.38 KCAL/MOL
REMARK 924 INTRA-LIGAND FREE ENERGY PREDICTED BY IDOCK:   -0.60 KCAL/MOL
REMARK 927      BINDING AFFINITY PREDICTED BY RF-SCORE:    0.00 PKD
ROOT
HETATM    1  C   UNL     1     -10.022  10.346  64.718  1.00  0.00    -0.409 C  
HETATM    2  C   UNL     1     -10.010  11.383  63.595  1.00  0.00    -0.364 C  
HETATM    3  C   UNL     1      -8.880  11.065  62.612  1.00  0.00    -0.334 C  
ENDROOT
BRANCH   2   4
HETATM    4  N   UNL     1     -11.320  11.361  62.941  1.00  0.00    -0.710 NA 
HETATM    5  H   UNL     1     -11.566  10.413  62.655  1.00  0.00     0.000 HD 
BRANCH   4   6
HETATM    6  C   UNL     1     -12.388  11.954  63.756  1.00  0.00    -0.434 C  
BRANCH   6   7
HETATM    7  C   UNL     1     -11.992  13.380  64.164  1.00  0.00    -0.450 C  
HETATM    8  O   UNL     1     -12.510  14.321  63.210  1.00  0.00    -1.133 OA 
HETATM    9  H   UNL     1     -12.265  15.203  63.463  1.00  0.00     0.000 HD 
BRANCH   7  10
HETATM   10  C   UNL     1     -12.502  13.732  65.566  1.00  0.00    -0.512 C  
BRANCH  10  11
HETATM   11  O   UNL     1     -11.413  13.754  66.504  1.00  0.00    -0.324 OA 
BRANCH  11  12
HETATM   12  C   UNL     1     -11.651  13.071  67.680  1.00  0.00    -0.355 A  
HETATM   13  C   UNL     1     -11.639  11.671  67.743  1.00  0.00    -0.359 A  
HETATM   14  C   UNL     1     -11.882  11.009  68.940  1.00  0.00    -0.378 A  
HETATM   15  C   UNL     1     -12.114  11.739  70.100  1.00  0.00    -0.398 A  
HETATM   16  C   UNL     1     -12.093  13.140  70.080  1.00  0.00    -0.375 A  
HETATM   17  C   UNL     1     -11.860  13.831  68.862  1.00  0.00    -0.396 A  
HETATM   18  C   UNL     1     -11.856  15.245  68.905  1.00  0.00    -0.344 A  
HETATM   19  C   UNL     1     -12.061  15.944  70.101  1.00  0.00    -0.277 A  
HETATM   20  C   UNL     1     -12.279  15.247  71.285  1.00  0.00    -0.408 A  
HETATM   21  C   UNL     1     -12.299  13.855  71.271  1.00  0.00    -0.419 A  
ENDBRANCH  11  12
ENDBRANCH  10  11
ENDBRANCH   7  10
ENDBRANCH   6   7
ENDBRANCH   4   6
ENDBRANCH   2   4
TORSDOF 6
ENDMDL
MODEL        5
REMARK 921   NORMALIZED FREE ENERGY PREDICTED BY IDOCK:   -6.11 KCAL/MOL
REMARK 922        TOTAL FREE ENERGY PREDICTED BY IDOCK:   -8.93 KCAL/MOL
REMARK 923 INTER-LIGAND FREE ENERGY PREDICTED BY IDOCK:   -8.09 KCAL/MOL
REMARK 924 INTRA-LIGAND FREE ENERGY PREDICTED BY IDOCK:   -0.84 KCAL/MOL
REMARK 927      BINDING AFFINITY PREDICTED BY RF-SCORE:    0.00 PKD
ROOT
HETATM    1  C   UNL     1      -9.801   8.025  71.128  1.00  0.00    -0.198 C  
HETATM    2  C   UNL     1     -10.773   7.096  70.401  1.00  0.00    -0.235 C  
HETATM    3  C   UNL     1     -10.719   5.701  71.028  1.00  0.00    -0.304 C  
ENDROOT
BRANCH   2   4
HETATM    4  N   UNL     1     -12.113   7.679  70.489  1.00  0.00    -0.507 NA 
HETATM    5  H   UNL     1     -12.700   7.354  69.722  1.00  0.00     0.000 HD 
BRANCH   4   6
HETATM    6  C   UNL     1     -12.767   7.443  71.783  1.00  0.00    -0.334 C  
BRANCH   6   7
HETATM    7  C   UNL     1     -13.925   8.436  71.962  1.00  0.00    -0.405 C  
HETATM    8  O   UNL     1     -14.009   8.843  73.337  1.00  0.00    -1.236 OA 
HETATM    9  H   UNL     1     -14.725   9.457  73.448  1.00  0.00     0.000 HD 
BRANCH   7  10
HETATM   10  C   UNL     1     -13.759   9.669  71.068  1.00  0.00    -0.027 C  
BRANCH  10  11
HETATM   11  O   UNL     1     -12.614  10.436  71.480  1.00  0.00    -0.381 OA 
BRANCH  11  12
HETATM   12  C   UNL     1     -12.268  11.460  70.622  1.00  0.00    -0.389 A  
HETATM   13  C   UNL     1     -11.636  11.222  69.394  1.00  0.00    -0.390 A  
HETATM   14  C   UNL     1     -11.300  12.272  68.549  1.00  0.00    -0.332 A  
HETATM   15  C   UNL     1     -11.613  13.577  68.909  1.00  0.00    -0.364 A  
HETATM   16  C   UNL     1     -12.280  13.847  70.112  1.00  0.00    -0.425 A  
HETATM   17  C   UNL     1     -12.619  12.786  70.991  1.00  0.00    -0.362 A  
HETATM   18  C   UNL     1     -13.287  13.123  72.192  1.00  0.00    -0.621 A  
HETATM   19  C   UNL     1     -13.615  14.449  72.503  1.00  0.00    -0.598 A  
HETATM   20  C   UNL     1     -13.281  15.473  71.622  1.00  0.00    -0.575 A  
HETATM   21  C   UNL     1     -12.615  15.172  70.438  1.00  0.00    -0.405 A  
ENDBRANCH  11  12
ENDBRANCH  10  11
ENDBRANCH   7  10
ENDBRANCH   6   7
ENDBRANCH   4   6
ENDBRANCH   2   4
TORSDOF 6
ENDMDL
MODEL        6
REMARK 921   NORMALIZED FREE ENERGY PREDICTED BY IDOCK:   -6.05 KCAL/MOL
REMARK 922        TOTAL FREE ENERGY PREDICTED BY IDOCK:   -8.85 KCAL/MOL
REMARK 923 INTER-LIGAND FREE ENERGY PREDICTED BY IDOCK:   -8.37 KCAL/MOL
REMARK 924 INTRA-LIGAND FREE ENERGY PREDICTED BY IDOCK:   -0.48 KCAL/MOL
REMARK 927      BINDING AFFINITY PREDICTED BY RF-SCORE:    0.00 PKD
ROOT
HETATM    1  C   UNL     1     -10.460  11.066  64.690  1.00  0.00    -0.398 C  
HETATM    2  C   UNL     1     -10.686  12.185  63.673  1.00  0.00    -0.467 C  
HETATM    3  C   UNL     1     -12.185  12.351  63.413  1.00  0.00    -0.623 C  
ENDROOT
BRANCH   2   4
HETATM    4  N   UNL     1     -10.088  13.412  64.205  1.00  0.00    -0.779 NA 
HETATM    5  H   UNL     1      -9.503  13.863  63.502  1.00  0.00     0.000 HD 
BRANCH   4   6
HETATM    6  C   UNL     1     -11.077  14.355  64.744  1.00  0.00    -0.394 C  
BRANCH   6   7
HETATM    7  C   UNL     1     -10.784  14.612  66.229  1.00  0.00    -0.316 C  
HETATM    8  O   UNL     1     -11.157  15.956  66.573  1.00  0.00    -0.192 OA 
HETATM    9  H   UNL     1     -10.975  16.115  67.492  1.00  0.00     0.000 HD 
BRANCH   7  10
HETATM   10  C   UNL     1     -11.526  13.623  67.134  1.00  0.00    -0.342 C  
BRANCH  10  11
HETATM   11  O   UNL     1     -10.874  13.526  68.412  1.00  0.00    -0.250 OA 
BRANCH  11  12
HETATM   12  C   UNL     1     -11.579  12.821  69.367  1.00  0.00    -0.298 A  
HETATM   13  C   UNL     1     -11.590  11.420  69.402  1.00  0.00    -0.391 A  
HETATM   14  C   UNL     1     -12.308  10.737  70.376  1.00  0.00    -0.438 A  
HETATM   15  C   UNL     1     -13.006  11.446  71.346  1.00  0.00    -0.468 A  
HETATM   16  C   UNL     1     -12.984  12.847  71.364  1.00  0.00    -0.362 A  
HETATM   17  C   UNL     1     -12.266  13.560  70.368  1.00  0.00    -0.426 A  
HETATM   18  C   UNL     1     -12.286  14.972  70.436  1.00  0.00    -0.393 A  
HETATM   19  C   UNL     1     -12.975  15.649  71.450  1.00  0.00    -0.555 A  
HETATM   20  C   UNL     1     -13.665  14.931  72.421  1.00  0.00    -0.576 A  
HETATM   21  C   UNL     1     -13.671  13.539  72.373  1.00  0.00    -0.704 A  
ENDBRANCH  11  12
ENDBRANCH  10  11
ENDBRANCH   7  10
ENDBRANCH   6   7
ENDBRANCH   4   6
ENDBRANCH   2   4
TORSDOF 6
ENDMDL
MODEL        7
REMARK 921   NORMALIZED FREE ENERGY PREDICTED BY IDOCK:   -5.99 KCAL/MOL
REMARK 922        TOTAL FREE ENERGY PREDICTED BY IDOCK:   -8.76 KCAL/MOL
REMARK 923 INTER-LIGAND FREE ENERGY PREDICTED BY IDOCK:   -8.24 KCAL/MOL
REMARK 924 INTRA-LIGAND FREE ENERGY PREDICTED BY IDOCK:   -0.52 KCAL/MOL
REMARK 927      BINDING AFFINITY PREDICTED BY RF-SCORE:    0.00 PKD
ROOT
HETATM    1  C   UNL     1     -10.070  10.508  64.892  1.00  0.00    -0.403 C  
HETATM    2  C   UNL     1      -9.917  11.109  63.494  1.00  0.00    -0.379 C  
HETATM    3  C   UNL     1      -9.138  10.142  62.600  1.00  0.00    -0.305 C  
ENDROOT
BRANCH   2   4
HETATM    4  N   UNL     1     -11.255  11.379  62.965  1.00  0.00    -0.844 NA 
HETATM    5  H   UNL     1     -11.662  10.535  62.564  1.00  0.00     0.000 HD 
BRANCH   4   6
HETATM    6  C   UNL     1     -12.163  11.978  63.953  1.00  0.00    -0.453 C  
BRANCH   6   7
HETATM    7  C   UNL     1     -11.849  13.474  64.098  1.00  0.00    -0.437 C  
HETATM    8  O   UNL     1     -12.538  14.217  63.080  1.00  0.00    -1.002 OA 
HETATM    9  H   UNL     1     -12.344  15.142  63.170  1.00  0.00     0.000 HD 
BRANCH   7  10
HETATM   10  C   UNL     1     -12.245  14.005  65.480  1.00  0.00    -0.439 C  
BRANCH  10  11
HETATM   11  O   UNL     1     -11.150  13.866  66.402  1.00  0.00    -0.304 OA 
BRANCH  11  12
HETATM   12  C   UNL     1     -11.471  14.123  67.720  1.00  0.00    -0.325 A  
HETATM   13  C   UNL     1     -11.616  15.427  68.211  1.00  0.00    -0.361 A  
HETATM   14  C   UNL     1     -11.940  15.656  69.543  1.00  0.00    -0.363 A  
HETATM   15  C   UNL     1     -12.150  14.581  70.398  1.00  0.00    -0.389 A  
HETATM   16  C   UNL     1     -12.053  13.264  69.930  1.00  0.00    -0.377 A  
HETATM   17  C   UNL     1     -11.710  13.014  68.575  1.00  0.00    -0.377 A  
HETATM   18  C   UNL     1     -11.622  11.663  68.164  1.00  0.00    -0.389 A  
HETATM   19  C   UNL     1     -11.874  10.608  69.050  1.00  0.00    -0.256 A  
HETATM   20  C   UNL     1     -12.218  10.876  70.371  1.00  0.00    -0.453 A  
HETATM   21  C   UNL     1     -12.302  12.195  70.807  1.00  0.00    -0.391 A  
ENDBRANCH  11  12
ENDBRANCH  10  11
ENDBRANCH   7  10
ENDBRANCH   6   7
ENDBRANCH   4   6
ENDBRANCH   2   4
TORSDOF 6
ENDMDL
MODEL        8
REMARK 921   NORMALIZED FREE ENERGY PREDICTED BY IDOCK:   -5.96 KCAL/MOL
REMARK 922        TOTAL FREE ENERGY PREDICTED BY IDOCK:   -8.72 KCAL/MOL
REMARK 923 INTER-LIGAND FREE ENERGY PREDICTED BY IDOCK:   -8.01 KCAL/MOL
REMARK 924 INTRA-LIGAND FREE ENERGY PREDICTED BY IDOCK:   -0.71 KCAL/MOL
REMARK 927      BINDING AFFINITY PREDICTED BY RF-SCORE:    0.00 PKD
ROOT
HETATM    1  C   UNL     1     -12.320  14.422  64.395  1.00  0.00    -0.428 C  
HETATM    2  C   UNL     1     -12.534  12.939  64.696  1.00  0.00    -0.434 C  
HETATM    3  C   UNL     1     -11.906  12.091  63.588  1.00  0.00    -0.602 C  
ENDROOT
BRANCH   2   4
HETATM    4  N   UNL     1     -11.940  12.649  66.003  1.00  0.00    -0.509 NA 
HETATM    5  H   UNL     1     -11.986  11.652  66.208  1.00  0.00     0.000 HD 
BRANCH   4   6
HETATM    6  C   UNL     1     -10.564  13.147  66.140  1.00  0.00    -0.279 C  
BRANCH   6   7
HETATM    7  C   UNL     1      -9.684  12.056  66.768  1.00  0.00    -0.207 C  
HETATM    8  O   UNL     1      -8.319  12.236  66.358  1.00  0.00    -0.396 OA 
HETATM    9  H   UNL     1      -7.775  11.561  66.745  1.00  0.00     0.000 HD 
BRANCH   7  10
HETATM   10  C   UNL     1      -9.769  12.068  68.298  1.00  0.00    -0.205 C  
BRANCH  10  11
HETATM   11  O   UNL     1     -10.832  12.931  68.734  1.00  0.00    -0.249 OA 
BRANCH  11  12
HETATM   12  C   UNL     1     -11.621  12.411  69.740  1.00  0.00    -0.232 A  
HETATM   13  C   UNL     1     -11.665  11.038  70.018  1.00  0.00    -0.437 A  
HETATM   14  C   UNL     1     -12.467  10.542  71.038  1.00  0.00    -0.501 A  
HETATM   15  C   UNL     1     -13.218  11.415  71.815  1.00  0.00    -0.472 A  
HETATM   16  C   UNL     1     -13.166  12.798  71.591  1.00  0.00    -0.410 A  
HETATM   17  C   UNL     1     -12.362  13.319  70.544  1.00  0.00    -0.389 A  
HETATM   18  C   UNL     1     -12.355  14.722  70.364  1.00  0.00    -0.402 A  
HETATM   19  C   UNL     1     -13.101  15.572  71.190  1.00  0.00    -0.573 A  
HETATM   20  C   UNL     1     -13.876  15.040  72.216  1.00  0.00    -0.596 A  
HETATM   21  C   UNL     1     -13.910  13.662  72.410  1.00  0.00    -0.691 A  
ENDBRANCH  11  12
ENDBRANCH  10  11
ENDBRANCH   7  10
ENDBRANCH   6   7
ENDBRANCH   4   6
ENDBRANCH   2   4
TORSDOF 6
ENDMDL
MODEL        9
REMARK 921   NORMALIZED FREE ENERGY PREDICTED BY IDOCK:   -5.96 KCAL/MOL
REMARK 922        TOTAL FREE ENERGY PREDICTED BY IDOCK:   -8.72 KCAL/MOL
REMARK 923 INTER-LIGAND FREE ENERGY PREDICTED BY IDOCK:   -8.07 KCAL/MOL
REMARK 924 INTRA-LIGAND FREE ENERGY PREDICTED BY IDOCK:   -0.65 KCAL/MOL
REMARK 927      BINDING AFFINITY PREDICTED BY RF-SCORE:    0.00 PKD
ROOT
HETATM    1  C   UNL     1     -10.949   6.060  69.241  1.00  0.00    -0.436 C  
HETATM    2  C   UNL     1     -11.502   6.361  70.635  1.00  0.00    -0.362 C  
HETATM    3  C   UNL     1     -10.357   6.766  71.567  1.00  0.00    -0.228 C  
ENDROOT
BRANCH   2   4
HETATM    4  N   UNL     1     -12.500   7.425  70.510  1.00  0.00    -0.557 NA 
HETATM    5  H   UNL     1     -12.944   7.397  69.592  1.00  0.00     0.000 HD 
BRANCH   4   6
HETATM    6  C   UNL     1     -13.508   7.407  71.578  1.00  0.00    -0.372 C  
BRANCH   6   7
HETATM    7  C   UNL     1     -13.863   8.848  71.973  1.00  0.00    -0.456 C  
HETATM    8  O   UNL     1     -14.284   8.887  73.346  1.00  0.00    -1.241 OA 
HETATM    9  H   UNL     1     -14.504   9.778  73.590  1.00  0.00     0.000 HD 
BRANCH   7  10
HETATM   10  C   UNL     1     -12.681   9.800  71.769  1.00  0.00    -0.426 C  
BRANCH  10  11
HETATM   11  O   UNL     1     -12.910  10.647  70.629  1.00  0.00    -0.355 OA 
BRANCH  11  12
HETATM   12  C   UNL     1     -12.906  11.999  70.905  1.00  0.00    -0.115 A  
HETATM   13  C   UNL     1     -13.335  12.509  72.138  1.00  0.00    -0.540 A  
HETATM   14  C   UNL     1     -13.319  13.876  72.389  1.00  0.00    -0.629 A  
HETATM   15  C   UNL     1     -12.849  14.752  71.419  1.00  0.00    -0.409 A  
HETATM   16  C   UNL     1     -12.374  14.272  70.190  1.00  0.00    -0.413 A  
HETATM   17  C   UNL     1     -12.396  12.880  69.914  1.00  0.00    -0.156 A  
HETATM   18  C   UNL     1     -11.909  12.458  68.654  1.00  0.00    -0.348 A  
HETATM   19  C   UNL     1     -11.412  13.371  67.716  1.00  0.00    -0.351 A  
HETATM   20  C   UNL     1     -11.392  14.730  68.011  1.00  0.00    -0.332 A  
HETATM   21  C   UNL     1     -11.874  15.176  69.239  1.00  0.00    -0.347 A  
ENDBRANCH  11  12
ENDBRANCH  10  11
ENDBRANCH   7  10
ENDBRANCH   6   7
ENDBRANCH   4   6
ENDBRANCH   2   4
TORSDOF 6
ENDMDL
MODEL       10
REMARK 921   NORMALIZED FREE ENERGY PREDICTED BY IDOCK:   -5.94 KCAL/MOL
REMARK 922        TOTAL FREE ENERGY PREDICTED BY IDOCK:   -8.71 KCAL/MOL
REMARK 923 INTER-LIGAND FREE ENERGY PREDICTED BY IDOCK:   -7.83 KCAL/MOL
REMARK 924 INTRA-LIGAND FREE ENERGY PREDICTED BY IDOCK:   -0.88 KCAL/MOL
REMARK 927      BINDING AFFINITY PREDICTED BY RF-SCORE:    0.00 PKD
ROOT
HETATM    1  C   UNL     1     -12.253  12.656  63.647  1.00  0.00    -0.624 C  
HETATM    2  C   UNL     1     -12.379  12.593  65.170  1.00  0.00    -0.484 C  
HETATM    3  C   UNL     1     -11.235  11.757  65.748  1.00  0.00    -0.337 C  
ENDROOT
BRANCH   2   4
HETATM    4  N   UNL     1     -12.364  13.963  65.685  1.00  0.00    -0.452 NA 
HETATM    5  H   UNL     1     -12.372  13.966  66.705  1.00  0.00     0.000 HD 
BRANCH   4   6
HETATM    6  C   UNL     1     -11.247  14.768  65.170  1.00  0.00    -0.382 C  
BRANCH   6   7
HETATM    7  C   UNL     1     -10.415  15.303  66.344  1.00  0.00    -0.303 C  
HETATM    8  O   UNL     1      -9.878  16.593  66.012  1.00  0.00    -0.323 OA 
HETATM    9  H   UNL     1      -9.363  16.924  66.738  1.00  0.00     0.000 HD 
BRANCH   7  10
HETATM   10  C   UNL     1     -11.246  15.406  67.628  1.00  0.00    -0.311 C  
BRANCH  10  11
HETATM   11  O   UNL     1     -11.107  14.209  68.412  1.00  0.00    -0.236 OA 
BRANCH  11  12
HETATM   12  C   UNL     1     -11.866  14.184  69.565  1.00  0.00    -0.322 A  
HETATM   13  C   UNL     1     -12.405  15.349  70.128  1.00  0.00    -0.395 A  
HETATM   14  C   UNL     1     -13.167  15.293  71.289  1.00  0.00    -0.563 A  
HETATM   15  C   UNL     1     -13.423  14.067  71.890  1.00  0.00    -0.506 A  
HETATM   16  C   UNL     1     -12.934  12.879  71.331  1.00  0.00    -0.362 A  
HETATM   17  C   UNL     1     -12.143  12.920  70.153  1.00  0.00    -0.373 A  
HETATM   18  C   UNL     1     -11.673  11.688  69.640  1.00  0.00    -0.418 A  
HETATM   19  C   UNL     1     -11.982  10.470  70.257  1.00  0.00    -0.411 A  
HETATM   20  C   UNL     1     -12.766  10.452  71.407  1.00  0.00    -0.551 A  
HETATM   21  C   UNL     1     -13.234  11.650  71.940  1.00  0.00    -0.475 A  
ENDBRANCH  11  12
ENDBRANCH  10  11
ENDBRANCH   7  10
ENDBRANCH   6   7
ENDBRANCH   4   6
ENDBRANCH   2   4
TORSDOF 6
ENDMDL
MODEL       11
REMARK 921   NORMALIZED FREE ENERGY PREDICTED BY IDOCK:   -5.90 KCAL/MOL
REMARK 922        TOTAL FREE ENERGY PREDICTED BY IDOCK:   -8.65 KCAL/MOL
REMARK 923 INTER-LIGAND FREE ENERGY PREDICTED BY IDOCK:   -8.21 KCAL/MOL
REMARK 924 INTRA-LIGAND FREE ENERGY PREDICTED BY IDOCK:   -0.44 KCAL/MOL
REMARK 927      BINDING AFFINITY PREDICTED BY RF-SCORE:    0.00 PKD
ROOT
HETATM    1  C   UNL     1     -13.923  13.461  72.251  1.00  0.00    -0.605 C  
HETATM    2  C   UNL     1     -14.082  14.975  72.109  1.00  0.00    -0.529 C  
HETATM    3  C   UNL     1     -13.189  15.685  73.130  1.00  0.00    -0.674 C  
ENDROOT
BRANCH   2   4
HETATM    4  N   UNL     1     -13.734  15.344  70.736  1.00  0.00    -0.845 NA 
HETATM    5  H   UNL     1     -13.417  16.312  70.690  1.00  0.00     0.000 HD 
BRANCH   4   6
HETATM    6  C   UNL     1     -12.748  14.444  70.123  1.00  0.00    -0.207 C  
BRANCH   6   7
HETATM    7  C   UNL     1     -11.575  15.266  69.569  1.00  0.00    -0.322 C  
HETATM    8  O   UNL     1     -10.421  15.093  70.406  1.00  0.00    -0.490 OA 
HETATM    9  H   UNL     1      -9.696  15.602  70.064  1.00  0.00     0.000 HD 
BRANCH   7  10
HETATM   10  C   UNL     1     -11.233  14.869  68.129  1.00  0.00    -0.299 C  
BRANCH  10  11
HETATM   11  O   UNL     1     -12.106  13.820  67.678  1.00  0.00    -0.363 OA 
BRANCH  11  12
HETATM   12  C   UNL     1     -11.917  13.438  66.365  1.00  0.00    -0.406 A  
HETATM   13  C   UNL     1     -12.357  14.223  65.290  1.00  0.00    -0.427 A  
HETATM   14  C   UNL     1     -12.153  13.814  63.978  1.00  0.00    -0.448 A  
HETATM   15  C   UNL     1     -11.480  12.626  63.720  1.00  0.00    -0.539 A  
HETATM   16  C   UNL     1     -10.990  11.838  64.770  1.00  0.00    -0.360 A  
HETATM   17  C   UNL     1     -11.203  12.235  66.117  1.00  0.00    -0.372 A  
HETATM   18  C   UNL     1     -10.690  11.395  67.132  1.00  0.00    -0.292 A  
HETATM   19  C   UNL     1      -9.988  10.222  66.831  1.00  0.00    -0.259 A  
HETATM   20  C   UNL     1      -9.783   9.856  65.504  1.00  0.00    -0.370 A  
HETATM   21  C   UNL     1     -10.286  10.658  64.483  1.00  0.00    -0.399 A  
ENDBRANCH  11  12
ENDBRANCH  10  11
ENDBRANCH   7  10
ENDBRANCH   6   7
ENDBRANCH   4   6
ENDBRANCH   2   4
TORSDOF 6
ENDMDL
MODEL       12
REMARK 921   NORMALIZED FREE ENERGY PREDICTED BY IDOCK:   -5.87 KCAL/MOL
REMARK 922        TOTAL FREE ENERGY PREDICTED BY IDOCK:   -8.61 KCAL/MOL
REMARK 923 INTER-LIGAND FREE ENERGY PREDICTED BY IDOCK:   -8.27 KCAL/MOL
REMARK 924 INTRA-LIGAND FREE ENERGY PREDICTED BY IDOCK:   -0.34 KCAL/MOL
REMARK 927      BINDING AFFINITY PREDICTED BY RF-SCORE:    0.00 PKD
ROOT
HETATM    1  C   UNL     1     -10.320  10.892  64.431  1.00  0.00    -0.430 C  
HETATM    2  C   UNL     1     -10.846  11.990  63.506  1.00  0.00    -0.444 C  
HETATM    3  C   UNL     1     -12.376  12.005  63.541  1.00  0.00    -0.661 C  
ENDROOT
BRANCH   2   4
HETATM    4  N   UNL     1     -10.281  13.267  63.946  1.00  0.00    -0.735 NA 
HETATM    5  H   UNL     1      -9.984  13.826  63.147  1.00  0.00     0.000 HD 
BRANCH   4   6
HETATM    6  C   UNL     1     -11.183  14.036  64.814  1.00  0.00    -0.375 C  
BRANCH   6   7
HETATM    7  C   UNL     1     -10.959  15.537  64.586  1.00  0.00    -0.322 C  
HETATM    8  O   UNL     1     -12.102  16.105  63.926  1.00  0.00    -1.283 OA 
HETATM    9  H   UNL     1     -11.963  17.034  63.784  1.00  0.00     0.000 HD 
BRANCH   7  10
HETATM   10  C   UNL     1     -10.702  16.279  65.902  1.00  0.00    -0.229 C  
BRANCH  10  11
HETATM   11  O   UNL     1      -9.446  16.977  65.847  1.00  0.00    -0.492 OA 
BRANCH  11  12
HETATM   12  C   UNL     1      -9.439  18.202  66.482  1.00  0.00    -0.304 A  
HETATM   13  C   UNL     1     -10.586  18.735  67.085  1.00  0.00    -0.491 A  
HETATM   14  C   UNL     1     -10.550  19.972  67.718  1.00  0.00    -0.395 A  
HETATM   15  C   UNL     1      -9.358  20.682  67.781  1.00  0.00    -0.289 A  
HETATM   16  C   UNL     1      -8.183  20.160  67.223  1.00  0.00    -0.381 A  
HETATM   17  C   UNL     1      -8.206  18.905  66.561  1.00  0.00    -0.306 A  
HETATM   18  C   UNL     1      -6.990  18.433  66.014  1.00  0.00    -0.310 A  
HETATM   19  C   UNL     1      -5.802  19.165  66.127  1.00  0.00    -0.183 A  
HETATM   20  C   UNL     1      -5.799  20.390  66.788  1.00  0.00    -0.209 A  
HETATM   21  C   UNL     1      -6.984  20.883  67.328  1.00  0.00    -0.436 A  
ENDBRANCH  11  12
ENDBRANCH  10  11
ENDBRANCH   7  10
ENDBRANCH   6   7
ENDBRANCH   4   6
ENDBRANCH   2   4
TORSDOF 6
ENDMDL
MODEL       13
REMARK 921   NORMALIZED FREE ENERGY PREDICTED BY IDOCK:   -5.85 KCAL/MOL
REMARK 922        TOTAL FREE ENERGY PREDICTED BY IDOCK:   -8.58 KCAL/MOL
REMARK 923 INTER-LIGAND FREE ENERGY PREDICTED BY IDOCK:   -8.32 KCAL/MOL
REMARK 924 INTRA-LIGAND FREE ENERGY PREDICTED BY IDOCK:   -0.26 KCAL/MOL
REMARK 927      BINDING AFFINITY PREDICTED BY RF-SCORE:    0.00 PKD
ROOT
HETATM    1  C   UNL     1     -10.212  10.659  64.830  1.00  0.00    -0.395 C  
HETATM    2  C   UNL     1     -10.132  11.344  63.466  1.00  0.00    -0.395 C  
HETATM    3  C   UNL     1      -9.295  10.491  62.509  1.00  0.00    -0.319 C  
ENDROOT
BRANCH   2   4
HETATM    4  N   UNL     1     -11.497  11.533  62.970  1.00  0.00    -0.844 NA 
HETATM    5  H   UNL     1     -11.870  10.661  62.594  1.00  0.00     0.000 HD 
BRANCH   4   6
HETATM    6  C   UNL     1     -12.409  12.099  63.974  1.00  0.00    -0.451 C  
BRANCH   6   7
HETATM    7  C   UNL     1     -11.895  13.478  64.413  1.00  0.00    -0.414 C  
HETATM    8  O   UNL     1     -12.199  14.454  63.405  1.00  0.00    -1.021 OA 
HETATM    9  H   UNL     1     -11.881  15.307  63.676  1.00  0.00     0.000 HD 
BRANCH   7  10
HETATM   10  C   UNL     1     -12.505  13.911  65.751  1.00  0.00    -0.495 C  
BRANCH  10  11
HETATM   11  O   UNL     1     -11.576  13.681  66.823  1.00  0.00    -0.330 OA 
BRANCH  11  12
HETATM   12  C   UNL     1     -11.215  14.813  67.526  1.00  0.00    -0.332 A  
HETATM   13  C   UNL     1     -10.647  15.930  66.899  1.00  0.00    -0.309 A  
HETATM   14  C   UNL     1     -10.295  17.057  67.631  1.00  0.00    -0.332 A  
HETATM   15  C   UNL     1     -10.530  17.094  69.000  1.00  0.00    -0.321 A  
HETATM   16  C   UNL     1     -11.134  16.011  69.652  1.00  0.00    -0.331 A  
HETATM   17  C   UNL     1     -11.488  14.847  68.920  1.00  0.00    -0.320 A  
HETATM   18  C   UNL     1     -12.089  13.785  69.635  1.00  0.00    -0.392 A  
HETATM   19  C   UNL     1     -12.340  13.874  71.010  1.00  0.00    -0.453 A  
HETATM   20  C   UNL     1     -11.993  15.028  71.707  1.00  0.00    -0.442 A  
HETATM   21  C   UNL     1     -11.391  16.086  71.031  1.00  0.00    -0.423 A  
ENDBRANCH  11  12
ENDBRANCH  10  11
ENDBRANCH   7  10
ENDBRANCH   6   7
ENDBRANCH   4   6
ENDBRANCH   2   4
TORSDOF 6
ENDMDL
MODEL       14
REMARK 921   NORMALIZED FREE ENERGY PREDICTED BY IDOCK:   -5.84 KCAL/MOL
REMARK 922        TOTAL FREE ENERGY PREDICTED BY IDOCK:   -8.56 KCAL/MOL
REMARK 923 INTER-LIGAND FREE ENERGY PREDICTED BY IDOCK:   -7.87 KCAL/MOL
REMARK 924 INTRA-LIGAND FREE ENERGY PREDICTED BY IDOCK:   -0.69 KCAL/MOL
REMARK 927      BINDING AFFINITY PREDICTED BY RF-SCORE:    0.00 PKD
ROOT
HETATM    1  C   UNL     1     -12.256  13.933  69.229  1.00  0.00    -0.319 C  
HETATM    2  C   UNL     1     -11.581  13.677  67.881  1.00  0.00    -0.341 C  
HETATM    3  C   UNL     1     -11.639  12.184  67.550  1.00  0.00    -0.413 C  
ENDROOT
BRANCH   2   4
HETATM    4  N   UNL     1     -12.265  14.484  66.868  1.00  0.00    -0.509 NA 
HETATM    5  H   UNL     1     -11.697  15.288  66.603  1.00  0.00     0.000 HD 
BRANCH   4   6
HETATM    6  C   UNL     1     -12.666  13.714  65.683  1.00  0.00    -0.454 C  
BRANCH   6   7
HETATM    7  C   UNL     1     -11.871  14.199  64.462  1.00  0.00    -0.436 C  
HETATM    8  O   UNL     1     -12.520  15.341  63.881  1.00  0.00    -0.964 OA 
HETATM    9  H   UNL     1     -12.028  15.641  63.126  1.00  0.00     0.000 HD 
BRANCH   7  10
HETATM   10  C   UNL     1     -10.427  14.558  64.831  1.00  0.00    -0.409 C  
BRANCH  10  11
HETATM   11  O   UNL     1     -10.311  15.968  65.086  1.00  0.00    -0.523 OA 
BRANCH  11  12
HETATM   12  C   UNL     1      -9.485  16.297  66.142  1.00  0.00    -0.339 A  
HETATM   13  C   UNL     1      -8.567  15.386  66.681  1.00  0.00    -0.318 A  
HETATM   14  C   UNL     1      -7.747  15.745  67.743  1.00  0.00    -0.159 A  
HETATM   15  C   UNL     1      -7.815  17.030  68.267  1.00  0.00    -0.216 A  
HETATM   16  C   UNL     1      -8.693  17.978  67.725  1.00  0.00    -0.251 A  
HETATM   17  C   UNL     1      -9.547  17.624  66.648  1.00  0.00    -0.301 A  
HETATM   18  C   UNL     1     -10.415  18.622  66.148  1.00  0.00    -0.473 A  
HETATM   19  C   UNL     1     -10.430  19.917  66.682  1.00  0.00    -0.580 A  
HETATM   20  C   UNL     1      -9.578  20.246  67.732  1.00  0.00    -0.486 A  
HETATM   21  C   UNL     1      -8.720  19.280  68.251  1.00  0.00    -0.377 A  
ENDBRANCH  11  12
ENDBRANCH  10  11
ENDBRANCH   7  10
ENDBRANCH   6   7
ENDBRANCH   4   6
ENDBRANCH   2   4
TORSDOF 6
ENDMDL
MODEL       15
REMARK 921   NORMALIZED FREE ENERGY PREDICTED BY IDOCK:   -5.83 KCAL/MOL
REMARK 922        TOTAL FREE ENERGY PREDICTED BY IDOCK:   -8.55 KCAL/MOL
REMARK 923 INTER-LIGAND FREE ENERGY PREDICTED BY IDOCK:   -7.71 KCAL/MOL
REMARK 924 INTRA-LIGAND FREE ENERGY PREDICTED BY IDOCK:   -0.84 KCAL/MOL
REMARK 927      BINDING AFFINITY PREDICTED BY RF-SCORE:    0.00 PKD
ROOT
HETATM    1  C   UNL     1     -14.123  13.611  72.192  1.00  0.00    -0.553 C  
HETATM    2  C   UNL     1     -14.108  15.136  72.072  1.00  0.00    -0.559 C  
HETATM    3  C   UNL     1     -13.249  15.732  73.190  1.00  0.00    -0.694 C  
ENDROOT
BRANCH   2   4
HETATM    4  N   UNL     1     -13.592  15.484  70.747  1.00  0.00    -0.847 NA 
HETATM    5  H   UNL     1     -13.839  16.443  70.503  1.00  0.00     0.000 HD 
BRANCH   4   6
HETATM    6  C   UNL     1     -12.145  15.268  70.610  1.00  0.00    -0.354 C  
BRANCH   6   7
HETATM    7  C   UNL     1     -11.648  15.926  69.315  1.00  0.00    -0.369 C  
HETATM    8  O   UNL     1     -10.284  16.347  69.475  1.00  0.00    -0.270 OA 
HETATM    9  H   UNL     1      -9.977  16.755  68.674  1.00  0.00     0.000 HD 
BRANCH   7  10
HETATM   10  C   UNL     1     -11.757  14.976  68.117  1.00  0.00    -0.312 C  
BRANCH  10  11
HETATM   11  O   UNL     1     -12.374  13.739  68.513  1.00  0.00    -0.269 OA 
BRANCH  11  12
HETATM   12  C   UNL     1     -11.783  12.607  67.988  1.00  0.00    -0.350 A  
HETATM   13  C   UNL     1     -11.324  12.552  66.665  1.00  0.00    -0.389 A  
HETATM   14  C   UNL     1     -10.733  11.399  66.163  1.00  0.00    -0.320 A  
HETATM   15  C   UNL     1     -10.568  10.292  66.985  1.00  0.00    -0.302 A  
HETATM   16  C   UNL     1     -10.979  10.327  68.324  1.00  0.00    -0.315 A  
HETATM   17  C   UNL     1     -11.597  11.493  68.849  1.00  0.00    -0.384 A  
HETATM   18  C   UNL     1     -11.994  11.465  70.206  1.00  0.00    -0.460 A  
HETATM   19  C   UNL     1     -11.781  10.340  71.011  1.00  0.00    -0.461 A  
HETATM   20  C   UNL     1     -11.165   9.211  70.479  1.00  0.00    -0.309 A  
HETATM   21  C   UNL     1     -10.772   9.205  69.144  1.00  0.00    -0.190 A  
ENDBRANCH  11  12
ENDBRANCH  10  11
ENDBRANCH   7  10
ENDBRANCH   6   7
ENDBRANCH   4   6
ENDBRANCH   2   4
TORSDOF 6
ENDMDL
MODEL       16
REMARK 921   NORMALIZED FREE ENERGY PREDICTED BY IDOCK:   -5.80 KCAL/MOL
REMARK 922        TOTAL FREE ENERGY PREDICTED BY IDOCK:   -8.51 KCAL/MOL
REMARK 923 INTER-LIGAND FREE ENERGY PREDICTED BY IDOCK:   -7.95 KCAL/MOL
REMARK 924 INTRA-LIGAND FREE ENERGY PREDICTED BY IDOCK:   -0.56 KCAL/MOL
REMARK 927      BINDING AFFINITY PREDICTED BY RF-SCORE:    0.00 PKD
ROOT
HETATM    1  C   UNL     1     -11.272   6.117  69.284  1.00  0.00    -0.438 C  
HETATM    2  C   UNL     1     -11.813   6.627  70.620  1.00  0.00    -0.383 C  
HETATM    3  C   UNL     1     -10.938   6.107  71.763  1.00  0.00    -0.315 C  
ENDROOT
BRANCH   2   4
HETATM    4  N   UNL     1     -11.831   8.091  70.575  1.00  0.00    -0.476 NA 
HETATM    5  H   UNL     1     -12.576   8.425  69.963  1.00  0.00     0.000 HD 
BRANCH   4   6
HETATM    6  C   UNL     1     -11.928   8.714  71.902  1.00  0.00    -0.356 C  
BRANCH   6   7
HETATM    7  C   UNL     1     -13.273   9.444  72.030  1.00  0.00    -0.449 C  
HETATM    8  O   UNL     1     -13.881   9.125  73.292  1.00  0.00    -1.118 OA 
HETATM    9  H   UNL     1     -14.713   9.576  73.371  1.00  0.00     0.000 HD 
BRANCH   7  10
HETATM   10  C   UNL     1     -13.109  10.962  71.906  1.00  0.00    -0.432 C  
BRANCH  10  11
HETATM   11  O   UNL     1     -12.330  11.289  70.743  1.00  0.00    -0.359 OA 
BRANCH  11  12
HETATM   12  C   UNL     1     -12.264  12.637  70.453  1.00  0.00    -0.288 A  
HETATM   13  C   UNL     1     -12.447  13.620  71.435  1.00  0.00    -0.374 A  
HETATM   14  C   UNL     1     -12.374  14.970  71.114  1.00  0.00    -0.391 A  
HETATM   15  C   UNL     1     -12.092  15.357  69.810  1.00  0.00    -0.373 A  
HETATM   16  C   UNL     1     -11.865  14.400  68.812  1.00  0.00    -0.360 A  
HETATM   17  C   UNL     1     -11.948  13.017  69.121  1.00  0.00    -0.320 A  
HETATM   18  C   UNL     1     -11.714  12.100  68.070  1.00  0.00    -0.409 A  
HETATM   19  C   UNL     1     -11.399  12.531  66.775  1.00  0.00    -0.390 A  
HETATM   20  C   UNL     1     -11.314  13.892  66.496  1.00  0.00    -0.340 A  
HETATM   21  C   UNL     1     -11.550  14.818  67.509  1.00  0.00    -0.379 A  
ENDBRANCH  11  12
ENDBRANCH  10  11
ENDBRANCH   7  10
ENDBRANCH   6   7
ENDBRANCH   4   6
ENDBRANCH   2   4
TORSDOF 6
ENDMDL
MODEL       17
REMARK 921   NORMALIZED FREE ENERGY PREDICTED BY IDOCK:   -5.78 KCAL/MOL
REMARK 922        TOTAL FREE ENERGY PREDICTED BY IDOCK:   -8.49 KCAL/MOL
REMARK 923 INTER-LIGAND FREE ENERGY PREDICTED BY IDOCK:   -7.80 KCAL/MOL
REMARK 924 INTRA-LIGAND FREE ENERGY PREDICTED BY IDOCK:   -0.69 KCAL/MOL
REMARK 927      BINDING AFFINITY PREDICTED BY RF-SCORE:    0.00 PKD
ROOT
HETATM    1  C   UNL     1     -14.124  13.686  72.224  1.00  0.00    -0.602 C  
HETATM    2  C   UNL     1     -14.231  15.188  71.956  1.00  0.00    -0.577 C  
HETATM    3  C   UNL     1     -13.409  15.956  72.993  1.00  0.00    -0.663 C  
ENDROOT
BRANCH   2   4
HETATM    4  N   UNL     1     -13.759  15.442  70.593  1.00  0.00    -0.841 NA 
HETATM    5  H   UNL     1     -14.135  16.321  70.239  1.00  0.00     0.000 HD 
BRANCH   4   6
HETATM    6  C   UNL     1     -12.295  15.413  70.468  1.00  0.00    -0.408 C  
BRANCH   6   7
HETATM    7  C   UNL     1     -11.908  15.375  68.983  1.00  0.00    -0.335 C  
HETATM    8  O   UNL     1     -10.575  15.884  68.815  1.00  0.00    -0.225 OA 
HETATM    9  H   UNL     1     -10.335  15.860  67.896  1.00  0.00     0.000 HD 
BRANCH   7  10
HETATM   10  C   UNL     1     -11.994  13.956  68.410  1.00  0.00    -0.356 C  
BRANCH  10  11
HETATM   11  O   UNL     1     -12.243  13.006  69.460  1.00  0.00    -0.248 OA 
BRANCH  11  12
HETATM   12  C   UNL     1     -11.433  11.888  69.429  1.00  0.00    -0.302 A  
HETATM   13  C   UNL     1     -10.308  11.806  68.596  1.00  0.00    -0.228 A  
HETATM   14  C   UNL     1      -9.511  10.668  68.587  1.00  0.00    -0.176 A  
HETATM   15  C   UNL     1      -9.811   9.605  69.429  1.00  0.00    -0.203 A  
HETATM   16  C   UNL     1     -10.904   9.671  70.303  1.00  0.00    -0.339 A  
HETATM   17  C   UNL     1     -11.737  10.821  70.316  1.00  0.00    -0.442 A  
HETATM   18  C   UNL     1     -12.828  10.825  71.216  1.00  0.00    -0.540 A  
HETATM   19  C   UNL     1     -13.078   9.746  72.073  1.00  0.00    -0.546 A  
HETATM   20  C   UNL     1     -12.244   8.633  72.051  1.00  0.00    -0.439 A  
HETATM   21  C   UNL     1     -11.168   8.596  71.168  1.00  0.00    -0.329 A  
ENDBRANCH  11  12
ENDBRANCH  10  11
ENDBRANCH   7  10
ENDBRANCH   6   7
ENDBRANCH   4   6
ENDBRANCH   2   4
TORSDOF 6
ENDMDL
MODEL       18
REMARK 921   NORMALIZED FREE ENERGY PREDICTED BY IDOCK:   -5.76 KCAL/MOL
REMARK 922        TOTAL FREE ENERGY PREDICTED BY IDOCK:   -8.45 KCAL/MOL
REMARK 923 INTER-LIGAND FREE ENERGY PREDICTED BY IDOCK:   -7.96 KCAL/MOL
REMARK 924 INTRA-LIGAND FREE ENERGY PREDICTED BY IDOCK:   -0.49 KCAL/MOL
REMARK 927      BINDING AFFINITY PREDICTED BY RF-SCORE:    0.00 PKD
ROOT
HETATM    1  C   UNL     1     -13.573  14.009  72.470  1.00  0.00    -0.670 C  
HETATM    2  C   UNL     1     -13.521  15.522  72.260  1.00  0.00    -0.499 C  
HETATM    3  C   UNL     1     -12.492  16.140  73.211  1.00  0.00    -0.642 C  
ENDROOT
BRANCH   2   4
HETATM    4  N   UNL     1     -13.184  15.776  70.858  1.00  0.00    -0.694 NA 
HETATM    5  H   UNL     1     -13.683  16.594  70.508  1.00  0.00     0.000 HD 
BRANCH   4   6
HETATM    6  C   UNL     1     -11.740  15.906  70.620  1.00  0.00    -0.384 C  
BRANCH   6   7
HETATM    7  C   UNL     1     -11.328  14.995  69.454  1.00  0.00    -0.297 C  
HETATM    8  O   UNL     1     -12.496  14.410  68.857  1.00  0.00    -0.569 OA 
HETATM    9  H   UNL     1     -12.241  13.846  68.137  1.00  0.00     0.000 HD 
BRANCH   7  10
HETATM   10  C   UNL     1     -10.532  15.758  68.390  1.00  0.00    -0.245 C  
BRANCH  10  11
HETATM   11  O   UNL     1      -9.839  16.869  68.984  1.00  0.00    -0.259 OA 
BRANCH  11  12
HETATM   12  C   UNL     1      -9.722  17.978  68.170  1.00  0.00    -0.322 A  
HETATM   13  C   UNL     1     -10.772  18.413  67.350  1.00  0.00    -0.397 A  
HETATM   14  C   UNL     1     -10.627  19.534  66.541  1.00  0.00    -0.579 A  
HETATM   15  C   UNL     1      -9.438  20.252  66.560  1.00  0.00    -0.460 A  
HETATM   16  C   UNL     1      -8.383  19.867  67.398  1.00  0.00    -0.366 A  
HETATM   17  C   UNL     1      -8.510  18.717  68.221  1.00  0.00    -0.357 A  
HETATM   18  C   UNL     1      -7.409  18.378  69.041  1.00  0.00    -0.228 A  
HETATM   19  C   UNL     1      -6.239  19.147  69.056  1.00  0.00    -0.287 A  
HETATM   20  C   UNL     1      -6.138  20.275  68.248  1.00  0.00    -0.315 A  
HETATM   21  C   UNL     1      -7.203  20.629  67.423  1.00  0.00    -0.391 A  
ENDBRANCH  11  12
ENDBRANCH  10  11
ENDBRANCH   7  10
ENDBRANCH   6   7
ENDBRANCH   4   6
ENDBRANCH   2   4
TORSDOF 6
ENDMDL
MODEL       19
REMARK 921   NORMALIZED FREE ENERGY PREDICTED BY IDOCK:   -5.75 KCAL/MOL
REMARK 922        TOTAL FREE ENERGY PREDICTED BY IDOCK:   -8.45 KCAL/MOL
REMARK 923 INTER-LIGAND FREE ENERGY PREDICTED BY IDOCK:   -8.04 KCAL/MOL
REMARK 924 INTRA-LIGAND FREE ENERGY PREDICTED BY IDOCK:   -0.41 KCAL/MOL
REMARK 927      BINDING AFFINITY PREDICTED BY RF-SCORE:    0.00 PKD
ROOT
HETATM    1  C   UNL     1     -13.771  13.562  72.317  1.00  0.00    -0.700 C  
HETATM    2  C   UNL     1     -14.155  15.036  72.182  1.00  0.00    -0.529 C  
HETATM    3  C   UNL     1     -13.411  15.862  73.234  1.00  0.00    -0.660 C  
ENDROOT
BRANCH   2   4
HETATM    4  N   UNL     1     -13.828  15.469  70.822  1.00  0.00    -0.865 NA 
HETATM    5  H   UNL     1     -13.835  16.486  70.754  1.00  0.00     0.000 HD 
BRANCH   4   6
HETATM    6  C   UNL     1     -12.557  14.923  70.326  1.00  0.00    -0.313 C  
BRANCH   6   7
HETATM    7  C   UNL     1     -11.923  15.913  69.338  1.00  0.00    -0.256 C  
HETATM    8  O   UNL     1     -10.960  16.732  70.019  1.00  0.00    -0.415 OA 
HETATM    9  H   UNL     1     -10.569  17.344  69.408  1.00  0.00     0.000 HD 
BRANCH   7  10
HETATM   10  C   UNL     1     -11.250  15.192  68.165  1.00  0.00    -0.320 C  
BRANCH  10  11
HETATM   11  O   UNL     1     -12.146  14.226  67.590  1.00  0.00    -0.376 OA 
BRANCH  11  12
HETATM   12  C   UNL     1     -11.603  12.968  67.417  1.00  0.00    -0.356 A  
HETATM   13  C   UNL     1     -11.361  12.107  68.495  1.00  0.00    -0.324 A  
HETATM   14  C   UNL     1     -10.814  10.846  68.292  1.00  0.00    -0.272 A  
HETATM   15  C   UNL     1     -10.527  10.416  67.003  1.00  0.00    -0.309 A  
HETATM   16  C   UNL     1     -10.794  11.236  65.898  1.00  0.00    -0.264 A  
HETATM   17  C   UNL     1     -11.340  12.533  66.090  1.00  0.00    -0.388 A  
HETATM   18  C   UNL     1     -11.583  13.315  64.937  1.00  0.00    -0.353 A  
HETATM   19  C   UNL     1     -11.309  12.832  63.651  1.00  0.00    -0.514 A  
HETATM   20  C   UNL     1     -10.783  11.555  63.485  1.00  0.00    -0.483 A  
HETATM   21  C   UNL     1     -10.524  10.766  64.603  1.00  0.00    -0.346 A  
ENDBRANCH  11  12
ENDBRANCH  10  11
ENDBRANCH   7  10
ENDBRANCH   6   7
ENDBRANCH   4   6
ENDBRANCH   2   4
TORSDOF 6
ENDMDL
MODEL       20
REMARK 921   NORMALIZED FREE ENERGY PREDICTED BY IDOCK:   -5.73 KCAL/MOL
REMARK 922        TOTAL FREE ENERGY PREDICTED BY IDOCK:   -8.42 KCAL/MOL
REMARK 923 INTER-LIGAND FREE ENERGY PREDICTED BY IDOCK:   -7.62 KCAL/MOL
REMARK 924 INTRA-LIGAND FREE ENERGY PREDICTED BY IDOCK:   -0.80 KCAL/MOL
REMARK 927      BINDING AFFINITY PREDICTED BY RF-SCORE:    0.00 PKD
ROOT
HETATM    1  C   UNL     1     -11.218   6.310  69.459  1.00  0.00    -0.500 C  
HETATM    2  C   UNL     1     -11.568   6.548  70.928  1.00  0.00    -0.359 C  
HETATM    3  C   UNL     1     -10.847   5.521  71.804  1.00  0.00    -0.277 C  
ENDROOT
BRANCH   2   4
HETATM    4  N   UNL     1     -11.183   7.919  71.272  1.00  0.00    -0.251 NA 
HETATM    5  H   UNL     1     -11.371   8.553  70.495  1.00  0.00     0.000 HD 
BRANCH   4   6
HETATM    6  C   UNL     1     -11.809   8.408  72.508  1.00  0.00    -0.358 C  
BRANCH   6   7
HETATM    7  C   UNL     1     -13.244   8.866  72.210  1.00  0.00    -0.447 C  
HETATM    8  O   UNL     1     -14.018   8.858  73.419  1.00  0.00    -1.236 OA 
HETATM    9  H   UNL     1     -14.906   9.141  73.235  1.00  0.00     0.000 HD 
BRANCH   7  10
HETATM   10  C   UNL     1     -13.275  10.266  71.588  1.00  0.00    -0.408 C  
BRANCH  10  11
HETATM   11  O   UNL     1     -11.978  10.616  71.076  1.00  0.00    -0.343 OA 
BRANCH  11  12
HETATM   12  C   UNL     1     -11.967  11.707  70.230  1.00  0.00    -0.358 A  
HETATM   13  C   UNL     1     -12.310  12.993  70.668  1.00  0.00    -0.391 A  
HETATM   14  C   UNL     1     -12.290  14.074  69.795  1.00  0.00    -0.344 A  
HETATM   15  C   UNL     1     -11.900  13.888  68.474  1.00  0.00    -0.401 A  
HETATM   16  C   UNL     1     -11.512  12.623  68.013  1.00  0.00    -0.366 A  
HETATM   17  C   UNL     1     -11.540  11.507  68.890  1.00  0.00    -0.384 A  
HETATM   18  C   UNL     1     -11.142  10.255  68.364  1.00  0.00    -0.302 A  
HETATM   19  C   UNL     1     -10.724  10.116  67.035  1.00  0.00    -0.264 A  
HETATM   20  C   UNL     1     -10.695  11.225  66.195  1.00  0.00    -0.307 A  
HETATM   21  C   UNL     1     -11.091  12.468  66.682  1.00  0.00    -0.327 A  
ENDBRANCH  11  12
ENDBRANCH  10  11
ENDBRANCH   7  10
ENDBRANCH   6   7
ENDBRANCH   4   6
ENDBRANCH   2   4
TORSDOF 6
ENDMDL
MODEL       21
REMARK 921   NORMALIZED FREE ENERGY PREDICTED BY IDOCK:   -5.72 KCAL/MOL
REMARK 922        TOTAL FREE ENERGY PREDICTED BY IDOCK:   -8.40 KCAL/MOL
REMARK 923 INTER-LIGAND FREE ENERGY PREDICTED BY IDOCK:   -7.71 KCAL/MOL
REMARK 924 INTRA-LIGAND FREE ENERGY PREDICTED BY IDOCK:   -0.69 KCAL/MOL
REMARK 927      BINDING AFFINITY PREDICTED BY RF-SCORE:    0.00 PKD
ROOT
HETATM    1  C   UNL     1     -13.815  13.762  72.471  1.00  0.00    -0.626 C  
HETATM    2  C   UNL     1     -12.911  14.115  71.289  1.00  0.00    -0.359 C  
HETATM    3  C   UNL     1     -11.930  15.216  71.701  1.00  0.00    -0.432 C  
ENDROOT
BRANCH   2   4
HETATM    4  N   UNL     1     -12.214  12.898  70.868  1.00  0.00    -0.447 NA 
HETATM    5  H   UNL     1     -11.226  12.943  71.116  1.00  0.00     0.000 HD 
BRANCH   4   6
HETATM    6  C   UNL     1     -12.827  11.667  71.387  1.00  0.00    -0.356 C  
BRANCH   6   7
HETATM    7  C   UNL     1     -12.044  10.449  70.875  1.00  0.00    -0.374 C  
HETATM    8  O   UNL     1     -12.958   9.422  70.461  1.00  0.00    -0.504 OA 
HETATM    9  H   UNL     1     -12.474   8.669  70.145  1.00  0.00     0.000 HD 
BRANCH   7  10
HETATM   10  C   UNL     1     -11.119  10.817  69.711  1.00  0.00    -0.281 C  
BRANCH  10  11
HETATM   11  O   UNL     1     -11.890  11.208  68.562  1.00  0.00    -0.452 OA 
BRANCH  11  12
HETATM   12  C   UNL     1     -11.272  10.981  67.349  1.00  0.00    -0.285 A  
HETATM   13  C   UNL     1     -10.506   9.833  67.106  1.00  0.00    -0.316 A  
HETATM   14  C   UNL     1      -9.896   9.630  65.874  1.00  0.00    -0.358 A  
HETATM   15  C   UNL     1     -10.066  10.560  64.856  1.00  0.00    -0.403 A  
HETATM   16  C   UNL     1     -10.859  11.698  65.052  1.00  0.00    -0.346 A  
HETATM   17  C   UNL     1     -11.478  11.927  66.309  1.00  0.00    -0.367 A  
HETATM   18  C   UNL     1     -12.262  13.096  66.446  1.00  0.00    -0.396 A  
HETATM   19  C   UNL     1     -12.436  13.993  65.384  1.00  0.00    -0.520 A  
HETATM   20  C   UNL     1     -11.828  13.745  64.158  1.00  0.00    -0.439 A  
HETATM   21  C   UNL     1     -11.042  12.607  63.996  1.00  0.00    -0.453 A  
ENDBRANCH  11  12
ENDBRANCH  10  11
ENDBRANCH   7  10
ENDBRANCH   6   7
ENDBRANCH   4   6
ENDBRANCH   2   4
TORSDOF 6
ENDMDL
MODEL       22
REMARK 921   NORMALIZED FREE ENERGY PREDICTED BY IDOCK:   -5.70 KCAL/MOL
REMARK 922        TOTAL FREE ENERGY PREDICTED BY IDOCK:   -8.38 KCAL/MOL
REMARK 923 INTER-LIGAND FREE ENERGY PREDICTED BY IDOCK:   -7.55 KCAL/MOL
REMARK 924 INTRA-LIGAND FREE ENERGY PREDICTED BY IDOCK:   -0.84 KCAL/MOL
REMARK 927      BINDING AFFINITY PREDICTED BY RF-SCORE:    0.00 PKD
ROOT
HETATM    1  C   UNL     1     -11.662  14.645  64.825  1.00  0.00    -0.429 C  
HETATM    2  C   UNL     1     -12.339  13.291  64.611  1.00  0.00    -0.391 C  
HETATM    3  C   UNL     1     -11.654  12.547  63.462  1.00  0.00    -0.584 C  
ENDROOT
BRANCH   2   4
HETATM    4  N   UNL     1     -12.261  12.540  65.866  1.00  0.00    -0.624 NA 
HETATM    5  H   UNL     1     -13.043  11.889  65.947  1.00  0.00     0.000 HD 
BRANCH   4   6
HETATM    6  C   UNL     1     -10.981  11.842  66.049  1.00  0.00    -0.309 C  
BRANCH   6   7
HETATM    7  C   UNL     1     -11.076  10.905  67.262  1.00  0.00    -0.283 C  
HETATM    8  O   UNL     1     -10.103   9.855  67.144  1.00  0.00    -0.192 OA 
HETATM    9  H   UNL     1     -10.162   9.276  67.894  1.00  0.00     0.000 HD 
BRANCH   7  10
HETATM   10  C   UNL     1     -10.864  11.659  68.580  1.00  0.00    -0.219 C  
BRANCH  10  11
HETATM   11  O   UNL     1     -11.987  12.512  68.856  1.00  0.00    -0.299 OA 
BRANCH  11  12
HETATM   12  C   UNL     1     -11.655  13.775  69.305  1.00  0.00    -0.312 A  
HETATM   13  C   UNL     1     -10.909  14.670  68.527  1.00  0.00    -0.256 A  
HETATM   14  C   UNL     1     -10.590  15.936  69.004  1.00  0.00    -0.247 A  
HETATM   15  C   UNL     1     -11.035  16.334  70.259  1.00  0.00    -0.314 A  
HETATM   16  C   UNL     1     -11.817  15.479  71.046  1.00  0.00    -0.427 A  
HETATM   17  C   UNL     1     -12.140  14.178  70.578  1.00  0.00    -0.420 A  
HETATM   18  C   UNL     1     -12.928  13.359  71.421  1.00  0.00    -0.412 A  
HETATM   19  C   UNL     1     -13.385  13.811  72.665  1.00  0.00    -0.618 A  
HETATM   20  C   UNL     1     -13.064  15.093  73.101  1.00  0.00    -0.625 A  
HETATM   21  C   UNL     1     -12.282  15.917  72.297  1.00  0.00    -0.585 A  
ENDBRANCH  11  12
ENDBRANCH  10  11
ENDBRANCH   7  10
ENDBRANCH   6   7
ENDBRANCH   4   6
ENDBRANCH   2   4
TORSDOF 6
ENDMDL
MODEL       23
REMARK 921   NORMALIZED FREE ENERGY PREDICTED BY IDOCK:   -5.70 KCAL/MOL
REMARK 922        TOTAL FREE ENERGY PREDICTED BY IDOCK:   -8.38 KCAL/MOL
REMARK 923 INTER-LIGAND FREE ENERGY PREDICTED BY IDOCK:   -7.81 KCAL/MOL
REMARK 924 INTRA-LIGAND FREE ENERGY PREDICTED BY IDOCK:   -0.57 KCAL/MOL
REMARK 927      BINDING AFFINITY PREDICTED BY RF-SCORE:    0.00 PKD
ROOT
HETATM    1  C   UNL     1     -10.661  19.584  66.189  1.00  0.00    -0.585 C  
HETATM    2  C   UNL     1      -9.741  18.425  66.575  1.00  0.00    -0.348 C  
HETATM    3  C   UNL     1     -10.001  18.023  68.029  1.00  0.00    -0.346 C  
ENDROOT
BRANCH   2   4
HETATM    4  N   UNL     1      -9.993  17.316  65.653  1.00  0.00    -0.567 NA 
HETATM    5  H   UNL     1      -9.425  17.410  64.811  1.00  0.00     0.000 HD 
BRANCH   4   6
HETATM    6  C   UNL     1      -9.803  15.994  66.265  1.00  0.00    -0.308 C  
BRANCH   6   7
HETATM    7  C   UNL     1     -10.769  14.988  65.623  1.00  0.00    -0.354 C  
HETATM    8  O   UNL     1     -10.029  13.885  65.076  1.00  0.00    -0.563 OA 
HETATM    9  H   UNL     1     -10.627  13.262  64.678  1.00  0.00     0.000 HD 
BRANCH   7  10
HETATM   10  C   UNL     1     -11.800  14.469  66.630  1.00  0.00    -0.366 C  
BRANCH  10  11
HETATM   11  O   UNL     1     -11.143  13.801  67.721  1.00  0.00    -0.257 OA 
BRANCH  11  12
HETATM   12  C   UNL     1     -11.706  14.030  68.960  1.00  0.00    -0.330 A  
HETATM   13  C   UNL     1     -12.023  15.319  69.408  1.00  0.00    -0.342 A  
HETATM   14  C   UNL     1     -12.591  15.520  70.660  1.00  0.00    -0.493 A  
HETATM   15  C   UNL     1     -12.875  14.430  71.474  1.00  0.00    -0.411 A  
HETATM   16  C   UNL     1     -12.608  13.125  71.041  1.00  0.00    -0.397 A  
HETATM   17  C   UNL     1     -12.016  12.904  69.770  1.00  0.00    -0.365 A  
HETATM   18  C   UNL     1     -11.766  11.564  69.391  1.00  0.00    -0.413 A  
HETATM   19  C   UNL     1     -12.097  10.490  70.227  1.00  0.00    -0.402 A  
HETATM   20  C   UNL     1     -12.685  10.729  71.466  1.00  0.00    -0.536 A  
HETATM   21  C   UNL     1     -12.934  12.038  71.869  1.00  0.00    -0.428 A  
ENDBRANCH  11  12
ENDBRANCH  10  11
ENDBRANCH   7  10
ENDBRANCH   6   7
ENDBRANCH   4   6
ENDBRANCH   2   4
TORSDOF 6
ENDMDL
MODEL       24
REMARK 921   NORMALIZED FREE ENERGY PREDICTED BY IDOCK:   -5.69 KCAL/MOL
REMARK 922        TOTAL FREE ENERGY PREDICTED BY IDOCK:   -8.36 KCAL/MOL
REMARK 923 INTER-LIGAND FREE ENERGY PREDICTED BY IDOCK:   -7.56 KCAL/MOL
REMARK 924 INTRA-LIGAND FREE ENERGY PREDICTED BY IDOCK:   -0.80 KCAL/MOL
REMARK 927      BINDING AFFINITY PREDICTED BY RF-SCORE:    0.00 PKD
ROOT
HETATM    1  C   UNL     1     -13.177   9.178  72.231  1.00  0.00    -0.528 C  
HETATM    2  C   UNL     1     -11.705   8.988  71.863  1.00  0.00    -0.374 C  
HETATM    3  C   UNL     1     -11.122   7.816  72.657  1.00  0.00    -0.433 C  
ENDROOT
BRANCH   2   4
HETATM    4  N   UNL     1     -11.623   8.758  70.419  1.00  0.00    -0.449 NA 
HETATM    5  H   UNL     1     -12.371   9.250  69.931  1.00  0.00     0.000 HD 
BRANCH   4   6
HETATM    6  C   UNL     1     -10.314   9.102  69.848  1.00  0.00    -0.212 C  
BRANCH   6   7
HETATM    7  C   UNL     1     -10.480   9.466  68.365  1.00  0.00    -0.218 C  
HETATM    8  O   UNL     1     -11.122   8.387  67.668  1.00  0.00    -0.478 OA 
HETATM    9  H   UNL     1     -11.225   8.612  66.751  1.00  0.00     0.000 HD 
BRANCH   7  10
HETATM   10  C   UNL     1     -11.293  10.753  68.184  1.00  0.00    -0.308 C  
BRANCH  10  11
HETATM   11  O   UNL     1     -11.506  11.394  69.453  1.00  0.00    -0.257 OA 
BRANCH  11  12
HETATM   12  C   UNL     1     -11.595  12.770  69.396  1.00  0.00    -0.298 A  
HETATM   13  C   UNL     1     -11.024  13.511  68.352  1.00  0.00    -0.289 A  
HETATM   14  C   UNL     1     -11.130  14.896  68.320  1.00  0.00    -0.290 A  
HETATM   15  C   UNL     1     -11.832  15.560  69.318  1.00  0.00    -0.372 A  
HETATM   16  C   UNL     1     -12.450  14.847  70.354  1.00  0.00    -0.403 A  
HETATM   17  C   UNL     1     -12.340  13.432  70.409  1.00  0.00    -0.382 A  
HETATM   18  C   UNL     1     -12.980  12.770  71.482  1.00  0.00    -0.388 A  
HETATM   19  C   UNL     1     -13.706  13.473  72.451  1.00  0.00    -0.704 A  
HETATM   20  C   UNL     1     -13.809  14.858  72.374  1.00  0.00    -0.587 A  
HETATM   21  C   UNL     1     -13.181  15.538  71.334  1.00  0.00    -0.587 A  
ENDBRANCH  11  12
ENDBRANCH  10  11
ENDBRANCH   7  10
ENDBRANCH   6   7
ENDBRANCH   4   6
ENDBRANCH   2   4
TORSDOF 6
ENDMDL
MODEL       25
REMARK 921   NORMALIZED FREE ENERGY PREDICTED BY IDOCK:   -5.65 KCAL/MOL
REMARK 922        TOTAL FREE ENERGY PREDICTED BY IDOCK:   -8.31 KCAL/MOL
REMARK 923 INTER-LIGAND FREE ENERGY PREDICTED BY IDOCK:   -7.31 KCAL/MOL
REMARK 924 INTRA-LIGAND FREE ENERGY PREDICTED BY IDOCK:   -1.00 KCAL/MOL
REMARK 927      BINDING AFFINITY PREDICTED BY RF-SCORE:    0.00 PKD
ROOT
HETATM    1  C   UNL     1      -8.553  15.894  66.279  1.00  0.00    -0.348 C  
HETATM    2  C   UNL     1      -9.402  14.649  66.538  1.00  0.00    -0.288 C  
HETATM    3  C   UNL     1     -10.451  14.953  67.610  1.00  0.00    -0.249 C  
ENDROOT
BRANCH   2   4
HETATM    4  N   UNL     1     -10.021  14.248  65.273  1.00  0.00    -0.550 NA 
HETATM    5  H   UNL     1     -10.079  13.232  65.205  1.00  0.00     0.000 HD 
BRANCH   4   6
HETATM    6  C   UNL     1     -11.336  14.862  65.047  1.00  0.00    -0.398 C  
BRANCH   6   7
HETATM    7  C   UNL     1     -12.328  13.791  64.569  1.00  0.00    -0.358 C  
HETATM    8  O   UNL     1     -12.531  13.914  63.152  1.00  0.00    -1.121 OA 
HETATM    9  H   UNL     1     -13.144  13.252  62.857  1.00  0.00     0.000 HD 
BRANCH   7  10
HETATM   10  C   UNL     1     -11.839  12.377  64.899  1.00  0.00    -0.386 C  
BRANCH  10  11
HETATM   11  O   UNL     1     -11.947  12.126  66.311  1.00  0.00    -0.605 OA 
BRANCH  11  12
HETATM   12  C   UNL     1     -11.144  11.106  66.778  1.00  0.00    -0.214 A  
HETATM   13  C   UNL     1     -10.231  10.438  65.951  1.00  0.00    -0.302 A  
HETATM   14  C   UNL     1      -9.433   9.415  66.449  1.00  0.00    -0.259 A  
HETATM   15  C   UNL     1      -9.519   9.061  67.790  1.00  0.00    -0.162 A  
HETATM   16  C   UNL     1     -10.392   9.735  68.654  1.00  0.00    -0.224 A  
HETATM   17  C   UNL     1     -11.223  10.774  68.158  1.00  0.00    -0.365 A  
HETATM   18  C   UNL     1     -12.087  11.413  69.078  1.00  0.00    -0.316 A  
HETATM   19  C   UNL     1     -12.119  11.049  70.429  1.00  0.00    -0.463 A  
HETATM   20  C   UNL     1     -11.290  10.034  70.896  1.00  0.00    -0.439 A  
HETATM   21  C   UNL     1     -10.436   9.381  70.012  1.00  0.00    -0.266 A  
ENDBRANCH  11  12
ENDBRANCH  10  11
ENDBRANCH   7  10
ENDBRANCH   6   7
ENDBRANCH   4   6
ENDBRANCH   2   4
TORSDOF 6
ENDMDL
MODEL       26
REMARK 921   NORMALIZED FREE ENERGY PREDICTED BY IDOCK:   -5.64 KCAL/MOL
REMARK 922        TOTAL FREE ENERGY PREDICTED BY IDOCK:   -8.29 KCAL/MOL
REMARK 923 INTER-LIGAND FREE ENERGY PREDICTED BY IDOCK:   -7.82 KCAL/MOL
REMARK 924 INTRA-LIGAND FREE ENERGY PREDICTED BY IDOCK:   -0.47 KCAL/MOL
REMARK 927      BINDING AFFINITY PREDICTED BY RF-SCORE:    0.00 PKD
ROOT
HETATM    1  C   UNL     1     -10.466  19.717  66.371  1.00  0.00    -0.618 C  
HETATM    2  C   UNL     1      -9.295  18.917  66.944  1.00  0.00    -0.309 C  
HETATM    3  C   UNL     1      -8.276  19.872  67.569  1.00  0.00    -0.358 C  
ENDROOT
BRANCH   2   4
HETATM    4  N   UNL     1      -9.827  17.973  67.928  1.00  0.00    -0.294 NA 
HETATM    5  H   UNL     1     -10.729  17.605  67.626  1.00  0.00     0.000 HD 
BRANCH   4   6
HETATM    6  C   UNL     1      -8.899  16.880  68.248  1.00  0.00    -0.228 C  
BRANCH   6   7
HETATM    7  C   UNL     1      -9.666  15.737  68.929  1.00  0.00    -0.225 C  
HETATM    8  O   UNL     1      -8.800  15.046  69.843  1.00  0.00    -0.448 OA 
HETATM    9  H   UNL     1      -9.274  14.339  70.264  1.00  0.00     0.000 HD 
BRANCH   7  10
HETATM   10  C   UNL     1     -10.901  16.250  69.678  1.00  0.00    -0.345 C  
BRANCH  10  11
HETATM   11  O   UNL     1     -12.052  15.451  69.352  1.00  0.00    -0.325 OA 
BRANCH  11  12
HETATM   12  C   UNL     1     -12.634  14.813  70.429  1.00  0.00    -0.346 A  
HETATM   13  C   UNL     1     -13.411  15.501  71.371  1.00  0.00    -0.583 A  
HETATM   14  C   UNL     1     -13.987  14.833  72.445  1.00  0.00    -0.575 A  
HETATM   15  C   UNL     1     -13.815  13.460  72.578  1.00  0.00    -0.595 A  
HETATM   16  C   UNL     1     -13.078  12.736  71.632  1.00  0.00    -0.428 A  
HETATM   17  C   UNL     1     -12.473  13.406  70.536  1.00  0.00    -0.350 A  
HETATM   18  C   UNL     1     -11.738  12.621  69.618  1.00  0.00    -0.373 A  
HETATM   19  C   UNL     1     -11.616  11.234  69.769  1.00  0.00    -0.408 A  
HETATM   20  C   UNL     1     -12.224  10.596  70.846  1.00  0.00    -0.497 A  
HETATM   21  C   UNL     1     -12.946  11.345  71.771  1.00  0.00    -0.519 A  
ENDBRANCH  11  12
ENDBRANCH  10  11
ENDBRANCH   7  10
ENDBRANCH   6   7
ENDBRANCH   4   6
ENDBRANCH   2   4
TORSDOF 6
ENDMDL
MODEL       27
REMARK 921   NORMALIZED FREE ENERGY PREDICTED BY IDOCK:   -5.60 KCAL/MOL
REMARK 922        TOTAL FREE ENERGY PREDICTED BY IDOCK:   -8.25 KCAL/MOL
REMARK 923 INTER-LIGAND FREE ENERGY PREDICTED BY IDOCK:   -7.78 KCAL/MOL
REMARK 924 INTRA-LIGAND FREE ENERGY PREDICTED BY IDOCK:   -0.47 KCAL/MOL
REMARK 927      BINDING AFFINITY PREDICTED BY RF-SCORE:    0.00 PKD
ROOT
HETATM    1  C   UNL     1     -10.389  19.801  66.678  1.00  0.00    -0.614 C  
HETATM    2  C   UNL     1      -9.689  18.454  66.498  1.00  0.00    -0.348 C  
HETATM    3  C   UNL     1      -9.637  17.716  67.838  1.00  0.00    -0.282 C  
ENDROOT
BRANCH   2   4
HETATM    4  N   UNL     1     -10.422  17.690  65.486  1.00  0.00    -0.638 NA 
HETATM    5  H   UNL     1     -10.092  17.920  64.549  1.00  0.00     0.000 HD 
BRANCH   4   6
HETATM    6  C   UNL     1     -10.386  16.239  65.711  1.00  0.00    -0.374 C  
BRANCH   6   7
HETATM    7  C   UNL     1     -11.422  15.553  64.810  1.00  0.00    -0.313 C  
HETATM    8  O   UNL     1     -11.594  16.311  63.602  1.00  0.00    -1.424 OA 
HETATM    9  H   UNL     1     -12.236  15.887  63.045  1.00  0.00     0.000 HD 
BRANCH   7  10
HETATM   10  C   UNL     1     -11.013  14.117  64.465  1.00  0.00    -0.328 C  
BRANCH  10  11
HETATM   11  O   UNL     1      -9.980  13.663  65.355  1.00  0.00    -0.283 OA 
BRANCH  11  12
HETATM   12  C   UNL     1     -10.207  12.422  65.916  1.00  0.00    -0.251 A  
HETATM   13  C   UNL     1      -9.831  11.234  65.276  1.00  0.00    -0.291 A  
HETATM   14  C   UNL     1     -10.072   9.999  65.865  1.00  0.00    -0.319 A  
HETATM   15  C   UNL     1     -10.670   9.935  67.118  1.00  0.00    -0.276 A  
HETATM   16  C   UNL     1     -11.022  11.105  67.804  1.00  0.00    -0.315 A  
HETATM   17  C   UNL     1     -10.795  12.374  67.209  1.00  0.00    -0.279 A  
HETATM   18  C   UNL     1     -11.177  13.517  67.949  1.00  0.00    -0.302 A  
HETATM   19  C   UNL     1     -11.747  13.411  69.223  1.00  0.00    -0.383 A  
HETATM   20  C   UNL     1     -11.953  12.158  69.791  1.00  0.00    -0.372 A  
HETATM   21  C   UNL     1     -11.596  11.014  69.082  1.00  0.00    -0.389 A  
ENDBRANCH  11  12
ENDBRANCH  10  11
ENDBRANCH   7  10
ENDBRANCH   6   7
ENDBRANCH   4   6
ENDBRANCH   2   4
TORSDOF 6
ENDMDL
MODEL       28
REMARK 921   NORMALIZED FREE ENERGY PREDICTED BY IDOCK:   -5.57 KCAL/MOL
REMARK 922        TOTAL FREE ENERGY PREDICTED BY IDOCK:   -8.20 KCAL/MOL
REMARK 923 INTER-LIGAND FREE ENERGY PREDICTED BY IDOCK:   -7.47 KCAL/MOL
REMARK 924 INTRA-LIGAND FREE ENERGY PREDICTED BY IDOCK:   -0.73 KCAL/MOL
REMARK 927      BINDING AFFINITY PREDICTED BY RF-SCORE:    0.00 PKD
ROOT
HETATM    1  C   UNL     1     -10.685  19.578  67.169  1.00  0.00    -0.599 C  
HETATM    2  C   UNL     1     -10.015  18.417  66.433  1.00  0.00    -0.386 C  
HETATM    3  C   UNL     1      -8.494  18.537  66.555  1.00  0.00    -0.291 C  
ENDROOT
BRANCH   2   4
HETATM    4  N   UNL     1     -10.508  17.166  67.012  1.00  0.00    -0.309 NA 
HETATM    5  H   UNL     1     -10.387  16.393  66.359  1.00  0.00     0.000 HD 
BRANCH   4   6
HETATM    6  C   UNL     1      -9.904  16.848  68.313  1.00  0.00    -0.266 C  
BRANCH   6   7
HETATM    7  C   UNL     1      -9.182  15.495  68.228  1.00  0.00    -0.188 C  
HETATM    8  O   UNL     1      -8.774  15.077  69.540  1.00  0.00    -0.390 OA 
HETATM    9  H   UNL     1      -8.328  14.241  69.487  1.00  0.00     0.000 HD 
BRANCH   7  10
HETATM   10  C   UNL     1     -10.069  14.418  67.595  1.00  0.00    -0.222 C  
BRANCH  10  11
HETATM   11  O   UNL     1     -11.414  14.521  68.092  1.00  0.00    -0.282 OA 
BRANCH  11  12
HETATM   12  C   UNL     1     -11.780  13.525  68.976  1.00  0.00    -0.327 A  
HETATM   13  C   UNL     1     -11.504  12.173  68.730  1.00  0.00    -0.359 A  
HETATM   14  C   UNL     1     -11.883  11.192  69.638  1.00  0.00    -0.419 A  
HETATM   15  C   UNL     1     -12.521  11.551  70.819  1.00  0.00    -0.444 A  
HETATM   16  C   UNL     1     -12.776  12.897  71.115  1.00  0.00    -0.366 A  
HETATM   17  C   UNL     1     -12.407  13.910  70.191  1.00  0.00    -0.400 A  
HETATM   18  C   UNL     1     -12.695  15.249  70.544  1.00  0.00    -0.440 A  
HETATM   19  C   UNL     1     -13.310  15.573  71.759  1.00  0.00    -0.577 A  
HETATM   20  C   UNL     1     -13.656  14.565  72.654  1.00  0.00    -0.577 A  
HETATM   21  C   UNL     1     -13.393  13.237  72.329  1.00  0.00    -0.630 A  
ENDBRANCH  11  12
ENDBRANCH  10  11
ENDBRANCH   7  10
ENDBRANCH   6   7
ENDBRANCH   4   6
ENDBRANCH   2   4
TORSDOF 6
ENDMDL
MODEL       29
REMARK 921   NORMALIZED FREE ENERGY PREDICTED BY IDOCK:   -5.54 KCAL/MOL
REMARK 922        TOTAL FREE ENERGY PREDICTED BY IDOCK:   -8.15 KCAL/MOL
REMARK 923 INTER-LIGAND FREE ENERGY PREDICTED BY IDOCK:   -7.61 KCAL/MOL
REMARK 924 INTRA-LIGAND FREE ENERGY PREDICTED BY IDOCK:   -0.55 KCAL/MOL
REMARK 927      BINDING AFFINITY PREDICTED BY RF-SCORE:    0.00 PKD
ROOT
HETATM    1  C   UNL     1      -9.741  11.453  63.066  1.00  0.00    -0.393 C  
HETATM    2  C   UNL     1     -10.361  10.932  64.363  1.00  0.00    -0.361 C  
HETATM    3  C   UNL     1      -9.339  11.031  65.499  1.00  0.00    -0.242 C  
ENDROOT
BRANCH   2   4
HETATM    4  N   UNL     1     -11.561  11.722  64.644  1.00  0.00    -0.247 NA 
HETATM    5  H   UNL     1     -11.495  12.167  65.559  1.00  0.00     0.000 HD 
BRANCH   4   6
HETATM    6  C   UNL     1     -11.865  12.712  63.603  1.00  0.00    -0.530 C  
BRANCH   6   7
HETATM    7  C   UNL     1     -12.072  14.090  64.249  1.00  0.00    -0.445 C  
HETATM    8  O   UNL     1     -13.116  14.014  65.232  1.00  0.00    -0.782 OA 
HETATM    9  H   UNL     1     -13.244  14.866  65.632  1.00  0.00     0.000 HD 
BRANCH   7  10
HETATM   10  C   UNL     1     -10.786  14.610  64.901  1.00  0.00    -0.419 C  
BRANCH  10  11
HETATM   11  O   UNL     1     -10.906  16.012  65.195  1.00  0.00    -0.418 OA 
BRANCH  11  12
HETATM   12  C   UNL     1     -10.720  16.340  66.523  1.00  0.00    -0.187 A  
HETATM   13  C   UNL     1     -10.705  15.370  67.535  1.00  0.00    -0.295 A  
HETATM   14  C   UNL     1     -10.515  15.729  68.864  1.00  0.00    -0.223 A  
HETATM   15  C   UNL     1     -10.310  17.062  69.198  1.00  0.00    -0.313 A  
HETATM   16  C   UNL     1     -10.278  18.052  68.207  1.00  0.00    -0.402 A  
HETATM   17  C   UNL     1     -10.484  17.703  66.846  1.00  0.00    -0.290 A  
HETATM   18  C   UNL     1     -10.446  18.748  65.893  1.00  0.00    -0.424 A  
HETATM   19  C   UNL     1     -10.203  20.075  66.268  1.00  0.00    -0.595 A  
HETATM   20  C   UNL     1      -9.995  20.394  67.606  1.00  0.00    -0.514 A  
HETATM   21  C   UNL     1     -10.037  19.388  68.568  1.00  0.00    -0.527 A  
ENDBRANCH  11  12
ENDBRANCH  10  11
ENDBRANCH   7  10
ENDBRANCH   6   7
ENDBRANCH   4   6
ENDBRANCH   2   4
TORSDOF 6
ENDMDL
MODEL       30
REMARK 921   NORMALIZED FREE ENERGY PREDICTED BY IDOCK:   -5.49 KCAL/MOL
REMARK 922        TOTAL FREE ENERGY PREDICTED BY IDOCK:   -8.09 KCAL/MOL
REMARK 923 INTER-LIGAND FREE ENERGY PREDICTED BY IDOCK:   -7.43 KCAL/MOL
REMARK 924 INTRA-LIGAND FREE ENERGY PREDICTED BY IDOCK:   -0.66 KCAL/MOL
REMARK 927      BINDING AFFINITY PREDICTED BY RF-SCORE:    0.00 PKD
ROOT
HETATM    1  C   UNL     1     -12.531  15.510  70.620  1.00  0.00    -0.483 C  
HETATM    2  C   UNL     1     -12.443  14.229  71.451  1.00  0.00    -0.360 C  
HETATM    3  C   UNL     1     -13.800  13.940  72.098  1.00  0.00    -0.636 C  
ENDROOT
BRANCH   2   4
HETATM    4  N   UNL     1     -12.020  13.141  70.567  1.00  0.00    -0.527 NA 
HETATM    5  H   UNL     1     -11.015  13.181  70.400  1.00  0.00     0.000 HD 
BRANCH   4   6
HETATM    6  C   UNL     1     -12.416  11.811  71.051  1.00  0.00    -0.309 C  
BRANCH   6   7
HETATM    7  C   UNL     1     -11.685  10.732  70.239  1.00  0.00    -0.352 C  
HETATM    8  O   UNL     1     -12.132   9.429  70.647  1.00  0.00    -0.420 OA 
HETATM    9  H   UNL     1     -11.680   8.762  70.146  1.00  0.00     0.000 HD 
BRANCH   7  10
HETATM   10  C   UNL     1     -11.908  10.905  68.733  1.00  0.00    -0.235 C  
BRANCH  10  11
HETATM   11  O   UNL     1     -10.944  11.821  68.186  1.00  0.00    -0.203 OA 
BRANCH  11  12
HETATM   12  C   UNL     1     -11.294  12.364  66.966  1.00  0.00    -0.327 A  
HETATM   13  C   UNL     1     -12.137  13.478  66.860  1.00  0.00    -0.417 A  
HETATM   14  C   UNL     1     -12.471  14.004  65.618  1.00  0.00    -0.531 A  
HETATM   15  C   UNL     1     -11.945  13.440  64.463  1.00  0.00    -0.452 A  
HETATM   16  C   UNL     1     -11.066  12.351  64.535  1.00  0.00    -0.360 A  
HETATM   17  C   UNL     1     -10.725  11.793  65.795  1.00  0.00    -0.328 A  
HETATM   18  C   UNL     1      -9.838  10.691  65.802  1.00  0.00    -0.296 A  
HETATM   19  C   UNL     1      -9.303  10.172  64.616  1.00  0.00    -0.334 A  
HETATM   20  C   UNL     1      -9.644  10.739  63.392  1.00  0.00    -0.375 A  
HETATM   21  C   UNL     1     -10.523  11.818  63.354  1.00  0.00    -0.485 A  
ENDBRANCH  11  12
ENDBRANCH  10  11
ENDBRANCH   7  10
ENDBRANCH   6   7
ENDBRANCH   4   6
ENDBRANCH   2   4
TORSDOF 6
ENDMDL
MODEL       31
REMARK 921   NORMALIZED FREE ENERGY PREDICTED BY IDOCK:   -5.47 KCAL/MOL
REMARK 922        TOTAL FREE ENERGY PREDICTED BY IDOCK:   -8.07 KCAL/MOL
REMARK 923 INTER-LIGAND FREE ENERGY PREDICTED BY IDOCK:   -7.40 KCAL/MOL
REMARK 924 INTRA-LIGAND FREE ENERGY PREDICTED BY IDOCK:   -0.67 KCAL/MOL
REMARK 927      BINDING AFFINITY PREDICTED BY RF-SCORE:    0.00 PKD
ROOT
HETATM    1  C   UNL     1     -11.735  16.090  72.145  1.00  0.00    -0.587 C  
HETATM    2  C   UNL     1     -12.556  14.805  72.037  1.00  0.00    -0.328 C  
HETATM    3  C   UNL     1     -13.994  15.143  71.639  1.00  0.00    -0.618 C  
ENDROOT
BRANCH   2   4
HETATM    4  N   UNL     1     -11.911  13.933  71.053  1.00  0.00    -0.493 NA 
HETATM    5  H   UNL     1     -10.937  13.763  71.303  1.00  0.00     0.000 HD 
BRANCH   4   6
HETATM    6  C   UNL     1     -12.624  12.667  70.839  1.00  0.00    -0.249 C  
BRANCH   6   7
HETATM    7  C   UNL     1     -11.810  11.772  69.894  1.00  0.00    -0.348 C  
HETATM    8  O   UNL     1     -12.630  10.693  69.419  1.00  0.00    -0.683 OA 
HETATM    9  H   UNL     1     -12.126  10.139  68.834  1.00  0.00     0.000 HD 
BRANCH   7  10
HETATM   10  C   UNL     1     -11.254  12.560  68.704  1.00  0.00    -0.278 C  
BRANCH  10  11
HETATM   11  O   UNL     1     -12.199  13.557  68.277  1.00  0.00    -0.313 OA 
BRANCH  11  12
HETATM   12  C   UNL     1     -11.854  14.219  67.117  1.00  0.00    -0.425 A  
HETATM   13  C   UNL     1     -12.352  13.837  65.864  1.00  0.00    -0.516 A  
HETATM   14  C   UNL     1     -11.988  14.523  64.712  1.00  0.00    -0.449 A  
HETATM   15  C   UNL     1     -11.139  15.620  64.799  1.00  0.00    -0.426 A  
HETATM   16  C   UNL     1     -10.655  16.054  66.040  1.00  0.00    -0.324 A  
HETATM   17  C   UNL     1     -11.007  15.355  67.225  1.00  0.00    -0.317 A  
HETATM   18  C   UNL     1     -10.482  15.838  68.446  1.00  0.00    -0.245 A  
HETATM   19  C   UNL     1      -9.655  16.968  68.495  1.00  0.00    -0.273 A  
HETATM   20  C   UNL     1      -9.330  17.643  67.323  1.00  0.00    -0.249 A  
HETATM   21  C   UNL     1      -9.824  17.184  66.104  1.00  0.00    -0.280 A  
ENDBRANCH  11  12
ENDBRANCH  10  11
ENDBRANCH   7  10
ENDBRANCH   6   7
ENDBRANCH   4   6
ENDBRANCH   2   4
TORSDOF 6
ENDMDL
MODEL       32
REMARK 921   NORMALIZED FREE ENERGY PREDICTED BY IDOCK:   -5.46 KCAL/MOL
REMARK 922        TOTAL FREE ENERGY PREDICTED BY IDOCK:   -8.05 KCAL/MOL
REMARK 923 INTER-LIGAND FREE ENERGY PREDICTED BY IDOCK:   -7.04 KCAL/MOL
REMARK 924 INTRA-LIGAND FREE ENERGY PREDICTED BY IDOCK:   -1.01 KCAL/MOL
REMARK 927      BINDING AFFINITY PREDICTED BY RF-SCORE:    0.00 PKD
ROOT
HETATM    1  C   UNL     1     -10.133  14.063  67.497  1.00  0.00    -0.237 C  
HETATM    2  C   UNL     1     -11.617  14.196  67.152  1.00  0.00    -0.377 C  
HETATM    3  C   UNL     1     -12.151  12.854  66.646  1.00  0.00    -0.360 C  
ENDROOT
BRANCH   2   4
HETATM    4  N   UNL     1     -12.326  14.643  68.353  1.00  0.00    -0.606 NA 
HETATM    5  H   UNL     1     -13.109  14.025  68.562  1.00  0.00     0.000 HD 
BRANCH   4   6
HETATM    6  C   UNL     1     -11.452  14.792  69.524  1.00  0.00    -0.298 C  
BRANCH   6   7
HETATM    7  C   UNL     1     -12.307  14.871  70.797  1.00  0.00    -0.329 C  
HETATM    8  O   UNL     1     -13.446  15.716  70.566  1.00  0.00    -0.821 OA 
HETATM    9  H   UNL     1     -13.975  15.766  71.353  1.00  0.00     0.000 HD 
BRANCH   7  10
HETATM   10  C   UNL     1     -12.777  13.486  71.252  1.00  0.00    -0.348 C  
BRANCH  10  11
HETATM   11  O   UNL     1     -12.339  12.478  70.325  1.00  0.00    -0.277 OA 
BRANCH  11  12
HETATM   12  C   UNL     1     -12.360  11.190  70.822  1.00  0.00    -0.406 A  
HETATM   13  C   UNL     1     -13.232  10.801  71.847  1.00  0.00    -0.524 A  
HETATM   14  C   UNL     1     -13.232   9.497  72.327  1.00  0.00    -0.507 A  
HETATM   15  C   UNL     1     -12.376   8.555  71.770  1.00  0.00    -0.388 A  
HETATM   16  C   UNL     1     -11.520   8.900  70.716  1.00  0.00    -0.319 A  
HETATM   17  C   UNL     1     -11.498  10.231  70.224  1.00  0.00    -0.395 A  
HETATM   18  C   UNL     1     -10.608  10.519  69.163  1.00  0.00    -0.258 A  
HETATM   19  C   UNL     1      -9.785   9.533  68.606  1.00  0.00    -0.163 A  
HETATM   20  C   UNL     1      -9.828   8.232  69.098  1.00  0.00    -0.179 A  
HETATM   21  C   UNL     1     -10.687   7.922  70.149  1.00  0.00    -0.244 A  
ENDBRANCH  11  12
ENDBRANCH  10  11
ENDBRANCH   7  10
ENDBRANCH   6   7
ENDBRANCH   4   6
ENDBRANCH   2   4
TORSDOF 6
ENDMDL
MODEL       33
REMARK 921   NORMALIZED FREE ENERGY PREDICTED BY IDOCK:   -5.45 KCAL/MOL
REMARK 922        TOTAL FREE ENERGY PREDICTED BY IDOCK:   -8.04 KCAL/MOL
REMARK 923 INTER-LIGAND FREE ENERGY PREDICTED BY IDOCK:   -7.24 KCAL/MOL
REMARK 924 INTRA-LIGAND FREE ENERGY PREDICTED BY IDOCK:   -0.80 KCAL/MOL
REMARK 927      BINDING AFFINITY PREDICTED BY RF-SCORE:    0.00 PKD
ROOT
HETATM    1  C   UNL     1     -11.876   7.776  72.565  1.00  0.00    -0.354 C  
HETATM    2  C   UNL     1     -12.746   7.090  71.512  1.00  0.00    -0.381 C  
HETATM    3  C   UNL     1     -14.156   7.686  71.540  1.00  0.00    -0.535 C  
ENDROOT
BRANCH   2   4
HETATM    4  N   UNL     1     -12.108   7.270  70.206  1.00  0.00    -0.557 NA 
HETATM    5  H   UNL     1     -12.507   8.069  69.715  1.00  0.00     0.000 HD 
BRANCH   4   6
HETATM    6  C   UNL     1     -10.645   7.384  70.284  1.00  0.00    -0.231 C  
BRANCH   6   7
HETATM    7  C   UNL     1     -10.169   8.521  69.368  1.00  0.00    -0.211 C  
HETATM    8  O   UNL     1     -10.856   8.452  68.109  1.00  0.00    -0.443 OA 
HETATM    9  H   UNL     1     -10.562   9.155  67.543  1.00  0.00     0.000 HD 
BRANCH   7  10
HETATM   10  C   UNL     1     -10.397   9.896  70.006  1.00  0.00    -0.272 C  
BRANCH  10  11
HETATM   11  O   UNL     1     -11.562  10.523  69.442  1.00  0.00    -0.257 OA 
BRANCH  11  12
HETATM   12  C   UNL     1     -12.149  11.478  70.246  1.00  0.00    -0.359 A  
HETATM   13  C   UNL     1     -12.898  11.139  71.381  1.00  0.00    -0.544 A  
HETATM   14  C   UNL     1     -13.477  12.122  72.174  1.00  0.00    -0.383 A  
HETATM   15  C   UNL     1     -13.293  13.463  71.858  1.00  0.00    -0.539 A  
HETATM   16  C   UNL     1     -12.516  13.838  70.754  1.00  0.00    -0.441 A  
HETATM   17  C   UNL     1     -11.929  12.845  69.926  1.00  0.00    -0.377 A  
HETATM   18  C   UNL     1     -11.161  13.287  68.824  1.00  0.00    -0.303 A  
HETATM   19  C   UNL     1     -10.972  14.649  68.559  1.00  0.00    -0.261 A  
HETATM   20  C   UNL     1     -11.549  15.605  69.388  1.00  0.00    -0.378 A  
HETATM   21  C   UNL     1     -12.319  15.200  70.475  1.00  0.00    -0.408 A  
ENDBRANCH  11  12
ENDBRANCH  10  11
ENDBRANCH   7  10
ENDBRANCH   6   7
ENDBRANCH   4   6
ENDBRANCH   2   4
TORSDOF 6
ENDMDL
MODEL       34
REMARK 921   NORMALIZED FREE ENERGY PREDICTED BY IDOCK:   -5.41 KCAL/MOL
REMARK 922        TOTAL FREE ENERGY PREDICTED BY IDOCK:   -7.99 KCAL/MOL
REMARK 923 INTER-LIGAND FREE ENERGY PREDICTED BY IDOCK:   -7.46 KCAL/MOL
REMARK 924 INTRA-LIGAND FREE ENERGY PREDICTED BY IDOCK:   -0.53 KCAL/MOL
REMARK 927      BINDING AFFINITY PREDICTED BY RF-SCORE:    0.00 PKD
ROOT
HETATM    1  C   UNL     1      -9.676  18.573  66.194  1.00  0.00    -0.241 C  
HETATM    2  C   UNL     1      -9.969  17.073  66.236  1.00  0.00    -0.310 C  
HETATM    3  C   UNL     1     -10.616  16.711  67.575  1.00  0.00    -0.311 C  
ENDROOT
BRANCH   2   4
HETATM    4  N   UNL     1     -10.843  16.748  65.106  1.00  0.00    -0.591 NA 
HETATM    5  H   UNL     1     -10.612  17.320  64.295  1.00  0.00     0.000 HD 
BRANCH   4   6
HETATM    6  C   UNL     1     -10.837  15.321  64.757  1.00  0.00    -0.358 C  
BRANCH   6   7
HETATM    7  C   UNL     1     -12.280  14.834  64.562  1.00  0.00    -0.428 C  
HETATM    8  O   UNL     1     -12.420  14.231  63.266  1.00  0.00    -1.133 OA 
HETATM    9  H   UNL     1     -13.312  13.931  63.145  1.00  0.00     0.000 HD 
BRANCH   7  10
HETATM   10  C   UNL     1     -12.692  13.831  65.645  1.00  0.00    -0.478 C  
BRANCH  10  11
HETATM   11  O   UNL     1     -11.529  13.220  66.230  1.00  0.00    -0.304 OA 
BRANCH  11  12
HETATM   12  C   UNL     1     -11.649  12.922  67.573  1.00  0.00    -0.356 A  
HETATM   13  C   UNL     1     -12.142  13.850  68.500  1.00  0.00    -0.331 A  
HETATM   14  C   UNL     1     -12.252  13.523  69.846  1.00  0.00    -0.356 A  
HETATM   15  C   UNL     1     -11.895  12.253  70.281  1.00  0.00    -0.324 A  
HETATM   16  C   UNL     1     -11.436  11.288  69.374  1.00  0.00    -0.370 A  
HETATM   17  C   UNL     1     -11.306  11.611  67.998  1.00  0.00    -0.366 A  
HETATM   18  C   UNL     1     -10.832  10.596  67.133  1.00  0.00    -0.328 A  
HETATM   19  C   UNL     1     -10.514   9.317  67.606  1.00  0.00    -0.325 A  
HETATM   20  C   UNL     1     -10.658   9.020  68.957  1.00  0.00    -0.209 A  
HETATM   21  C   UNL     1     -11.112  10.001  69.834  1.00  0.00    -0.336 A  
ENDBRANCH  11  12
ENDBRANCH  10  11
ENDBRANCH   7  10
ENDBRANCH   6   7
ENDBRANCH   4   6
ENDBRANCH   2   4
TORSDOF 6
ENDMDL
MODEL       35
REMARK 921   NORMALIZED FREE ENERGY PREDICTED BY IDOCK:   -5.38 KCAL/MOL
REMARK 922        TOTAL FREE ENERGY PREDICTED BY IDOCK:   -7.94 KCAL/MOL
REMARK 923 INTER-LIGAND FREE ENERGY PREDICTED BY IDOCK:   -7.25 KCAL/MOL
REMARK 924 INTRA-LIGAND FREE ENERGY PREDICTED BY IDOCK:   -0.69 KCAL/MOL
REMARK 927      BINDING AFFINITY PREDICTED BY RF-SCORE:    0.00 PKD
ROOT
HETATM    1  C   UNL     1     -14.215  15.198  71.874  1.00  0.00    -0.676 C  
HETATM    2  C   UNL     1     -12.894  15.763  72.395  1.00  0.00    -0.457 C  
HETATM    3  C   UNL     1     -12.661  15.290  73.832  1.00  0.00    -0.662 C  
ENDROOT
BRANCH   2   4
HETATM    4  N   UNL     1     -11.824  15.320  71.499  1.00  0.00    -0.344 NA 
HETATM    5  H   UNL     1     -11.678  14.314  71.580  1.00  0.00     0.000 HD 
BRANCH   4   6
HETATM    6  C   UNL     1     -12.040  15.704  70.098  1.00  0.00    -0.377 C  
BRANCH   6   7
HETATM    7  C   UNL     1     -11.641  14.541  69.179  1.00  0.00    -0.298 C  
HETATM    8  O   UNL     1     -12.375  14.620  67.946  1.00  0.00    -0.614 OA 
HETATM    9  H   UNL     1     -12.128  13.900  67.378  1.00  0.00     0.000 HD 
BRANCH   7  10
HETATM   10  C   UNL     1     -10.137  14.540  68.884  1.00  0.00    -0.224 C  
BRANCH  10  11
HETATM   11  O   UNL     1      -9.543  15.780  69.306  1.00  0.00    -0.236 OA 
BRANCH  11  12
HETATM   12  C   UNL     1      -8.730  16.379  68.366  1.00  0.00    -0.213 A  
HETATM   13  C   UNL     1      -7.533  15.792  67.934  1.00  0.00    -0.147 A  
HETATM   14  C   UNL     1      -6.734  16.418  66.985  1.00  0.00    -0.239 A  
HETATM   15  C   UNL     1      -7.133  17.629  66.433  1.00  0.00    -0.310 A  
HETATM   16  C   UNL     1      -8.344  18.223  66.813  1.00  0.00    -0.269 A  
HETATM   17  C   UNL     1      -9.165  17.603  67.791  1.00  0.00    -0.251 A  
HETATM   18  C   UNL     1     -10.372  18.255  68.136  1.00  0.00    -0.393 A  
HETATM   19  C   UNL     1     -10.756  19.459  67.533  1.00  0.00    -0.570 A  
HETATM   20  C   UNL     1      -9.940  20.045  66.570  1.00  0.00    -0.603 A  
HETATM   21  C   UNL     1      -8.741  19.432  66.217  1.00  0.00    -0.364 A  
ENDBRANCH  11  12
ENDBRANCH  10  11
ENDBRANCH   7  10
ENDBRANCH   6   7
ENDBRANCH   4   6
ENDBRANCH   2   4
TORSDOF 6
ENDMDL
MODEL       36
REMARK 921   NORMALIZED FREE ENERGY PREDICTED BY IDOCK:   -5.38 KCAL/MOL
REMARK 922        TOTAL FREE ENERGY PREDICTED BY IDOCK:   -7.94 KCAL/MOL
REMARK 923 INTER-LIGAND FREE ENERGY PREDICTED BY IDOCK:   -7.01 KCAL/MOL
REMARK 924 INTRA-LIGAND FREE ENERGY PREDICTED BY IDOCK:   -0.93 KCAL/MOL
REMARK 927      BINDING AFFINITY PREDICTED BY RF-SCORE:    0.00 PKD
ROOT
HETATM    1  C   UNL     1     -12.724  14.091  65.141  1.00  0.00    -0.419 C  
HETATM    2  C   UNL     1     -12.270  12.643  64.961  1.00  0.00    -0.476 C  
HETATM    3  C   UNL     1     -12.612  12.167  63.547  1.00  0.00    -0.621 C  
ENDROOT
BRANCH   2   4
HETATM    4  N   UNL     1     -10.830  12.581  65.219  1.00  0.00    -0.279 NA 
HETATM    5  H   UNL     1     -10.585  13.141  66.036  1.00  0.00     0.000 HD 
BRANCH   4   6
HETATM    6  C   UNL     1     -10.320  11.210  65.354  1.00  0.00    -0.271 C  
BRANCH   6   7
HETATM    7  C   UNL     1      -9.354  11.136  66.546  1.00  0.00    -0.180 C  
HETATM    8  O   UNL     1      -7.998  11.132  66.074  1.00  0.00    -0.279 OA 
HETATM    9  H   UNL     1      -7.400  11.087  66.811  1.00  0.00     0.000 HD 
BRANCH   7  10
HETATM   10  C   UNL     1      -9.559  12.305  67.516  1.00  0.00    -0.184 C  
BRANCH  10  11
HETATM   11  O   UNL     1     -10.801  12.155  68.226  1.00  0.00    -0.204 OA 
BRANCH  11  12
HETATM   12  C   UNL     1     -11.252  13.303  68.845  1.00  0.00    -0.277 A  
HETATM   13  C   UNL     1     -11.006  14.579  68.321  1.00  0.00    -0.258 A  
HETATM   14  C   UNL     1     -11.474  15.718  68.965  1.00  0.00    -0.394 A  
HETATM   15  C   UNL     1     -12.219  15.596  70.132  1.00  0.00    -0.387 A  
HETATM   16  C   UNL     1     -12.518  14.333  70.661  1.00  0.00    -0.428 A  
HETATM   17  C   UNL     1     -12.036  13.161  70.022  1.00  0.00    -0.391 A  
HETATM   18  C   UNL     1     -12.366  11.916  70.608  1.00  0.00    -0.405 A  
HETATM   19  C   UNL     1     -13.147  11.834  71.767  1.00  0.00    -0.480 A  
HETATM   20  C   UNL     1     -13.617  12.996  72.373  1.00  0.00    -0.628 A  
HETATM   21  C   UNL     1     -13.299  14.235  71.824  1.00  0.00    -0.450 A  
ENDBRANCH  11  12
ENDBRANCH  10  11
ENDBRANCH   7  10
ENDBRANCH   6   7
ENDBRANCH   4   6
ENDBRANCH   2   4
TORSDOF 6
ENDMDL
MODEL       37
REMARK 921   NORMALIZED FREE ENERGY PREDICTED BY IDOCK:   -5.37 KCAL/MOL
REMARK 922        TOTAL FREE ENERGY PREDICTED BY IDOCK:   -7.93 KCAL/MOL
REMARK 923 INTER-LIGAND FREE ENERGY PREDICTED BY IDOCK:   -7.21 KCAL/MOL
REMARK 924 INTRA-LIGAND FREE ENERGY PREDICTED BY IDOCK:   -0.72 KCAL/MOL
REMARK 927      BINDING AFFINITY PREDICTED BY RF-SCORE:    0.00 PKD
ROOT
HETATM    1  C   UNL     1     -12.116  12.046  63.431  1.00  0.00    -0.597 C  
HETATM    2  C   UNL     1     -10.685  12.190  63.952  1.00  0.00    -0.407 C  
HETATM    3  C   UNL     1      -9.711  11.533  62.971  1.00  0.00    -0.382 C  
ENDROOT
BRANCH   2   4
HETATM    4  N   UNL     1     -10.404  13.617  64.121  1.00  0.00    -0.699 NA 
HETATM    5  H   UNL     1     -10.045  14.021  63.256  1.00  0.00     0.000 HD 
BRANCH   4   6
HETATM    6  C   UNL     1     -11.556  14.384  64.616  1.00  0.00    -0.409 C  
BRANCH   6   7
HETATM    7  C   UNL     1     -11.361  14.701  66.105  1.00  0.00    -0.350 C  
HETATM    8  O   UNL     1     -12.018  13.704  66.905  1.00  0.00    -0.386 OA 
HETATM    9  H   UNL     1     -11.898  13.900  67.826  1.00  0.00     0.000 HD 
BRANCH   7  10
HETATM   10  C   UNL     1      -9.877  14.768  66.482  1.00  0.00    -0.272 C  
BRANCH  10  11
HETATM   11  O   UNL     1      -9.213  15.791  65.722  1.00  0.00    -0.321 OA 
BRANCH  11  12
HETATM   12  C   UNL     1      -8.419  16.639  66.467  1.00  0.00    -0.292 A  
HETATM   13  C   UNL     1      -7.176  16.240  66.978  1.00  0.00    -0.262 A  
HETATM   14  C   UNL     1      -6.397  17.115  67.724  1.00  0.00    -0.158 A  
HETATM   15  C   UNL     1      -6.838  18.413  67.950  1.00  0.00    -0.219 A  
HETATM   16  C   UNL     1      -8.057  18.858  67.420  1.00  0.00    -0.280 A  
HETATM   17  C   UNL     1      -8.871  17.971  66.666  1.00  0.00    -0.280 A  
HETATM   18  C   UNL     1     -10.092  18.477  66.163  1.00  0.00    -0.391 A  
HETATM   19  C   UNL     1     -10.486  19.802  66.385  1.00  0.00    -0.618 A  
HETATM   20  C   UNL     1      -9.669  20.657  67.119  1.00  0.00    -0.530 A  
HETATM   21  C   UNL     1      -8.466  20.184  67.636  1.00  0.00    -0.357 A  
ENDBRANCH  11  12
ENDBRANCH  10  11
ENDBRANCH   7  10
ENDBRANCH   6   7
ENDBRANCH   4   6
ENDBRANCH   2   4
TORSDOF 6
ENDMDL
MODEL       38
REMARK 921   NORMALIZED FREE ENERGY PREDICTED BY IDOCK:   -5.30 KCAL/MOL
REMARK 922        TOTAL FREE ENERGY PREDICTED BY IDOCK:   -7.83 KCAL/MOL
REMARK 923 INTER-LIGAND FREE ENERGY PREDICTED BY IDOCK:   -7.05 KCAL/MOL
REMARK 924 INTRA-LIGAND FREE ENERGY PREDICTED BY IDOCK:   -0.78 KCAL/MOL
REMARK 927      BINDING AFFINITY PREDICTED BY RF-SCORE:    0.00 PKD
ROOT
HETATM    1  C   UNL     1     -10.884  14.644  64.917  1.00  0.00    -0.436 C  
HETATM    2  C   UNL     1     -12.293  14.154  65.250  1.00  0.00    -0.460 C  
HETATM    3  C   UNL     1     -12.525  12.780  64.617  1.00  0.00    -0.525 C  
ENDROOT
BRANCH   2   4
HETATM    4  N   UNL     1     -12.427  14.109  66.708  1.00  0.00    -0.553 NA 
HETATM    5  H   UNL     1     -13.402  14.219  66.985  1.00  0.00     0.000 HD 
BRANCH   4   6
HETATM    6  C   UNL     1     -11.846  12.901  67.309  1.00  0.00    -0.356 C  
BRANCH   6   7
HETATM    7  C   UNL     1     -11.205  13.257  68.658  1.00  0.00    -0.274 C  
HETATM    8  O   UNL     1     -10.843  12.055  69.357  1.00  0.00    -0.429 OA 
HETATM    9  H   UNL     1     -10.447  12.275  70.192  1.00  0.00     0.000 HD 
BRANCH   7  10
HETATM   10  C   UNL     1      -9.967  14.144  68.483  1.00  0.00    -0.235 C  
BRANCH  10  11
HETATM   11  O   UNL     1     -10.328  15.532  68.582  1.00  0.00    -0.211 OA 
BRANCH  11  12
HETATM   12  C   UNL     1      -9.258  16.400  68.668  1.00  0.00    -0.231 A  
HETATM   13  C   UNL     1      -8.024  16.011  69.205  1.00  0.00    -0.238 A  
HETATM   14  C   UNL     1      -6.964  16.906  69.278  1.00  0.00    -0.211 A  
HETATM   15  C   UNL     1      -7.115  18.199  68.790  1.00  0.00    -0.287 A  
HETATM   16  C   UNL     1      -8.323  18.608  68.211  1.00  0.00    -0.350 A  
HETATM   17  C   UNL     1      -9.419  17.710  68.141  1.00  0.00    -0.286 A  
HETATM   18  C   UNL     1     -10.614  18.184  67.549  1.00  0.00    -0.419 A  
HETATM   19  C   UNL     1     -10.715  19.484  67.040  1.00  0.00    -0.592 A  
HETATM   20  C   UNL     1      -9.625  20.346  67.110  1.00  0.00    -0.587 A  
HETATM   21  C   UNL     1      -8.440  19.910  67.696  1.00  0.00    -0.374 A  
ENDBRANCH  11  12
ENDBRANCH  10  11
ENDBRANCH   7  10
ENDBRANCH   6   7
ENDBRANCH   4   6
ENDBRANCH   2   4
TORSDOF 6
ENDMDL
MODEL       39
REMARK 921   NORMALIZED FREE ENERGY PREDICTED BY IDOCK:   -5.29 KCAL/MOL
REMARK 922        TOTAL FREE ENERGY PREDICTED BY IDOCK:   -7.82 KCAL/MOL
REMARK 923 INTER-LIGAND FREE ENERGY PREDICTED BY IDOCK:   -7.42 KCAL/MOL
REMARK 924 INTRA-LIGAND FREE ENERGY PREDICTED BY IDOCK:   -0.40 KCAL/MOL
REMARK 927      BINDING AFFINITY PREDICTED BY RF-SCORE:    0.00 PKD
ROOT
HETATM    1  C   UNL     1     -12.355  12.215  63.435  1.00  0.00    -0.648 C  
HETATM    2  C   UNL     1     -12.728  12.682  64.843  1.00  0.00    -0.370 C  
HETATM    3  C   UNL     1     -11.763  12.070  65.861  1.00  0.00    -0.312 C  
ENDROOT
BRANCH   2   4
HETATM    4  N   UNL     1     -12.684  14.145  64.865  1.00  0.00    -0.685 NA 
HETATM    5  H   UNL     1     -13.544  14.527  65.256  1.00  0.00     0.000 HD 
BRANCH   4   6
HETATM    6  C   UNL     1     -11.509  14.682  65.565  1.00  0.00    -0.341 C  
BRANCH   6   7
HETATM    7  C   UNL     1     -10.939  15.870  64.775  1.00  0.00    -0.375 C  
HETATM    8  O   UNL     1     -11.824  16.206  63.695  1.00  0.00    -1.370 OA 
HETATM    9  H   UNL     1     -11.472  16.940  63.206  1.00  0.00     0.000 HD 
BRANCH   7  10
HETATM   10  C   UNL     1     -10.727  17.096  65.668  1.00  0.00    -0.136 C  
BRANCH  10  11
HETATM   11  O   UNL     1      -9.356  17.527  65.610  1.00  0.00    -0.467 OA 
BRANCH  11  12
HETATM   12  C   UNL     1      -8.640  17.328  66.774  1.00  0.00    -0.249 A  
HETATM   13  C   UNL     1      -8.585  16.081  67.411  1.00  0.00    -0.194 A  
HETATM   14  C   UNL     1      -7.855  15.910  68.580  1.00  0.00    -0.164 A  
HETATM   15  C   UNL     1      -7.147  16.978  69.117  1.00  0.00    -0.221 A  
HETATM   16  C   UNL     1      -7.148  18.228  68.484  1.00  0.00    -0.277 A  
HETATM   17  C   UNL     1      -7.899  18.423  67.295  1.00  0.00    -0.234 A  
HETATM   18  C   UNL     1      -7.865  19.708  66.706  1.00  0.00    -0.305 A  
HETATM   19  C   UNL     1      -7.112  20.751  67.261  1.00  0.00    -0.417 A  
HETATM   20  C   UNL     1      -6.376  20.536  68.422  1.00  0.00    -0.351 A  
HETATM   21  C   UNL     1      -6.399  19.283  69.029  1.00  0.00    -0.306 A  
ENDBRANCH  11  12
ENDBRANCH  10  11
ENDBRANCH   7  10
ENDBRANCH   6   7
ENDBRANCH   4   6
ENDBRANCH   2   4
TORSDOF 6
ENDMDL
MODEL       40
REMARK 921   NORMALIZED FREE ENERGY PREDICTED BY IDOCK:   -5.27 KCAL/MOL
REMARK 922        TOTAL FREE ENERGY PREDICTED BY IDOCK:   -7.80 KCAL/MOL
REMARK 923 INTER-LIGAND FREE ENERGY PREDICTED BY IDOCK:   -6.98 KCAL/MOL
REMARK 924 INTRA-LIGAND FREE ENERGY PREDICTED BY IDOCK:   -0.82 KCAL/MOL
REMARK 927      BINDING AFFINITY PREDICTED BY RF-SCORE:    0.00 PKD
ROOT
HETATM    1  C   UNL     1      -9.827   9.918  66.584  1.00  0.00    -0.265 C  
HETATM    2  C   UNL     1      -9.557  10.717  65.308  1.00  0.00    -0.241 C  
HETATM    3  C   UNL     1      -8.934   9.804  64.250  1.00  0.00    -0.276 C  
ENDROOT
BRANCH   2   4
HETATM    4  N   UNL     1     -10.826  11.289  64.852  1.00  0.00    -0.267 NA 
HETATM    5  H   UNL     1     -11.283  11.801  65.606  1.00  0.00     0.000 HD 
BRANCH   4   6
HETATM    6  C   UNL     1     -10.689  12.132  63.657  1.00  0.00    -0.467 C  
BRANCH   6   7
HETATM    7  C   UNL     1     -12.003  12.886  63.407  1.00  0.00    -0.537 C  
HETATM    8  O   UNL     1     -13.118  12.019  63.667  1.00  0.00    -0.756 OA 
HETATM    9  H   UNL     1     -13.931  12.485  63.512  1.00  0.00     0.000 HD 
BRANCH   7  10
HETATM   10  C   UNL     1     -12.112  14.142  64.278  1.00  0.00    -0.444 C  
BRANCH  10  11
HETATM   11  O   UNL     1     -10.917  14.315  65.059  1.00  0.00    -0.344 OA 
BRANCH  11  12
HETATM   12  C   UNL     1     -11.135  14.694  66.369  1.00  0.00    -0.334 A  
HETATM   13  C   UNL     1     -11.634  13.804  67.329  1.00  0.00    -0.391 A  
HETATM   14  C   UNL     1     -11.843  14.213  68.641  1.00  0.00    -0.383 A  
HETATM   15  C   UNL     1     -11.530  15.513  69.018  1.00  0.00    -0.361 A  
HETATM   16  C   UNL     1     -10.991  16.417  68.093  1.00  0.00    -0.339 A  
HETATM   17  C   UNL     1     -10.785  16.019  66.746  1.00  0.00    -0.259 A  
HETATM   18  C   UNL     1     -10.243  16.978  65.858  1.00  0.00    -0.311 A  
HETATM   19  C   UNL     1      -9.911  18.269  66.286  1.00  0.00    -0.323 A  
HETATM   20  C   UNL     1     -10.113  18.636  67.613  1.00  0.00    -0.404 A  
HETATM   21  C   UNL     1     -10.654  17.716  68.507  1.00  0.00    -0.281 A  
ENDBRANCH  11  12
ENDBRANCH  10  11
ENDBRANCH   7  10
ENDBRANCH   6   7
ENDBRANCH   4   6
ENDBRANCH   2   4
TORSDOF 6
ENDMDL
MODEL       41
REMARK 921   NORMALIZED FREE ENERGY PREDICTED BY IDOCK:   -5.23 KCAL/MOL
REMARK 922        TOTAL FREE ENERGY PREDICTED BY IDOCK:   -7.75 KCAL/MOL
REMARK 923 INTER-LIGAND FREE ENERGY PREDICTED BY IDOCK:   -7.50 KCAL/MOL
REMARK 924 INTRA-LIGAND FREE ENERGY PREDICTED BY IDOCK:   -0.25 KCAL/MOL
REMARK 927      BINDING AFFINITY PREDICTED BY RF-SCORE:    0.00 PKD
ROOT
HETATM    1  C   UNL     1     -14.139   7.869  71.824  1.00  0.00    -0.520 C  
HETATM    2  C   UNL     1     -13.124   9.013  71.832  1.00  0.00    -0.400 C  
HETATM    3  C   UNL     1     -11.708   8.445  71.961  1.00  0.00    -0.417 C  
ENDROOT
BRANCH   2   4
HETATM    4  N   UNL     1     -13.290   9.778  70.594  1.00  0.00    -0.607 NA 
HETATM    5  H   UNL     1     -14.277   9.950  70.405  1.00  0.00     0.000 HD 
BRANCH   4   6
HETATM    6  C   UNL     1     -12.529  11.035  70.580  1.00  0.00    -0.344 C  
BRANCH   6   7
HETATM    7  C   UNL     1     -11.540  11.023  69.405  1.00  0.00    -0.312 C  
HETATM    8  O   UNL     1     -12.148  10.398  68.264  1.00  0.00    -0.747 OA 
HETATM    9  H   UNL     1     -11.536  10.390  67.537  1.00  0.00     0.000 HD 
BRANCH   7  10
HETATM   10  C   UNL     1     -11.080  12.437  69.036  1.00  0.00    -0.235 C  
BRANCH  10  11
HETATM   11  O   UNL     1     -12.151  13.165  68.410  1.00  0.00    -0.318 OA 
BRANCH  11  12
HETATM   12  C   UNL     1     -11.825  13.741  67.199  1.00  0.00    -0.406 A  
HETATM   13  C   UNL     1     -12.086  13.105  65.977  1.00  0.00    -0.495 A  
HETATM   14  C   UNL     1     -11.749  13.709  64.772  1.00  0.00    -0.399 A  
HETATM   15  C   UNL     1     -11.168  14.971  64.770  1.00  0.00    -0.393 A  
HETATM   16  C   UNL     1     -10.930  15.652  65.971  1.00  0.00    -0.213 A  
HETATM   17  C   UNL     1     -11.257  15.043  67.211  1.00  0.00    -0.339 A  
HETATM   18  C   UNL     1     -10.988  15.778  68.389  1.00  0.00    -0.323 A  
HETATM   19  C   UNL     1     -10.431  17.062  68.343  1.00  0.00    -0.370 A  
HETATM   20  C   UNL     1     -10.126  17.644  67.116  1.00  0.00    -0.328 A  
HETATM   21  C   UNL     1     -10.371  16.940  65.940  1.00  0.00    -0.327 A  
ENDBRANCH  11  12
ENDBRANCH  10  11
ENDBRANCH   7  10
ENDBRANCH   6   7
ENDBRANCH   4   6
ENDBRANCH   2   4
TORSDOF 6
ENDMDL
MODEL       42
REMARK 921   NORMALIZED FREE ENERGY PREDICTED BY IDOCK:   -5.22 KCAL/MOL
REMARK 922        TOTAL FREE ENERGY PREDICTED BY IDOCK:   -7.73 KCAL/MOL
REMARK 923 INTER-LIGAND FREE ENERGY PREDICTED BY IDOCK:   -6.86 KCAL/MOL
REMARK 924 INTRA-LIGAND FREE ENERGY PREDICTED BY IDOCK:   -0.86 KCAL/MOL
REMARK 927      BINDING AFFINITY PREDICTED BY RF-SCORE:    0.00 PKD
ROOT
HETATM    1  C   UNL     1     -11.735  15.819  71.265  1.00  0.00    -0.496 C  
HETATM    2  C   UNL     1     -12.224  14.410  70.929  1.00  0.00    -0.342 C  
HETATM    3  C   UNL     1     -13.481  14.093  71.742  1.00  0.00    -0.471 C  
ENDROOT
BRANCH   2   4
HETATM    4  N   UNL     1     -12.480  14.348  69.488  1.00  0.00    -0.540 NA 
HETATM    5  H   UNL     1     -12.813  15.248  69.141  1.00  0.00     0.000 HD 
BRANCH   4   6
HETATM    6  C   UNL     1     -11.324  13.884  68.710  1.00  0.00    -0.277 C  
BRANCH   6   7
HETATM    7  C   UNL     1     -11.777  12.818  67.703  1.00  0.00    -0.367 C  
HETATM    8  O   UNL     1     -10.872  12.786  66.588  1.00  0.00    -0.258 OA 
HETATM    9  H   UNL     1     -11.153  12.126  65.964  1.00  0.00     0.000 HD 
BRANCH   7  10
HETATM   10  C   UNL     1     -11.856  11.428  68.344  1.00  0.00    -0.274 C  
BRANCH  10  11
HETATM   11  O   UNL     1     -11.109  11.400  69.571  1.00  0.00    -0.245 OA 
BRANCH  11  12
HETATM   12  C   UNL     1     -11.599  10.530  70.524  1.00  0.00    -0.350 A  
HETATM   13  C   UNL     1     -12.928  10.579  70.966  1.00  0.00    -0.475 A  
HETATM   14  C   UNL     1     -13.394   9.689  71.926  1.00  0.00    -0.526 A  
HETATM   15  C   UNL     1     -12.544   8.719  72.440  1.00  0.00    -0.430 A  
HETATM   16  C   UNL     1     -11.221   8.615  71.992  1.00  0.00    -0.434 A  
HETATM   17  C   UNL     1     -10.725   9.525  71.021  1.00  0.00    -0.411 A  
HETATM   18  C   UNL     1      -9.379   9.373  70.612  1.00  0.00    -0.314 A  
HETATM   19  C   UNL     1      -8.564   8.359  71.131  1.00  0.00    -0.187 A  
HETATM   20  C   UNL     1      -9.072   7.473  72.075  1.00  0.00    -0.157 A  
HETATM   21  C   UNL     1     -10.391   7.605  72.504  1.00  0.00    -0.310 A  
ENDBRANCH  11  12
ENDBRANCH  10  11
ENDBRANCH   7  10
ENDBRANCH   6   7
ENDBRANCH   4   6
ENDBRANCH   2   4
TORSDOF 6
ENDMDL
MODEL       43
REMARK 921   NORMALIZED FREE ENERGY PREDICTED BY IDOCK:   -5.18 KCAL/MOL
REMARK 922        TOTAL FREE ENERGY PREDICTED BY IDOCK:   -7.68 KCAL/MOL
REMARK 923 INTER-LIGAND FREE ENERGY PREDICTED BY IDOCK:   -7.09 KCAL/MOL
REMARK 924 INTRA-LIGAND FREE ENERGY PREDICTED BY IDOCK:   -0.59 KCAL/MOL
REMARK 927      BINDING AFFINITY PREDICTED BY RF-SCORE:    0.00 PKD
ROOT
HETATM    1  C   UNL     1     -10.552   8.626  72.102  1.00  0.00    -0.411 C  
HETATM    2  C   UNL     1     -11.980   8.472  71.578  1.00  0.00    -0.303 C  
HETATM    3  C   UNL     1     -12.686   9.831  71.598  1.00  0.00    -0.517 C  
ENDROOT
BRANCH   2   4
HETATM    4  N   UNL     1     -11.911   7.918  70.224  1.00  0.00    -0.448 NA 
HETATM    5  H   UNL     1     -12.301   8.571  69.545  1.00  0.00     0.000 HD 
BRANCH   4   6
HETATM    6  C   UNL     1     -10.557   7.504  69.832  1.00  0.00    -0.237 C  
BRANCH   6   7
HETATM    7  C   UNL     1     -10.213   8.108  68.462  1.00  0.00    -0.208 C  
HETATM    8  O   UNL     1     -11.150   7.644  67.477  1.00  0.00    -0.527 OA 
HETATM    9  H   UNL     1     -10.936   8.017  66.630  1.00  0.00     0.000 HD 
BRANCH   7  10
HETATM   10  C   UNL     1     -10.219   9.640  68.499  1.00  0.00    -0.193 C  
BRANCH  10  11
HETATM   11  O   UNL     1     -10.670  10.169  67.241  1.00  0.00    -0.261 OA 
BRANCH  11  12
HETATM   12  C   UNL     1     -11.145  11.464  67.298  1.00  0.00    -0.303 A  
HETATM   13  C   UNL     1     -11.308  12.145  68.512  1.00  0.00    -0.324 A  
HETATM   14  C   UNL     1     -11.787  13.449  68.539  1.00  0.00    -0.401 A  
HETATM   15  C   UNL     1     -12.088  14.101  67.350  1.00  0.00    -0.379 A  
HETATM   16  C   UNL     1     -11.899  13.464  66.116  1.00  0.00    -0.427 A  
HETATM   17  C   UNL     1     -11.422  12.127  66.072  1.00  0.00    -0.427 A  
HETATM   18  C   UNL     1     -11.257  11.536  64.797  1.00  0.00    -0.258 A  
HETATM   19  C   UNL     1     -11.540  12.239  63.620  1.00  0.00    -0.581 A  
HETATM   20  C   UNL     1     -11.998  13.551  63.686  1.00  0.00    -0.439 A  
HETATM   21  C   UNL     1     -12.179  14.155  64.927  1.00  0.00    -0.451 A  
ENDBRANCH  11  12
ENDBRANCH  10  11
ENDBRANCH   7  10
ENDBRANCH   6   7
ENDBRANCH   4   6
ENDBRANCH   2   4
TORSDOF 6
ENDMDL
MODEL       44
REMARK 921   NORMALIZED FREE ENERGY PREDICTED BY IDOCK:   -5.18 KCAL/MOL
REMARK 922        TOTAL FREE ENERGY PREDICTED BY IDOCK:   -7.68 KCAL/MOL
REMARK 923 INTER-LIGAND FREE ENERGY PREDICTED BY IDOCK:   -7.21 KCAL/MOL
REMARK 924 INTRA-LIGAND FREE ENERGY PREDICTED BY IDOCK:   -0.46 KCAL/MOL
REMARK 927      BINDING AFFINITY PREDICTED BY RF-SCORE:    0.00 PKD
ROOT
HETATM    1  C   UNL     1     -12.182  13.207  63.334  1.00  0.00    -0.521 C  
HETATM    2  C   UNL     1     -11.920  12.009  64.246  1.00  0.00    -0.335 C  
HETATM    3  C   UNL     1     -10.439  11.626  64.182  1.00  0.00    -0.402 C  
ENDROOT
BRANCH   2   4
HETATM    4  N   UNL     1     -12.327  12.373  65.605  1.00  0.00    -0.621 NA 
HETATM    5  H   UNL     1     -12.293  11.562  66.222  1.00  0.00     0.000 HD 
BRANCH   4   6
HETATM    6  C   UNL     1     -11.553  13.488  66.166  1.00  0.00    -0.343 C  
BRANCH   6   7
HETATM    7  C   UNL     1     -11.426  13.312  67.686  1.00  0.00    -0.321 C  
HETATM    8  O   UNL     1     -12.290  14.241  68.359  1.00  0.00    -0.584 OA 
HETATM    9  H   UNL     1     -12.211  14.132  69.299  1.00  0.00     0.000 HD 
BRANCH   7  10
HETATM   10  C   UNL     1     -11.767  11.883  68.122  1.00  0.00    -0.320 C  
BRANCH  10  11
HETATM   11  O   UNL     1     -11.007  11.519  69.287  1.00  0.00    -0.231 OA 
BRANCH  11  12
HETATM   12  C   UNL     1     -11.720  10.832  70.249  1.00  0.00    -0.352 A  
HETATM   13  C   UNL     1     -12.643  11.469  71.089  1.00  0.00    -0.463 A  
HETATM   14  C   UNL     1     -13.348  10.751  72.048  1.00  0.00    -0.403 A  
HETATM   15  C   UNL     1     -13.158   9.380  72.164  1.00  0.00    -0.526 A  
HETATM   16  C   UNL     1     -12.273   8.705  71.313  1.00  0.00    -0.320 A  
HETATM   17  C   UNL     1     -11.536   9.426  70.337  1.00  0.00    -0.272 A  
HETATM   18  C   UNL     1     -10.654   8.689  69.512  1.00  0.00    -0.218 A  
HETATM   19  C   UNL     1     -10.516   7.302  69.638  1.00  0.00    -0.239 A  
HETATM   20  C   UNL     1     -11.254   6.614  70.596  1.00  0.00    -0.370 A  
HETATM   21  C   UNL     1     -12.123   7.314  71.429  1.00  0.00    -0.370 A  
ENDBRANCH  11  12
ENDBRANCH  10  11
ENDBRANCH   7  10
ENDBRANCH   6   7
ENDBRANCH   4   6
ENDBRANCH   2   4
TORSDOF 6
ENDMDL
MODEL       45
REMARK 921   NORMALIZED FREE ENERGY PREDICTED BY IDOCK:   -5.18 KCAL/MOL
REMARK 922        TOTAL FREE ENERGY PREDICTED BY IDOCK:   -7.68 KCAL/MOL
REMARK 923 INTER-LIGAND FREE ENERGY PREDICTED BY IDOCK:   -6.84 KCAL/MOL
REMARK 924 INTRA-LIGAND FREE ENERGY PREDICTED BY IDOCK:   -0.84 KCAL/MOL
REMARK 927      BINDING AFFINITY PREDICTED BY RF-SCORE:    0.00 PKD
ROOT
HETATM    1  C   UNL     1     -12.221  14.637  64.438  1.00  0.00    -0.473 C  
HETATM    2  C   UNL     1     -10.803  14.627  65.010  1.00  0.00    -0.417 C  
HETATM    3  C   UNL     1     -10.863  14.573  66.538  1.00  0.00    -0.314 C  
ENDROOT
BRANCH   2   4
HETATM    4  N   UNL     1     -10.096  13.471  64.454  1.00  0.00    -0.717 NA 
HETATM    5  H   UNL     1      -9.775  12.851  65.198  1.00  0.00     0.000 HD 
BRANCH   4   6
HETATM    6  C   UNL     1     -10.883  12.729  63.460  1.00  0.00    -0.238 C  
BRANCH   6   7
HETATM    7  C   UNL     1     -10.797  11.225  63.756  1.00  0.00    -0.350 C  
HETATM    8  O   UNL     1     -10.289  10.531  62.605  1.00  0.00    -0.715 OA 
HETATM    9  H   UNL     1     -10.236   9.600  62.788  1.00  0.00     0.000 HD 
BRANCH   7  10
HETATM   10  C   UNL     1      -9.906  10.935  64.968  1.00  0.00    -0.281 C  
BRANCH  10  11
HETATM   11  O   UNL     1     -10.598  11.254  66.187  1.00  0.00    -0.251 OA 
BRANCH  11  12
HETATM   12  C   UNL     1     -10.541  10.272  67.156  1.00  0.00    -0.260 A  
HETATM   13  C   UNL     1      -9.946   9.025  66.919  1.00  0.00    -0.313 A  
HETATM   14  C   UNL     1      -9.902   8.056  67.914  1.00  0.00    -0.204 A  
HETATM   15  C   UNL     1     -10.429   8.329  69.170  1.00  0.00    -0.217 A  
HETATM   16  C   UNL     1     -10.994   9.580  69.453  1.00  0.00    -0.192 A  
HETATM   17  C   UNL     1     -11.059  10.576  68.443  1.00  0.00    -0.335 A  
HETATM   18  C   UNL     1     -11.646  11.816  68.788  1.00  0.00    -0.367 A  
HETATM   19  C   UNL     1     -12.136  12.064  70.076  1.00  0.00    -0.355 A  
HETATM   20  C   UNL     1     -12.055  11.076  71.053  1.00  0.00    -0.406 A  
HETATM   21  C   UNL     1     -11.491   9.842  70.740  1.00  0.00    -0.433 A  
ENDBRANCH  11  12
ENDBRANCH  10  11
ENDBRANCH   7  10
ENDBRANCH   6   7
ENDBRANCH   4   6
ENDBRANCH   2   4
TORSDOF 6
ENDMDL
MODEL       46
REMARK 921   NORMALIZED FREE ENERGY PREDICTED BY IDOCK:   -5.16 KCAL/MOL
REMARK 922        TOTAL FREE ENERGY PREDICTED BY IDOCK:   -7.65 KCAL/MOL
REMARK 923 INTER-LIGAND FREE ENERGY PREDICTED BY IDOCK:   -6.78 KCAL/MOL
REMARK 924 INTRA-LIGAND FREE ENERGY PREDICTED BY IDOCK:   -0.87 KCAL/MOL
REMARK 927      BINDING AFFINITY PREDICTED BY RF-SCORE:    0.00 PKD
ROOT
HETATM    1  C   UNL     1     -12.275  14.231  64.557  1.00  0.00    -0.476 C  
HETATM    2  C   UNL     1     -11.402  14.043  65.798  1.00  0.00    -0.312 C  
HETATM    3  C   UNL     1     -10.041  14.708  65.578  1.00  0.00    -0.405 C  
ENDROOT
BRANCH   2   4
HETATM    4  N   UNL     1     -12.108  14.621  66.943  1.00  0.00    -0.434 NA 
HETATM    5  H   UNL     1     -13.084  14.805  66.711  1.00  0.00     0.000 HD 
BRANCH   4   6
HETATM    6  C   UNL     1     -12.006  13.807  68.162  1.00  0.00    -0.358 C  
BRANCH   6   7
HETATM    7  C   UNL     1     -11.230  14.585  69.235  1.00  0.00    -0.281 C  
HETATM    8  O   UNL     1      -9.900  14.057  69.353  1.00  0.00    -0.403 OA 
HETATM    9  H   UNL     1      -9.420  14.537  70.017  1.00  0.00     0.000 HD 
BRANCH   7  10
HETATM   10  C   UNL     1     -11.164  16.082  68.915  1.00  0.00    -0.353 C  
BRANCH  10  11
HETATM   11  O   UNL     1      -9.811  16.474  68.630  1.00  0.00    -0.230 OA 
BRANCH  11  12
HETATM   12  C   UNL     1      -9.686  17.694  67.996  1.00  0.00    -0.301 A  
HETATM   13  C   UNL     1     -10.736  18.264  67.264  1.00  0.00    -0.366 A  
HETATM   14  C   UNL     1     -10.582  19.495  66.637  1.00  0.00    -0.583 A  
HETATM   15  C   UNL     1      -9.383  20.186  66.754  1.00  0.00    -0.513 A  
HETATM   16  C   UNL     1      -8.326  19.664  67.512  1.00  0.00    -0.337 A  
HETATM   17  C   UNL     1      -8.463  18.402  68.148  1.00  0.00    -0.301 A  
HETATM   18  C   UNL     1      -7.360  17.925  68.894  1.00  0.00    -0.251 A  
HETATM   19  C   UNL     1      -6.179  18.668  69.015  1.00  0.00    -0.251 A  
HETATM   20  C   UNL     1      -6.069  19.907  68.391  1.00  0.00    -0.286 A  
HETATM   21  C   UNL     1      -7.136  20.397  67.641  1.00  0.00    -0.345 A  
ENDBRANCH  11  12
ENDBRANCH  10  11
ENDBRANCH   7  10
ENDBRANCH   6   7
ENDBRANCH   4   6
ENDBRANCH   2   4
TORSDOF 6
ENDMDL
MODEL       47
REMARK 921   NORMALIZED FREE ENERGY PREDICTED BY IDOCK:   -5.16 KCAL/MOL
REMARK 922        TOTAL FREE ENERGY PREDICTED BY IDOCK:   -7.65 KCAL/MOL
REMARK 923 INTER-LIGAND FREE ENERGY PREDICTED BY IDOCK:   -7.13 KCAL/MOL
REMARK 924 INTRA-LIGAND FREE ENERGY PREDICTED BY IDOCK:   -0.52 KCAL/MOL
REMARK 927      BINDING AFFINITY PREDICTED BY RF-SCORE:    0.00 PKD
ROOT
HETATM    1  C   UNL     1     -10.162  19.647  66.136  1.00  0.00    -0.604 C  
HETATM    2  C   UNL     1      -9.677  18.838  67.339  1.00  0.00    -0.305 C  
HETATM    3  C   UNL     1     -10.149  19.504  68.634  1.00  0.00    -0.535 C  
ENDROOT
BRANCH   2   4
HETATM    4  N   UNL     1     -10.196  17.475  67.211  1.00  0.00    -0.324 NA 
HETATM    5  H   UNL     1      -9.997  17.098  66.285  1.00  0.00     0.000 HD 
BRANCH   4   6
HETATM    6  C   UNL     1      -9.711  16.566  68.259  1.00  0.00    -0.231 C  
BRANCH   6   7
HETATM    7  C   UNL     1     -10.163  15.132  67.945  1.00  0.00    -0.232 C  
HETATM    8  O   UNL     1      -9.714  14.242  68.979  1.00  0.00    -0.366 OA 
HETATM    9  H   UNL     1      -9.993  13.356  68.784  1.00  0.00     0.000 HD 
BRANCH   7  10
HETATM   10  C   UNL     1     -11.686  15.035  67.807  1.00  0.00    -0.274 C  
BRANCH  10  11
HETATM   11  O   UNL     1     -12.076  13.687  67.495  1.00  0.00    -0.369 OA 
BRANCH  11  12
HETATM   12  C   UNL     1     -11.899  13.327  66.174  1.00  0.00    -0.390 A  
HETATM   13  C   UNL     1     -12.366  14.119  65.117  1.00  0.00    -0.460 A  
HETATM   14  C   UNL     1     -12.172  13.732  63.796  1.00  0.00    -0.364 A  
HETATM   15  C   UNL     1     -11.486  12.558  63.513  1.00  0.00    -0.570 A  
HETATM   16  C   UNL     1     -10.971  11.763  64.545  1.00  0.00    -0.382 A  
HETATM   17  C   UNL     1     -11.171  12.137  65.899  1.00  0.00    -0.384 A  
HETATM   18  C   UNL     1     -10.632  11.291  66.896  1.00  0.00    -0.300 A  
HETATM   19  C   UNL     1      -9.918  10.132  66.568  1.00  0.00    -0.283 A  
HETATM   20  C   UNL     1      -9.725   9.788  65.234  1.00  0.00    -0.371 A  
HETATM   21  C   UNL     1     -10.253  10.597  64.231  1.00  0.00    -0.391 A  
ENDBRANCH  11  12
ENDBRANCH  10  11
ENDBRANCH   7  10
ENDBRANCH   6   7
ENDBRANCH   4   6
ENDBRANCH   2   4
TORSDOF 6
ENDMDL
MODEL       48
REMARK 921   NORMALIZED FREE ENERGY PREDICTED BY IDOCK:   -5.13 KCAL/MOL
REMARK 922        TOTAL FREE ENERGY PREDICTED BY IDOCK:   -7.60 KCAL/MOL
REMARK 923 INTER-LIGAND FREE ENERGY PREDICTED BY IDOCK:   -7.12 KCAL/MOL
REMARK 924 INTRA-LIGAND FREE ENERGY PREDICTED BY IDOCK:   -0.48 KCAL/MOL
REMARK 927      BINDING AFFINITY PREDICTED BY RF-SCORE:    0.00 PKD
ROOT
HETATM    1  C   UNL     1      -6.888  16.472  68.935  1.00  0.00    -0.186 C  
HETATM    2  C   UNL     1      -7.434  17.893  68.792  1.00  0.00    -0.268 C  
HETATM    3  C   UNL     1      -6.670  18.630  67.689  1.00  0.00    -0.208 C  
ENDROOT
BRANCH   2   4
HETATM    4  N   UNL     1      -8.865  17.804  68.495  1.00  0.00    -0.287 NA 
HETATM    5  H   UNL     1      -9.385  18.516  69.007  1.00  0.00     0.000 HD 
BRANCH   4   6
HETATM    6  C   UNL     1      -9.167  17.870  67.058  1.00  0.00    -0.260 C  
BRANCH   6   7
HETATM    7  C   UNL     1     -10.405  17.014  66.755  1.00  0.00    -0.302 C  
HETATM    8  O   UNL     1     -10.464  16.726  65.349  1.00  0.00    -0.592 OA 
HETATM    9  H   UNL     1     -11.230  16.197  65.161  1.00  0.00     0.000 HD 
BRANCH   7  10
HETATM   10  C   UNL     1     -10.398  15.703  67.549  1.00  0.00    -0.277 C  
BRANCH  10  11
HETATM   11  O   UNL     1     -11.689  15.465  68.134  1.00  0.00    -0.351 OA 
BRANCH  11  12
HETATM   12  C   UNL     1     -11.808  14.260  68.797  1.00  0.00    -0.341 A  
HETATM   13  C   UNL     1     -11.313  13.063  68.262  1.00  0.00    -0.323 A  
HETATM   14  C   UNL     1     -11.446  11.864  68.952  1.00  0.00    -0.358 A  
HETATM   15  C   UNL     1     -12.053  11.849  70.201  1.00  0.00    -0.382 A  
HETATM   16  C   UNL     1     -12.523  13.034  70.783  1.00  0.00    -0.384 A  
HETATM   17  C   UNL     1     -12.407  14.265  70.085  1.00  0.00    -0.413 A  
HETATM   18  C   UNL     1     -12.905  15.425  70.723  1.00  0.00    -0.524 A  
HETATM   19  C   UNL     1     -13.482  15.373  71.998  1.00  0.00    -0.564 A  
HETATM   20  C   UNL     1     -13.578  14.157  72.668  1.00  0.00    -0.618 A  
HETATM   21  C   UNL     1     -13.105  12.997  72.061  1.00  0.00    -0.481 A  
ENDBRANCH  11  12
ENDBRANCH  10  11
ENDBRANCH   7  10
ENDBRANCH   6   7
ENDBRANCH   4   6
ENDBRANCH   2   4
TORSDOF 6
ENDMDL
MODEL       49
REMARK 921   NORMALIZED FREE ENERGY PREDICTED BY IDOCK:   -5.12 KCAL/MOL
REMARK 922        TOTAL FREE ENERGY PREDICTED BY IDOCK:   -7.60 KCAL/MOL
REMARK 923 INTER-LIGAND FREE ENERGY PREDICTED BY IDOCK:   -7.08 KCAL/MOL
REMARK 924 INTRA-LIGAND FREE ENERGY PREDICTED BY IDOCK:   -0.52 KCAL/MOL
REMARK 927      BINDING AFFINITY PREDICTED BY RF-SCORE:    0.00 PKD
ROOT
HETATM    1  C   UNL     1     -10.304  10.957  66.058  1.00  0.00    -0.304 C  
HETATM    2  C   UNL     1      -9.986  11.270  64.595  1.00  0.00    -0.281 C  
HETATM    3  C   UNL     1      -8.929  10.292  64.077  1.00  0.00    -0.261 C  
ENDROOT
BRANCH   2   4
HETATM    4  N   UNL     1     -11.230  11.179  63.828  1.00  0.00    -0.480 NA 
HETATM    5  H   UNL     1     -11.614  10.236  63.873  1.00  0.00     0.000 HD 
BRANCH   4   6
HETATM    6  C   UNL     1     -12.237  12.171  64.231  1.00  0.00    -0.377 C  
BRANCH   6   7
HETATM    7  C   UNL     1     -11.705  13.584  63.952  1.00  0.00    -0.368 C  
HETATM    8  O   UNL     1     -12.497  14.210  62.930  1.00  0.00    -0.955 OA 
HETATM    9  H   UNL     1     -12.168  15.084  62.757  1.00  0.00     0.000 HD 
BRANCH   7  10
HETATM   10  C   UNL     1     -11.712  14.453  65.214  1.00  0.00    -0.364 C  
BRANCH  10  11
HETATM   11  O   UNL     1     -10.996  15.678  64.984  1.00  0.00    -0.406 OA 
BRANCH  11  12
HETATM   12  C   UNL     1      -9.973  15.925  65.877  1.00  0.00    -0.349 A  
HETATM   13  C   UNL     1      -9.080  14.923  66.282  1.00  0.00    -0.262 A  
HETATM   14  C   UNL     1      -8.059  15.200  67.183  1.00  0.00    -0.245 A  
HETATM   15  C   UNL     1      -7.898  16.491  67.672  1.00  0.00    -0.175 A  
HETATM   16  C   UNL     1      -8.748  17.524  67.256  1.00  0.00    -0.236 A  
HETATM   17  C   UNL     1      -9.805  17.255  66.347  1.00  0.00    -0.310 A  
HETATM   18  C   UNL     1     -10.632  18.339  65.970  1.00  0.00    -0.318 A  
HETATM   19  C   UNL     1     -10.417  19.633  66.460  1.00  0.00    -0.612 A  
HETATM   20  C   UNL     1      -9.370  19.876  67.344  1.00  0.00    -0.468 A  
HETATM   21  C   UNL     1      -8.545  18.827  67.741  1.00  0.00    -0.305 A  
ENDBRANCH  11  12
ENDBRANCH  10  11
ENDBRANCH   7  10
ENDBRANCH   6   7
ENDBRANCH   4   6
ENDBRANCH   2   4
TORSDOF 6
ENDMDL
MODEL       50
REMARK 921   NORMALIZED FREE ENERGY PREDICTED BY IDOCK:   -5.12 KCAL/MOL
REMARK 922        TOTAL FREE ENERGY PREDICTED BY IDOCK:   -7.60 KCAL/MOL
REMARK 923 INTER-LIGAND FREE ENERGY PREDICTED BY IDOCK:   -7.16 KCAL/MOL
REMARK 924 INTRA-LIGAND FREE ENERGY PREDICTED BY IDOCK:   -0.44 KCAL/MOL
REMARK 927      BINDING AFFINITY PREDICTED BY RF-SCORE:    0.00 PKD
ROOT
HETATM    1  C   UNL     1     -10.014  20.184  66.564  1.00  0.00    -0.586 C  
HETATM    2  C   UNL     1      -9.356  19.075  67.385  1.00  0.00    -0.303 C  
HETATM    3  C   UNL     1      -9.663  19.279  68.870  1.00  0.00    -0.493 C  
ENDROOT
BRANCH   2   4
HETATM    4  N   UNL     1      -9.860  17.788  66.899  1.00  0.00    -0.298 NA 
HETATM    5  H   UNL     1     -10.407  17.319  67.620  1.00  0.00     0.000 HD 
BRANCH   4   6
HETATM    6  C   UNL     1     -10.626  17.897  65.650  1.00  0.00    -0.109 C  
BRANCH   6   7
HETATM    7  C   UNL     1     -11.155  16.512  65.251  1.00  0.00    -0.076 C  
HETATM    8  O   UNL     1     -11.454  16.491  63.846  1.00  0.00    -1.608 OA 
HETATM    9  H   UNL     1     -11.781  15.635  63.599  1.00  0.00     0.000 HD 
BRANCH   7  10
HETATM   10  C   UNL     1     -10.150  15.403  65.580  1.00  0.00    -0.376 C  
BRANCH  10  11
HETATM   11  O   UNL     1     -10.823  14.272  66.158  1.00  0.00    -0.301 OA 
BRANCH  11  12
HETATM   12  C   UNL     1     -10.639  13.084  65.479  1.00  0.00    -0.282 A  
HETATM   13  C   UNL     1     -10.728  13.001  64.083  1.00  0.00    -0.429 A  
HETATM   14  C   UNL     1     -10.537  11.792  63.426  1.00  0.00    -0.479 A  
HETATM   15  C   UNL     1     -10.229  10.650  64.155  1.00  0.00    -0.365 A  
HETATM   16  C   UNL     1     -10.092  10.705  65.548  1.00  0.00    -0.343 A  
HETATM   17  C   UNL     1     -10.297  11.930  66.236  1.00  0.00    -0.259 A  
HETATM   18  C   UNL     1     -10.150  11.921  67.643  1.00  0.00    -0.202 A  
HETATM   19  C   UNL     1      -9.805  10.755  68.337  1.00  0.00    -0.177 A  
HETATM   20  C   UNL     1      -9.601   9.567  67.643  1.00  0.00    -0.163 A  
HETATM   21  C   UNL     1      -9.748   9.544  66.259  1.00  0.00    -0.310 A  
ENDBRANCH  11  12
ENDBRANCH  10  11
ENDBRANCH   7  10
ENDBRANCH   6   7
ENDBRANCH   4   6
ENDBRANCH   2   4
TORSDOF 6
ENDMDL
MODEL       51
REMARK 921   NORMALIZED FREE ENERGY PREDICTED BY IDOCK:   -5.11 KCAL/MOL
REMARK 922        TOTAL FREE ENERGY PREDICTED BY IDOCK:   -7.58 KCAL/MOL
REMARK 923 INTER-LIGAND FREE ENERGY PREDICTED BY IDOCK:   -6.75 KCAL/MOL
REMARK 924 INTRA-LIGAND FREE ENERGY PREDICTED BY IDOCK:   -0.84 KCAL/MOL
REMARK 927      BINDING AFFINITY PREDICTED BY RF-SCORE:    0.00 PKD
ROOT
HETATM    1  C   UNL     1     -12.509  12.789  64.964  1.00  0.00    -0.572 C  
HETATM    2  C   UNL     1     -11.568  13.489  65.945  1.00  0.00    -0.335 C  
HETATM    3  C   UNL     1     -10.889  14.674  65.253  1.00  0.00    -0.387 C  
ENDROOT
BRANCH   2   4
HETATM    4  N   UNL     1     -12.354  13.917  67.104  1.00  0.00    -0.500 NA 
HETATM    5  H   UNL     1     -13.347  13.745  66.950  1.00  0.00     0.000 HD 
BRANCH   4   6
HETATM    6  C   UNL     1     -11.908  13.311  68.366  1.00  0.00    -0.360 C  
BRANCH   6   7
HETATM    7  C   UNL     1     -12.199  14.273  69.527  1.00  0.00    -0.297 C  
HETATM    8  O   UNL     1     -11.413  13.905  70.672  1.00  0.00    -0.513 OA 
HETATM    9  H   UNL     1     -11.592  14.500  71.390  1.00  0.00     0.000 HD 
BRANCH   7  10
HETATM   10  C   UNL     1     -11.907  15.728  69.147  1.00  0.00    -0.354 C  
BRANCH  10  11
HETATM   11  O   UNL     1     -10.611  16.122  69.630  1.00  0.00    -0.268 OA 
BRANCH  11  12
HETATM   12  C   UNL     1      -9.658  16.296  68.647  1.00  0.00    -0.237 A  
HETATM   13  C   UNL     1      -8.764  15.278  68.289  1.00  0.00    -0.165 A  
HETATM   14  C   UNL     1      -7.814  15.481  67.295  1.00  0.00    -0.236 A  
HETATM   15  C   UNL     1      -7.761  16.697  66.626  1.00  0.00    -0.316 A  
HETATM   16  C   UNL     1      -8.666  17.722  66.932  1.00  0.00    -0.262 A  
HETATM   17  C   UNL     1      -9.634  17.536  67.954  1.00  0.00    -0.277 A  
HETATM   18  C   UNL     1     -10.516  18.609  68.220  1.00  0.00    -0.315 A  
HETATM   19  C   UNL     1     -10.451  19.809  67.500  1.00  0.00    -0.569 A  
HETATM   20  C   UNL     1      -9.501  19.967  66.496  1.00  0.00    -0.518 A  
HETATM   21  C   UNL     1      -8.613  18.931  66.219  1.00  0.00    -0.267 A  
ENDBRANCH  11  12
ENDBRANCH  10  11
ENDBRANCH   7  10
ENDBRANCH   6   7
ENDBRANCH   4   6
ENDBRANCH   2   4
TORSDOF 6
ENDMDL
MODEL       52
REMARK 921   NORMALIZED FREE ENERGY PREDICTED BY IDOCK:   -5.10 KCAL/MOL
REMARK 922        TOTAL FREE ENERGY PREDICTED BY IDOCK:   -7.57 KCAL/MOL
REMARK 923 INTER-LIGAND FREE ENERGY PREDICTED BY IDOCK:   -6.62 KCAL/MOL
REMARK 924 INTRA-LIGAND FREE ENERGY PREDICTED BY IDOCK:   -0.95 KCAL/MOL
REMARK 927      BINDING AFFINITY PREDICTED BY RF-SCORE:    0.00 PKD
ROOT
HETATM    1  C   UNL     1     -11.521  10.290  70.034  1.00  0.00    -0.367 C  
HETATM    2  C   UNL     1     -12.575  11.246  70.596  1.00  0.00    -0.288 C  
HETATM    3  C   UNL     1     -13.193  10.645  71.860  1.00  0.00    -0.528 C  
ENDROOT
BRANCH   2   4
HETATM    4  N   UNL     1     -11.926  12.530  70.867  1.00  0.00    -0.387 NA 
HETATM    5  H   UNL     1     -11.279  12.774  70.117  1.00  0.00     0.000 HD 
BRANCH   4   6
HETATM    6  C   UNL     1     -12.877  13.623  71.111  1.00  0.00    -0.323 C  
BRANCH   6   7
HETATM    7  C   UNL     1     -12.485  14.844  70.265  1.00  0.00    -0.336 C  
HETATM    8  O   UNL     1     -12.206  15.961  71.123  1.00  0.00    -0.404 OA 
HETATM    9  H   UNL     1     -11.964  16.716  70.600  1.00  0.00     0.000 HD 
BRANCH   7  10
HETATM   10  C   UNL     1     -11.267  14.554  69.382  1.00  0.00    -0.280 C  
BRANCH  10  11
HETATM   11  O   UNL     1     -11.682  14.004  68.120  1.00  0.00    -0.313 OA 
BRANCH  11  12
HETATM   12  C   UNL     1     -10.759  13.168  67.524  1.00  0.00    -0.238 A  
HETATM   13  C   UNL     1      -9.611  12.727  68.195  1.00  0.00    -0.223 A  
HETATM   14  C   UNL     1      -8.699  11.885  67.571  1.00  0.00    -0.163 A  
HETATM   15  C   UNL     1      -8.935  11.449  66.273  1.00  0.00    -0.205 A  
HETATM   16  C   UNL     1     -10.094  11.839  65.587  1.00  0.00    -0.278 A  
HETATM   17  C   UNL     1     -11.028  12.710  66.206  1.00  0.00    -0.314 A  
HETATM   18  C   UNL     1     -12.175  13.071  65.461  1.00  0.00    -0.521 A  
HETATM   19  C   UNL     1     -12.393  12.584  64.166  1.00  0.00    -0.548 A  
HETATM   20  C   UNL     1     -11.469  11.724  63.582  1.00  0.00    -0.524 A  
HETATM   21  C   UNL     1     -10.325  11.359  64.288  1.00  0.00    -0.383 A  
ENDBRANCH  11  12
ENDBRANCH  10  11
ENDBRANCH   7  10
ENDBRANCH   6   7
ENDBRANCH   4   6
ENDBRANCH   2   4
TORSDOF 6
ENDMDL
MODEL       53
REMARK 921   NORMALIZED FREE ENERGY PREDICTED BY IDOCK:   -5.09 KCAL/MOL
REMARK 922        TOTAL FREE ENERGY PREDICTED BY IDOCK:   -7.56 KCAL/MOL
REMARK 923 INTER-LIGAND FREE ENERGY PREDICTED BY IDOCK:   -7.03 KCAL/MOL
REMARK 924 INTRA-LIGAND FREE ENERGY PREDICTED BY IDOCK:   -0.53 KCAL/MOL
REMARK 927      BINDING AFFINITY PREDICTED BY RF-SCORE:    0.00 PKD
ROOT
HETATM    1  C   UNL     1     -11.407   6.350  69.911  1.00  0.00    -0.500 C  
HETATM    2  C   UNL     1     -11.600   7.551  70.837  1.00  0.00    -0.286 C  
HETATM    3  C   UNL     1     -10.451   7.615  71.846  1.00  0.00    -0.256 C  
ENDROOT
BRANCH   2   4
HETATM    4  N   UNL     1     -11.664   8.759  70.011  1.00  0.00    -0.431 NA 
HETATM    5  H   UNL     1     -12.583   8.854  69.580  1.00  0.00     0.000 HD 
BRANCH   4   6
HETATM    6  C   UNL     1     -11.300   9.982  70.739  1.00  0.00    -0.360 C  
BRANCH   6   7
HETATM    7  C   UNL     1     -12.306  11.094  70.408  1.00  0.00    -0.344 C  
HETATM    8  O   UNL     1     -12.811  11.671  71.622  1.00  0.00    -0.395 OA 
HETATM    9  H   UNL     1     -13.434  12.358  71.418  1.00  0.00     0.000 HD 
BRANCH   7  10
HETATM   10  C   UNL     1     -11.676  12.189  69.540  1.00  0.00    -0.336 C  
BRANCH  10  11
HETATM   11  O   UNL     1     -11.060  11.614  68.376  1.00  0.00    -0.200 OA 
BRANCH  11  12
HETATM   12  C   UNL     1     -11.363  12.250  67.189  1.00  0.00    -0.335 A  
HETATM   13  C   UNL     1     -12.094  13.445  67.150  1.00  0.00    -0.367 A  
HETATM   14  C   UNL     1     -12.384  14.064  65.940  1.00  0.00    -0.515 A  
HETATM   15  C   UNL     1     -11.924  13.511  64.752  1.00  0.00    -0.424 A  
HETATM   16  C   UNL     1     -11.156  12.339  64.758  1.00  0.00    -0.356 A  
HETATM   17  C   UNL     1     -10.862  11.687  65.984  1.00  0.00    -0.339 A  
HETATM   18  C   UNL     1     -10.088  10.505  65.925  1.00  0.00    -0.323 A  
HETATM   19  C   UNL     1      -9.615   9.997  64.709  1.00  0.00    -0.374 A  
HETATM   20  C   UNL     1      -9.907  10.656  63.519  1.00  0.00    -0.384 A  
HETATM   21  C   UNL     1     -10.676  11.817  63.546  1.00  0.00    -0.501 A  
ENDBRANCH  11  12
ENDBRANCH  10  11
ENDBRANCH   7  10
ENDBRANCH   6   7
ENDBRANCH   4   6
ENDBRANCH   2   4
TORSDOF 6
ENDMDL
MODEL       54
REMARK 921   NORMALIZED FREE ENERGY PREDICTED BY IDOCK:   -5.09 KCAL/MOL
REMARK 922        TOTAL FREE ENERGY PREDICTED BY IDOCK:   -7.55 KCAL/MOL
REMARK 923 INTER-LIGAND FREE ENERGY PREDICTED BY IDOCK:   -6.98 KCAL/MOL
REMARK 924 INTRA-LIGAND FREE ENERGY PREDICTED BY IDOCK:   -0.57 KCAL/MOL
REMARK 927      BINDING AFFINITY PREDICTED BY RF-SCORE:    0.00 PKD
ROOT
HETATM    1  C   UNL     1      -9.194   8.209  70.905  1.00  0.00    -0.171 C  
HETATM    2  C   UNL     1     -10.705   7.987  70.838  1.00  0.00    -0.221 C  
HETATM    3  C   UNL     1     -11.392   8.767  71.961  1.00  0.00    -0.441 C  
ENDROOT
BRANCH   2   4
HETATM    4  N   UNL     1     -11.170   8.416  69.517  1.00  0.00    -0.439 NA 
HETATM    5  H   UNL     1     -12.182   8.546  69.514  1.00  0.00     0.000 HD 
BRANCH   4   6
HETATM    6  C   UNL     1     -10.489   9.620  69.022  1.00  0.00    -0.213 C  
BRANCH   6   7
HETATM    7  C   UNL     1     -11.518  10.571  68.394  1.00  0.00    -0.214 C  
HETATM    8  O   UNL     1     -12.740  10.532  69.148  1.00  0.00    -0.662 OA 
HETATM    9  H   UNL     1     -13.377  11.120  68.759  1.00  0.00     0.000 HD 
BRANCH   7  10
HETATM   10  C   UNL     1     -10.997  12.011  68.332  1.00  0.00    -0.237 C  
BRANCH  10  11
HETATM   11  O   UNL     1     -12.074  12.943  68.527  1.00  0.00    -0.279 OA 
BRANCH  11  12
HETATM   12  C   UNL     1     -11.709  14.127  69.135  1.00  0.00    -0.327 A  
HETATM   13  C   UNL     1     -10.970  15.112  68.465  1.00  0.00    -0.263 A  
HETATM   14  C   UNL     1     -10.617  16.295  69.102  1.00  0.00    -0.292 A  
HETATM   15  C   UNL     1     -11.020  16.523  70.412  1.00  0.00    -0.135 A  
HETATM   16  C   UNL     1     -11.793  15.577  71.098  1.00  0.00    -0.435 A  
HETATM   17  C   UNL     1     -12.151  14.357  70.466  1.00  0.00    -0.404 A  
HETATM   18  C   UNL     1     -12.928  13.440  71.212  1.00  0.00    -0.368 A  
HETATM   19  C   UNL     1     -13.342  13.722  72.519  1.00  0.00    -0.656 A  
HETATM   20  C   UNL     1     -12.987  14.927  73.117  1.00  0.00    -0.627 A  
HETATM   21  C   UNL     1     -12.215  15.845  72.410  1.00  0.00    -0.591 A  
ENDBRANCH  11  12
ENDBRANCH  10  11
ENDBRANCH   7  10
ENDBRANCH   6   7
ENDBRANCH   4   6
ENDBRANCH   2   4
TORSDOF 6
ENDMDL
MODEL       55
REMARK 921   NORMALIZED FREE ENERGY PREDICTED BY IDOCK:   -5.08 KCAL/MOL
REMARK 922        TOTAL FREE ENERGY PREDICTED BY IDOCK:   -7.54 KCAL/MOL
REMARK 923 INTER-LIGAND FREE ENERGY PREDICTED BY IDOCK:   -7.02 KCAL/MOL
REMARK 924 INTRA-LIGAND FREE ENERGY PREDICTED BY IDOCK:   -0.51 KCAL/MOL
REMARK 927      BINDING AFFINITY PREDICTED BY RF-SCORE:    0.00 PKD
ROOT
HETATM    1  C   UNL     1     -10.529  19.714  67.645  1.00  0.00    -0.579 C  
HETATM    2  C   UNL     1      -9.573  18.549  67.906  1.00  0.00    -0.300 C  
HETATM    3  C   UNL     1      -8.267  19.077  68.504  1.00  0.00    -0.390 C  
ENDROOT
BRANCH   2   4
HETATM    4  N   UNL     1     -10.239  17.606  68.806  1.00  0.00    -0.370 NA 
HETATM    5  H   UNL     1     -11.142  17.971  69.109  1.00  0.00     0.000 HD 
BRANCH   4   6
HETATM    6  C   UNL     1     -10.387  16.260  68.236  1.00  0.00    -0.272 C  
BRANCH   6   7
HETATM    7  C   UNL     1     -11.131  15.359  69.231  1.00  0.00    -0.280 C  
HETATM    8  O   UNL     1     -12.545  15.429  68.987  1.00  0.00    -0.547 OA 
HETATM    9  H   UNL     1     -13.006  14.872  69.603  1.00  0.00     0.000 HD 
BRANCH   7  10
HETATM   10  C   UNL     1     -10.664  13.903  69.139  1.00  0.00    -0.147 C  
BRANCH  10  11
HETATM   11  O   UNL     1     -11.683  13.086  68.539  1.00  0.00    -0.302 OA 
BRANCH  11  12
HETATM   12  C   UNL     1     -11.241  12.268  67.519  1.00  0.00    -0.297 A  
HETATM   13  C   UNL     1     -10.559  11.069  67.767  1.00  0.00    -0.250 A  
HETATM   14  C   UNL     1     -10.126  10.265  66.720  1.00  0.00    -0.272 A  
HETATM   15  C   UNL     1     -10.392  10.635  65.408  1.00  0.00    -0.303 A  
HETATM   16  C   UNL     1     -11.107  11.806  65.125  1.00  0.00    -0.341 A  
HETATM   17  C   UNL     1     -11.545  12.646  66.183  1.00  0.00    -0.445 A  
HETATM   18  C   UNL     1     -12.257  13.817  65.834  1.00  0.00    -0.501 A  
HETATM   19  C   UNL     1     -12.534  14.138  64.499  1.00  0.00    -0.350 A  
HETATM   20  C   UNL     1     -12.103  13.296  63.478  1.00  0.00    -0.550 A  
HETATM   21  C   UNL     1     -11.391  12.142  63.791  1.00  0.00    -0.529 A  
ENDBRANCH  11  12
ENDBRANCH  10  11
ENDBRANCH   7  10
ENDBRANCH   6   7
ENDBRANCH   4   6
ENDBRANCH   2   4
TORSDOF 6
ENDMDL
MODEL       56
REMARK 921   NORMALIZED FREE ENERGY PREDICTED BY IDOCK:   -5.07 KCAL/MOL
REMARK 922        TOTAL FREE ENERGY PREDICTED BY IDOCK:   -7.53 KCAL/MOL
REMARK 923 INTER-LIGAND FREE ENERGY PREDICTED BY IDOCK:   -7.05 KCAL/MOL
REMARK 924 INTRA-LIGAND FREE ENERGY PREDICTED BY IDOCK:   -0.48 KCAL/MOL
REMARK 927      BINDING AFFINITY PREDICTED BY RF-SCORE:    0.00 PKD
ROOT
HETATM    1  C   UNL     1     -12.179  12.162  63.486  1.00  0.00    -0.670 C  
HETATM    2  C   UNL     1     -11.805  13.483  64.160  1.00  0.00    -0.437 C  
HETATM    3  C   UNL     1     -12.736  13.738  65.347  1.00  0.00    -0.513 C  
ENDROOT
BRANCH   2   4
HETATM    4  N   UNL     1     -10.404  13.400  64.577  1.00  0.00    -0.545 NA 
HETATM    5  H   UNL     1      -9.782  13.479  63.773  1.00  0.00     0.000 HD 
BRANCH   4   6
HETATM    6  C   UNL     1     -10.046  14.380  65.612  1.00  0.00    -0.353 C  
BRANCH   6   7
HETATM    7  C   UNL     1      -9.237  13.687  66.717  1.00  0.00    -0.241 C  
HETATM    8  O   UNL     1      -8.589  12.520  66.187  1.00  0.00    -0.397 OA 
HETATM    9  H   UNL     1      -8.089  12.091  66.871  1.00  0.00     0.000 HD 
BRANCH   7  10
HETATM   10  C   UNL     1      -8.190  14.625  67.328  1.00  0.00    -0.212 C  
BRANCH  10  11
HETATM   11  O   UNL     1      -8.798  15.485  68.306  1.00  0.00    -0.173 OA 
BRANCH  11  12
HETATM   12  C   UNL     1      -8.195  16.719  68.443  1.00  0.00    -0.224 A  
HETATM   13  C   UNL     1      -6.959  16.877  69.084  1.00  0.00    -0.234 A  
HETATM   14  C   UNL     1      -6.374  18.131  69.207  1.00  0.00    -0.257 A  
HETATM   15  C   UNL     1      -7.005  19.245  68.667  1.00  0.00    -0.343 A  
HETATM   16  C   UNL     1      -8.222  19.117  67.984  1.00  0.00    -0.339 A  
HETATM   17  C   UNL     1      -8.839  17.844  67.862  1.00  0.00    -0.260 A  
HETATM   18  C   UNL     1     -10.069  17.781  67.167  1.00  0.00    -0.338 A  
HETATM   19  C   UNL     1     -10.657  18.922  66.608  1.00  0.00    -0.469 A  
HETATM   20  C   UNL     1     -10.031  20.158  66.732  1.00  0.00    -0.604 A  
HETATM   21  C   UNL     1      -8.824  20.253  67.419  1.00  0.00    -0.442 A  
ENDBRANCH  11  12
ENDBRANCH  10  11
ENDBRANCH   7  10
ENDBRANCH   6   7
ENDBRANCH   4   6
ENDBRANCH   2   4
TORSDOF 6
ENDMDL
MODEL       57
REMARK 921   NORMALIZED FREE ENERGY PREDICTED BY IDOCK:   -5.07 KCAL/MOL
REMARK 922        TOTAL FREE ENERGY PREDICTED BY IDOCK:   -7.53 KCAL/MOL
REMARK 923 INTER-LIGAND FREE ENERGY PREDICTED BY IDOCK:   -6.45 KCAL/MOL
REMARK 924 INTRA-LIGAND FREE ENERGY PREDICTED BY IDOCK:   -1.08 KCAL/MOL
REMARK 927      BINDING AFFINITY PREDICTED BY RF-SCORE:    0.00 PKD
ROOT
HETATM    1  C   UNL     1      -8.470  10.597  65.447  1.00  0.00    -0.162 C  
HETATM    2  C   UNL     1      -9.984  10.400  65.518  1.00  0.00    -0.282 C  
HETATM    3  C   UNL     1     -10.460  10.571  66.962  1.00  0.00    -0.304 C  
ENDROOT
BRANCH   2   4
HETATM    4  N   UNL     1     -10.613  11.372  64.621  1.00  0.00    -0.305 NA 
HETATM    5  H   UNL     1     -10.820  10.949  63.717  1.00  0.00     0.000 HD 
BRANCH   4   6
HETATM    6  C   UNL     1     -11.813  11.999  65.191  1.00  0.00    -0.216 C  
BRANCH   6   7
HETATM    7  C   UNL     1     -12.023  13.379  64.552  1.00  0.00    -0.407 C  
HETATM    8  O   UNL     1     -13.172  14.015  65.134  1.00  0.00    -0.768 OA 
HETATM    9  H   UNL     1     -13.302  14.869  64.739  1.00  0.00     0.000 HD 
BRANCH   7  10
HETATM   10  C   UNL     1     -10.794  14.278  64.724  1.00  0.00    -0.405 C  
BRANCH  10  11
HETATM   11  O   UNL     1     -10.217  14.094  66.028  1.00  0.00    -0.287 OA 
BRANCH  11  12
HETATM   12  C   UNL     1     -10.330  15.184  66.867  1.00  0.00    -0.272 A  
HETATM   13  C   UNL     1      -9.916  16.466  66.483  1.00  0.00    -0.294 A  
HETATM   14  C   UNL     1     -10.042  17.546  67.348  1.00  0.00    -0.325 A  
HETATM   15  C   UNL     1     -10.610  17.364  68.603  1.00  0.00    -0.318 A  
HETATM   16  C   UNL     1     -11.073  16.103  69.004  1.00  0.00    -0.336 A  
HETATM   17  C   UNL     1     -10.938  14.987  68.136  1.00  0.00    -0.281 A  
HETATM   18  C   UNL     1     -11.419  13.740  68.599  1.00  0.00    -0.336 A  
HETATM   19  C   UNL     1     -12.016  13.605  69.859  1.00  0.00    -0.415 A  
HETATM   20  C   UNL     1     -12.145  14.713  70.690  1.00  0.00    -0.385 A  
HETATM   21  C   UNL     1     -11.672  15.952  70.265  1.00  0.00    -0.352 A  
ENDBRANCH  11  12
ENDBRANCH  10  11
ENDBRANCH   7  10
ENDBRANCH   6   7
ENDBRANCH   4   6
ENDBRANCH   2   4
TORSDOF 6
ENDMDL
MODEL       58
REMARK 921   NORMALIZED FREE ENERGY PREDICTED BY IDOCK:   -5.05 KCAL/MOL
REMARK 922        TOTAL FREE ENERGY PREDICTED BY IDOCK:   -7.50 KCAL/MOL
REMARK 923 INTER-LIGAND FREE ENERGY PREDICTED BY IDOCK:   -7.06 KCAL/MOL
REMARK 924 INTRA-LIGAND FREE ENERGY PREDICTED BY IDOCK:   -0.44 KCAL/MOL
REMARK 927      BINDING AFFINITY PREDICTED BY RF-SCORE:    0.00 PKD
ROOT
HETATM    1  C   UNL     1     -12.645  13.936  65.807  1.00  0.00    -0.533 C  
HETATM    2  C   UNL     1     -12.162  14.599  64.517  1.00  0.00    -0.456 C  
HETATM    3  C   UNL     1     -11.056  15.608  64.837  1.00  0.00    -0.414 C  
ENDROOT
BRANCH   2   4
HETATM    4  N   UNL     1     -11.692  13.548  63.612  1.00  0.00    -0.689 NA 
HETATM    5  H   UNL     1     -11.580  13.910  62.665  1.00  0.00     0.000 HD 
BRANCH   4   6
HETATM    6  C   UNL     1     -10.459  12.894  64.070  1.00  0.00    -0.368 C  
BRANCH   6   7
HETATM    7  C   UNL     1     -10.642  11.370  64.035  1.00  0.00    -0.383 C  
HETATM    8  O   UNL     1     -10.521  10.897  62.684  1.00  0.00    -0.760 OA 
HETATM    9  H   UNL     1     -10.634   9.954  62.662  1.00  0.00     0.000 HD 
BRANCH   7  10
HETATM   10  C   UNL     1      -9.621  10.655  64.925  1.00  0.00    -0.269 C  
BRANCH  10  11
HETATM   11  O   UNL     1     -10.229   9.529  65.580  1.00  0.00    -0.228 OA 
BRANCH  11  12
HETATM   12  C   UNL     1     -10.313   9.638  66.954  1.00  0.00    -0.238 A  
HETATM   13  C   UNL     1     -10.239  10.874  67.609  1.00  0.00    -0.214 A  
HETATM   14  C   UNL     1     -10.327  10.954  68.994  1.00  0.00    -0.230 A  
HETATM   15  C   UNL     1     -10.517   9.799  69.743  1.00  0.00    -0.278 A  
HETATM   16  C   UNL     1     -10.636   8.551  69.116  1.00  0.00    -0.188 A  
HETATM   17  C   UNL     1     -10.535   8.451  67.704  1.00  0.00    -0.307 A  
HETATM   18  C   UNL     1     -10.658   7.164  67.131  1.00  0.00    -0.417 A  
HETATM   19  C   UNL     1     -10.882   6.028  67.919  1.00  0.00    -0.378 A  
HETATM   20  C   UNL     1     -10.987   6.150  69.301  1.00  0.00    -0.450 A  
HETATM   21  C   UNL     1     -10.861   7.403  69.894  1.00  0.00    -0.259 A  
ENDBRANCH  11  12
ENDBRANCH  10  11
ENDBRANCH   7  10
ENDBRANCH   6   7
ENDBRANCH   4   6
ENDBRANCH   2   4
TORSDOF 6
ENDMDL
MODEL       59
REMARK 921   NORMALIZED FREE ENERGY PREDICTED BY IDOCK:   -5.04 KCAL/MOL
REMARK 922        TOTAL FREE ENERGY PREDICTED BY IDOCK:   -7.49 KCAL/MOL
REMARK 923 INTER-LIGAND FREE ENERGY PREDICTED BY IDOCK:   -7.00 KCAL/MOL
REMARK 924 INTRA-LIGAND FREE ENERGY PREDICTED BY IDOCK:   -0.48 KCAL/MOL
REMARK 927      BINDING AFFINITY PREDICTED BY RF-SCORE:    0.00 PKD
ROOT
HETATM    1  C   UNL     1     -12.510  15.924  74.129  1.00  0.00    -0.776 C  
HETATM    2  C   UNL     1     -12.843  14.917  73.027  1.00  0.00    -0.486 C  
HETATM    3  C   UNL     1     -14.125  15.345  72.307  1.00  0.00    -0.660 C  
ENDROOT
BRANCH   2   4
HETATM    4  N   UNL     1     -11.703  14.850  72.111  1.00  0.00    -0.359 NA 
HETATM    5  H   UNL     1     -11.513  13.885  71.840  1.00  0.00     0.000 HD 
BRANCH   4   6
HETATM    6  C   UNL     1     -11.858  15.703  70.925  1.00  0.00    -0.388 C  
BRANCH   6   7
HETATM    7  C   UNL     1     -11.562  14.884  69.660  1.00  0.00    -0.303 C  
HETATM    8  O   UNL     1     -10.166  14.546  69.615  1.00  0.00    -0.426 OA 
HETATM    9  H   UNL     1      -9.983  14.039  68.833  1.00  0.00     0.000 HD 
BRANCH   7  10
HETATM   10  C   UNL     1     -12.404  13.605  69.602  1.00  0.00    -0.203 C  
BRANCH  10  11
HETATM   11  O   UNL     1     -11.783  12.634  68.743  1.00  0.00    -0.288 OA 
BRANCH  11  12
HETATM   12  C   UNL     1     -11.607  11.389  69.312  1.00  0.00    -0.317 A  
HETATM   13  C   UNL     1     -12.007  11.107  70.625  1.00  0.00    -0.459 A  
HETATM   14  C   UNL     1     -11.819   9.844  71.172  1.00  0.00    -0.472 A  
HETATM   15  C   UNL     1     -11.251   8.835  70.404  1.00  0.00    -0.247 A  
HETATM   16  C   UNL     1     -10.877   9.071  69.075  1.00  0.00    -0.092 A  
HETATM   17  C   UNL     1     -11.051  10.360  68.505  1.00  0.00    -0.318 A  
HETATM   18  C   UNL     1     -10.649  10.538  67.160  1.00  0.00    -0.319 A  
HETATM   19  C   UNL     1     -10.111   9.486  66.409  1.00  0.00    -0.328 A  
HETATM   20  C   UNL     1      -9.958   8.228  66.984  1.00  0.00    -0.325 A  
HETATM   21  C   UNL     1     -10.335   8.026  68.309  1.00  0.00    -0.240 A  
ENDBRANCH  11  12
ENDBRANCH  10  11
ENDBRANCH   7  10
ENDBRANCH   6   7
ENDBRANCH   4   6
ENDBRANCH   2   4
TORSDOF 6
ENDMDL
MODEL       60
REMARK 921   NORMALIZED FREE ENERGY PREDICTED BY IDOCK:   -5.02 KCAL/MOL
REMARK 922        TOTAL FREE ENERGY PREDICTED BY IDOCK:   -7.47 KCAL/MOL
REMARK 923 INTER-LIGAND FREE ENERGY PREDICTED BY IDOCK:   -6.07 KCAL/MOL
REMARK 924 INTRA-LIGAND FREE ENERGY PREDICTED BY IDOCK:   -1.40 KCAL/MOL
REMARK 927      BINDING AFFINITY PREDICTED BY RF-SCORE:    0.00 PKD
ROOT
HETATM    1  C   UNL     1     -10.524  10.341  67.420  1.00  0.00    -0.303 C  
HETATM    2  C   UNL     1      -9.544  11.030  68.369  1.00  0.00    -0.181 C  
HETATM    3  C   UNL     1      -8.714  12.058  67.597  1.00  0.00    -0.166 C  
ENDROOT
BRANCH   2   4
HETATM    4  N   UNL     1     -10.314  11.654  69.447  1.00  0.00    -0.426 NA 
HETATM    5  H   UNL     1     -10.673  12.563  69.155  1.00  0.00     0.000 HD 
BRANCH   4   6
HETATM    6  C   UNL     1     -11.399  10.804  69.956  1.00  0.00    -0.319 C  
BRANCH   6   7
HETATM    7  C   UNL     1     -12.529  11.687  70.505  1.00  0.00    -0.257 C  
HETATM    8  O   UNL     1     -12.971  11.179  71.774  1.00  0.00    -0.451 OA 
HETATM    9  H   UNL     1     -13.670  11.725  72.113  1.00  0.00     0.000 HD 
BRANCH   7  10
HETATM   10  C   UNL     1     -12.086  13.146  70.659  1.00  0.00    -0.264 C  
BRANCH  10  11
HETATM   11  O   UNL     1     -12.616  13.947  69.590  1.00  0.00    -0.238 OA 
BRANCH  11  12
HETATM   12  C   UNL     1     -11.700  14.785  68.988  1.00  0.00    -0.312 A  
HETATM   13  C   UNL     1     -10.982  15.747  69.713  1.00  0.00    -0.316 A  
HETATM   14  C   UNL     1     -10.065  16.578  69.081  1.00  0.00    -0.287 A  
HETATM   15  C   UNL     1      -9.831  16.441  67.718  1.00  0.00    -0.239 A  
HETATM   16  C   UNL     1     -10.501  15.462  66.972  1.00  0.00    -0.295 A  
HETATM   17  C   UNL     1     -11.451  14.615  67.600  1.00  0.00    -0.364 A  
HETATM   18  C   UNL     1     -12.099  13.650  66.792  1.00  0.00    -0.445 A  
HETATM   19  C   UNL     1     -11.811  13.522  65.428  1.00  0.00    -0.379 A  
HETATM   20  C   UNL     1     -10.870  14.357  64.834  1.00  0.00    -0.430 A  
HETATM   21  C   UNL     1     -10.224  15.322  65.602  1.00  0.00    -0.398 A  
ENDBRANCH  11  12
ENDBRANCH  10  11
ENDBRANCH   7  10
ENDBRANCH   6   7
ENDBRANCH   4   6
ENDBRANCH   2   4
TORSDOF 6
ENDMDL
MODEL       61
REMARK 921   NORMALIZED FREE ENERGY PREDICTED BY IDOCK:   -5.02 KCAL/MOL
REMARK 922        TOTAL FREE ENERGY PREDICTED BY IDOCK:   -7.46 KCAL/MOL
REMARK 923 INTER-LIGAND FREE ENERGY PREDICTED BY IDOCK:   -6.46 KCAL/MOL
REMARK 924 INTRA-LIGAND FREE ENERGY PREDICTED BY IDOCK:   -1.00 KCAL/MOL
REMARK 927      BINDING AFFINITY PREDICTED BY RF-SCORE:    0.00 PKD
ROOT
HETATM    1  C   UNL     1     -10.196  11.427  63.989  1.00  0.00    -0.398 C  
HETATM    2  C   UNL     1     -11.219  12.526  63.701  1.00  0.00    -0.483 C  
HETATM    3  C   UNL     1     -12.598  11.901  63.476  1.00  0.00    -0.579 C  
ENDROOT
BRANCH   2   4
HETATM    4  N   UNL     1     -11.223  13.454  64.835  1.00  0.00    -0.319 NA 
HETATM    5  H   UNL     1     -12.131  13.454  65.299  1.00  0.00     0.000 HD 
BRANCH   4   6
HETATM    6  C   UNL     1     -10.144  13.200  65.799  1.00  0.00    -0.285 C  
BRANCH   6   7
HETATM    7  C   UNL     1     -10.519  13.804  67.160  1.00  0.00    -0.272 C  
HETATM    8  O   UNL     1     -10.494  15.238  67.080  1.00  0.00    -0.279 OA 
HETATM    9  H   UNL     1     -10.726  15.611  67.922  1.00  0.00     0.000 HD 
BRANCH   7  10
HETATM   10  C   UNL     1     -11.902  13.337  67.626  1.00  0.00    -0.357 C  
BRANCH  10  11
HETATM   11  O   UNL     1     -12.049  11.921  67.423  1.00  0.00    -0.577 OA 
BRANCH  11  12
HETATM   12  C   UNL     1     -11.753  11.147  68.527  1.00  0.00    -0.298 A  
HETATM   13  C   UNL     1     -12.234  11.458  69.806  1.00  0.00    -0.332 A  
HETATM   14  C   UNL     1     -11.921  10.660  70.899  1.00  0.00    -0.469 A  
HETATM   15  C   UNL     1     -11.142   9.523  70.726  1.00  0.00    -0.390 A  
HETATM   16  C   UNL     1     -10.677   9.161  69.454  1.00  0.00    -0.210 A  
HETATM   17  C   UNL     1     -10.978   9.973  68.329  1.00  0.00    -0.278 A  
HETATM   18  C   UNL     1     -10.476   9.557  67.073  1.00  0.00    -0.302 A  
HETATM   19  C   UNL     1      -9.722   8.386  66.934  1.00  0.00    -0.292 A  
HETATM   20  C   UNL     1      -9.446   7.600  68.049  1.00  0.00    -0.151 A  
HETATM   21  C   UNL     1      -9.918   7.989  69.300  1.00  0.00    -0.191 A  
ENDBRANCH  11  12
ENDBRANCH  10  11
ENDBRANCH   7  10
ENDBRANCH   6   7
ENDBRANCH   4   6
ENDBRANCH   2   4
TORSDOF 6
ENDMDL
MODEL       62
REMARK 921   NORMALIZED FREE ENERGY PREDICTED BY IDOCK:   -5.01 KCAL/MOL
REMARK 922        TOTAL FREE ENERGY PREDICTED BY IDOCK:   -7.45 KCAL/MOL
REMARK 923 INTER-LIGAND FREE ENERGY PREDICTED BY IDOCK:   -6.77 KCAL/MOL
REMARK 924 INTRA-LIGAND FREE ENERGY PREDICTED BY IDOCK:   -0.67 KCAL/MOL
REMARK 927      BINDING AFFINITY PREDICTED BY RF-SCORE:    0.00 PKD
ROOT
HETATM    1  C   UNL     1     -12.128  13.176  63.657  1.00  0.00    -0.583 C  
HETATM    2  C   UNL     1     -11.384  12.039  64.359  1.00  0.00    -0.345 C  
HETATM    3  C   UNL     1     -10.253  11.531  63.461  1.00  0.00    -0.462 C  
ENDROOT
BRANCH   2   4
HETATM    4  N   UNL     1     -10.876  12.547  65.635  1.00  0.00    -0.270 NA 
HETATM    5  H   UNL     1      -9.883  12.336  65.739  1.00  0.00     0.000 HD 
BRANCH   4   6
HETATM    6  C   UNL     1     -11.127  13.981  65.833  1.00  0.00    -0.301 C  
BRANCH   6   7
HETATM    7  C   UNL     1     -11.050  14.314  67.330  1.00  0.00    -0.304 C  
HETATM    8  O   UNL     1     -12.375  14.414  67.875  1.00  0.00    -0.615 OA 
HETATM    9  H   UNL     1     -12.328  14.620  68.801  1.00  0.00     0.000 HD 
BRANCH   7  10
HETATM   10  C   UNL     1     -10.252  13.260  68.105  1.00  0.00    -0.243 C  
BRANCH  10  11
HETATM   11  O   UNL     1     -11.092  12.142  68.441  1.00  0.00    -0.213 OA 
BRANCH  11  12
HETATM   12  C   UNL     1     -10.461  11.138  69.148  1.00  0.00    -0.182 A  
HETATM   13  C   UNL     1      -9.117  10.806  68.930  1.00  0.00    -0.170 A  
HETATM   14  C   UNL     1      -8.507   9.791  69.657  1.00  0.00    -0.194 A  
HETATM   15  C   UNL     1      -9.225   9.110  70.632  1.00  0.00    -0.310 A  
HETATM   16  C   UNL     1     -10.558   9.444  70.903  1.00  0.00    -0.390 A  
HETATM   17  C   UNL     1     -11.200  10.470  70.160  1.00  0.00    -0.389 A  
HETATM   18  C   UNL     1     -12.549  10.757  70.477  1.00  0.00    -0.421 A  
HETATM   19  C   UNL     1     -13.228  10.070  71.490  1.00  0.00    -0.497 A  
HETATM   20  C   UNL     1     -12.577   9.075  72.212  1.00  0.00    -0.445 A  
HETATM   21  C   UNL     1     -11.253   8.763  71.916  1.00  0.00    -0.438 A  
ENDBRANCH  11  12
ENDBRANCH  10  11
ENDBRANCH   7  10
ENDBRANCH   6   7
ENDBRANCH   4   6
ENDBRANCH   2   4
TORSDOF 6
ENDMDL
MODEL       63
REMARK 921   NORMALIZED FREE ENERGY PREDICTED BY IDOCK:   -5.00 KCAL/MOL
REMARK 922        TOTAL FREE ENERGY PREDICTED BY IDOCK:   -7.43 KCAL/MOL
REMARK 923 INTER-LIGAND FREE ENERGY PREDICTED BY IDOCK:   -6.53 KCAL/MOL
REMARK 924 INTRA-LIGAND FREE ENERGY PREDICTED BY IDOCK:   -0.90 KCAL/MOL
REMARK 927      BINDING AFFINITY PREDICTED BY RF-SCORE:    0.00 PKD
ROOT
HETATM    1  C   UNL     1     -12.153  14.174  70.753  1.00  0.00    -0.419 C  
HETATM    2  C   UNL     1     -12.172  15.400  69.840  1.00  0.00    -0.334 C  
HETATM    3  C   UNL     1     -10.906  16.231  70.065  1.00  0.00    -0.329 C  
ENDROOT
BRANCH   2   4
HETATM    4  N   UNL     1     -12.275  14.936  68.455  1.00  0.00    -0.597 NA 
HETATM    5  H   UNL     1     -12.553  15.698  67.838  1.00  0.00     0.000 HD 
BRANCH   4   6
HETATM    6  C   UNL     1     -11.052  14.287  67.965  1.00  0.00    -0.269 C  
BRANCH   6   7
HETATM    7  C   UNL     1     -11.121  14.148  66.437  1.00  0.00    -0.320 C  
HETATM    8  O   UNL     1     -12.431  13.707  66.048  1.00  0.00    -0.445 OA 
HETATM    9  H   UNL     1     -12.474  13.621  65.103  1.00  0.00     0.000 HD 
BRANCH   7  10
HETATM   10  C   UNL     1     -10.789  15.467  65.731  1.00  0.00    -0.343 C  
BRANCH  10  11
HETATM   11  O   UNL     1      -9.520  15.970  66.180  1.00  0.00    -0.284 OA 
BRANCH  11  12
HETATM   12  C   UNL     1      -9.559  17.244  66.709  1.00  0.00    -0.272 A  
HETATM   13  C   UNL     1     -10.622  18.123  66.458  1.00  0.00    -0.290 A  
HETATM   14  C   UNL     1     -10.635  19.400  67.005  1.00  0.00    -0.586 A  
HETATM   15  C   UNL     1      -9.598  19.809  67.834  1.00  0.00    -0.482 A  
HETATM   16  C   UNL     1      -8.541  18.942  68.138  1.00  0.00    -0.349 A  
HETATM   17  C   UNL     1      -8.505  17.638  67.577  1.00  0.00    -0.220 A  
HETATM   18  C   UNL     1      -7.409  16.812  67.918  1.00  0.00    -0.169 A  
HETATM   19  C   UNL     1      -6.400  17.250  68.784  1.00  0.00    -0.181 A  
HETATM   20  C   UNL     1      -6.459  18.529  69.330  1.00  0.00    -0.257 A  
HETATM   21  C   UNL     1      -7.521  19.368  69.005  1.00  0.00    -0.385 A  
ENDBRANCH  11  12
ENDBRANCH  10  11
ENDBRANCH   7  10
ENDBRANCH   6   7
ENDBRANCH   4   6
ENDBRANCH   2   4
TORSDOF 6
ENDMDL
MODEL       64
REMARK 921   NORMALIZED FREE ENERGY PREDICTED BY IDOCK:   -5.00 KCAL/MOL
REMARK 922        TOTAL FREE ENERGY PREDICTED BY IDOCK:   -7.43 KCAL/MOL
REMARK 923 INTER-LIGAND FREE ENERGY PREDICTED BY IDOCK:   -6.73 KCAL/MOL
REMARK 924 INTRA-LIGAND FREE ENERGY PREDICTED BY IDOCK:   -0.70 KCAL/MOL
REMARK 927      BINDING AFFINITY PREDICTED BY RF-SCORE:    0.00 PKD
ROOT
HETATM    1  C   UNL     1      -6.199  18.942  69.153  1.00  0.00    -0.284 C  
HETATM    2  C   UNL     1      -7.294  19.772  68.484  1.00  0.00    -0.316 C  
HETATM    3  C   UNL     1      -6.660  20.894  67.658  1.00  0.00    -0.409 C  
ENDROOT
BRANCH   2   4
HETATM    4  N   UNL     1      -8.102  18.877  67.653  1.00  0.00    -0.253 NA 
HETATM    5  H   UNL     1      -8.799  18.391  68.216  1.00  0.00     0.000 HD 
BRANCH   4   6
HETATM    6  C   UNL     1      -8.733  19.553  66.511  1.00  0.00    -0.356 C  
BRANCH   6   7
HETATM    7  C   UNL     1     -10.259  19.529  66.680  1.00  0.00    -0.449 C  
HETATM    8  O   UNL     1     -10.893  19.696  65.402  1.00  0.00    -0.415 OA 
HETATM    9  H   UNL     1     -11.837  19.681  65.506  1.00  0.00     0.000 HD 
BRANCH   7  10
HETATM   10  C   UNL     1     -10.738  18.225  67.327  1.00  0.00    -0.337 C  
BRANCH  10  11
HETATM   11  O   UNL     1     -10.332  17.095  66.537  1.00  0.00    -0.318 OA 
BRANCH  11  12
HETATM   12  C   UNL     1     -10.585  15.867  67.115  1.00  0.00    -0.316 A  
HETATM   13  C   UNL     1     -10.333  15.615  68.471  1.00  0.00    -0.219 A  
HETATM   14  C   UNL     1     -10.600  14.370  69.026  1.00  0.00    -0.245 A  
HETATM   15  C   UNL     1     -11.147  13.364  68.239  1.00  0.00    -0.289 A  
HETATM   16  C   UNL     1     -11.449  13.595  66.890  1.00  0.00    -0.369 A  
HETATM   17  C   UNL     1     -11.171  14.858  66.305  1.00  0.00    -0.331 A  
HETATM   18  C   UNL     1     -11.493  15.027  64.938  1.00  0.00    -0.399 A  
HETATM   19  C   UNL     1     -12.075  13.998  64.187  1.00  0.00    -0.456 A  
HETATM   20  C   UNL     1     -12.347  12.771  64.783  1.00  0.00    -0.540 A  
HETATM   21  C   UNL     1     -12.031  12.572  66.124  1.00  0.00    -0.432 A  
ENDBRANCH  11  12
ENDBRANCH  10  11
ENDBRANCH   7  10
ENDBRANCH   6   7
ENDBRANCH   4   6
ENDBRANCH   2   4
TORSDOF 6
ENDMDL
MODEL       65
REMARK 921   NORMALIZED FREE ENERGY PREDICTED BY IDOCK:   -5.00 KCAL/MOL
REMARK 922        TOTAL FREE ENERGY PREDICTED BY IDOCK:   -7.43 KCAL/MOL
REMARK 923 INTER-LIGAND FREE ENERGY PREDICTED BY IDOCK:   -6.80 KCAL/MOL
REMARK 924 INTRA-LIGAND FREE ENERGY PREDICTED BY IDOCK:   -0.63 KCAL/MOL
REMARK 927      BINDING AFFINITY PREDICTED BY RF-SCORE:    0.00 PKD
ROOT
HETATM    1  C   UNL     1      -8.732  17.468  68.346  1.00  0.00    -0.276 C  
HETATM    2  C   UNL     1     -10.136  17.991  68.650  1.00  0.00    -0.394 C  
HETATM    3  C   UNL     1     -10.659  18.790  67.454  1.00  0.00    -0.505 C  
ENDROOT
BRANCH   2   4
HETATM    4  N   UNL     1     -10.994  16.845  68.953  1.00  0.00    -0.262 NA 
HETATM    5  H   UNL     1     -11.358  16.429  68.096  1.00  0.00     0.000 HD 
BRANCH   4   6
HETATM    6  C   UNL     1     -10.338  15.829  69.787  1.00  0.00    -0.306 C  
BRANCH   6   7
HETATM    7  C   UNL     1     -11.302  15.367  70.889  1.00  0.00    -0.359 C  
HETATM    8  O   UNL     1     -11.812  16.507  71.599  1.00  0.00    -0.665 OA 
HETATM    9  H   UNL     1     -12.408  16.222  72.281  1.00  0.00     0.000 HD 
BRANCH   7  10
HETATM   10  C   UNL     1     -12.467  14.552  70.319  1.00  0.00    -0.348 C  
BRANCH  10  11
HETATM   11  O   UNL     1     -12.179  14.139  68.972  1.00  0.00    -0.332 OA 
BRANCH  11  12
HETATM   12  C   UNL     1     -11.825  12.812  68.839  1.00  0.00    -0.308 A  
HETATM   13  C   UNL     1     -11.907  11.908  69.908  1.00  0.00    -0.418 A  
HETATM   14  C   UNL     1     -11.545  10.577  69.745  1.00  0.00    -0.368 A  
HETATM   15  C   UNL     1     -11.119  10.122  68.503  1.00  0.00    -0.266 A  
HETATM   16  C   UNL     1     -11.064  10.989  67.404  1.00  0.00    -0.370 A  
HETATM   17  C   UNL     1     -11.418  12.356  67.557  1.00  0.00    -0.410 A  
HETATM   18  C   UNL     1     -11.336  13.182  66.412  1.00  0.00    -0.349 A  
HETATM   19  C   UNL     1     -10.933  12.678  65.169  1.00  0.00    -0.324 A  
HETATM   20  C   UNL     1     -10.599  11.333  65.039  1.00  0.00    -0.353 A  
HETATM   21  C   UNL     1     -10.660  10.498  66.152  1.00  0.00    -0.182 A  
ENDBRANCH  11  12
ENDBRANCH  10  11
ENDBRANCH   7  10
ENDBRANCH   6   7
ENDBRANCH   4   6
ENDBRANCH   2   4
TORSDOF 6
ENDMDL
MODEL       66
REMARK 921   NORMALIZED FREE ENERGY PREDICTED BY IDOCK:   -4.98 KCAL/MOL
REMARK 922        TOTAL FREE ENERGY PREDICTED BY IDOCK:   -7.41 KCAL/MOL
REMARK 923 INTER-LIGAND FREE ENERGY PREDICTED BY IDOCK:   -7.10 KCAL/MOL
REMARK 924 INTRA-LIGAND FREE ENERGY PREDICTED BY IDOCK:   -0.31 KCAL/MOL
REMARK 927      BINDING AFFINITY PREDICTED BY RF-SCORE:    0.00 PKD
ROOT
HETATM    1  C   UNL     1      -9.995   5.477  70.005  1.00  0.00    -0.285 C  
HETATM    2  C   UNL     1     -11.328   6.217  70.123  1.00  0.00    -0.406 C  
HETATM    3  C   UNL     1     -11.653   6.464  71.598  1.00  0.00    -0.363 C  
ENDROOT
BRANCH   2   4
HETATM    4  N   UNL     1     -11.220   7.472  69.375  1.00  0.00    -0.450 NA 
HETATM    5  H   UNL     1     -12.143   7.815  69.109  1.00  0.00     0.000 HD 
BRANCH   4   6
HETATM    6  C   UNL     1     -10.462   8.510  70.085  1.00  0.00    -0.220 C  
BRANCH   6   7
HETATM    7  C   UNL     1     -10.806   9.888  69.499  1.00  0.00    -0.246 C  
HETATM    8  O   UNL     1     -11.618   9.729  68.325  1.00  0.00    -0.504 OA 
HETATM    9  H   UNL     1     -11.830  10.581  67.963  1.00  0.00     0.000 HD 
BRANCH   7  10
HETATM   10  C   UNL     1     -11.536  10.771  70.516  1.00  0.00    -0.330 C  
BRANCH  10  11
HETATM   11  O   UNL     1     -12.345  11.749  69.841  1.00  0.00    -0.223 OA 
BRANCH  11  12
HETATM   12  C   UNL     1     -11.800  13.017  69.799  1.00  0.00    -0.311 A  
HETATM   13  C   UNL     1     -10.959  13.433  68.758  1.00  0.00    -0.290 A  
HETATM   14  C   UNL     1     -10.426  14.716  68.741  1.00  0.00    -0.246 A  
HETATM   15  C   UNL     1     -10.747  15.612  69.753  1.00  0.00    -0.309 A  
HETATM   16  C   UNL     1     -11.617  15.242  70.787  1.00  0.00    -0.371 A  
HETATM   17  C   UNL     1     -12.160  13.931  70.826  1.00  0.00    -0.404 A  
HETATM   18  C   UNL     1     -13.027  13.616  71.898  1.00  0.00    -0.432 A  
HETATM   19  C   UNL     1     -13.352  14.559  72.881  1.00  0.00    -0.579 A  
HETATM   20  C   UNL     1     -12.815  15.841  72.820  1.00  0.00    -0.569 A  
HETATM   21  C   UNL     1     -11.951  16.176  71.781  1.00  0.00    -0.560 A  
ENDBRANCH  11  12
ENDBRANCH  10  11
ENDBRANCH   7  10
ENDBRANCH   6   7
ENDBRANCH   4   6
ENDBRANCH   2   4
TORSDOF 6
ENDMDL
MODEL       67
REMARK 921   NORMALIZED FREE ENERGY PREDICTED BY IDOCK:   -4.97 KCAL/MOL
REMARK 922        TOTAL FREE ENERGY PREDICTED BY IDOCK:   -7.40 KCAL/MOL
REMARK 923 INTER-LIGAND FREE ENERGY PREDICTED BY IDOCK:   -6.85 KCAL/MOL
REMARK 924 INTRA-LIGAND FREE ENERGY PREDICTED BY IDOCK:   -0.55 KCAL/MOL
REMARK 927      BINDING AFFINITY PREDICTED BY RF-SCORE:    0.00 PKD
ROOT
HETATM    1  C   UNL     1     -10.577   8.134  72.270  1.00  0.00    -0.378 C  
HETATM    2  C   UNL     1     -11.922   8.129  71.544  1.00  0.00    -0.298 C  
HETATM    3  C   UNL     1     -12.839   9.195  72.149  1.00  0.00    -0.486 C  
ENDROOT
BRANCH   2   4
HETATM    4  N   UNL     1     -11.674   8.371  70.122  1.00  0.00    -0.454 NA 
HETATM    5  H   UNL     1     -12.404   8.961  69.723  1.00  0.00     0.000 HD 
BRANCH   4   6
HETATM    6  C   UNL     1     -10.343   8.932  69.850  1.00  0.00    -0.206 C  
BRANCH   6   7
HETATM    7  C   UNL     1     -10.489  10.362  69.310  1.00  0.00    -0.234 C  
HETATM    8  O   UNL     1      -9.232  11.049  69.406  1.00  0.00    -0.399 OA 
HETATM    9  H   UNL     1      -9.322  11.934  69.073  1.00  0.00     0.000 HD 
BRANCH   7  10
HETATM   10  C   UNL     1     -10.972  10.372  67.856  1.00  0.00    -0.297 C  
BRANCH  10  11
HETATM   11  O   UNL     1     -12.029  11.333  67.686  1.00  0.00    -0.634 OA 
BRANCH  11  12
HETATM   12  C   UNL     1     -11.680  12.448  66.950  1.00  0.00    -0.362 A  
HETATM   13  C   UNL     1     -11.497  12.398  65.562  1.00  0.00    -0.404 A  
HETATM   14  C   UNL     1     -11.147  13.536  64.847  1.00  0.00    -0.356 A  
HETATM   15  C   UNL     1     -11.001  14.750  65.506  1.00  0.00    -0.350 A  
HETATM   16  C   UNL     1     -11.217  14.845  66.888  1.00  0.00    -0.343 A  
HETATM   17  C   UNL     1     -11.562  13.688  67.635  1.00  0.00    -0.381 A  
HETATM   18  C   UNL     1     -11.762  13.846  69.026  1.00  0.00    -0.378 A  
HETATM   19  C   UNL     1     -11.637  15.094  69.649  1.00  0.00    -0.335 A  
HETATM   20  C   UNL     1     -11.307  16.217  68.896  1.00  0.00    -0.350 A  
HETATM   21  C   UNL     1     -11.095  16.090  67.526  1.00  0.00    -0.207 A  
ENDBRANCH  11  12
ENDBRANCH  10  11
ENDBRANCH   7  10
ENDBRANCH   6   7
ENDBRANCH   4   6
ENDBRANCH   2   4
TORSDOF 6
ENDMDL
MODEL       68
REMARK 921   NORMALIZED FREE ENERGY PREDICTED BY IDOCK:   -4.97 KCAL/MOL
REMARK 922        TOTAL FREE ENERGY PREDICTED BY IDOCK:   -7.40 KCAL/MOL
REMARK 923 INTER-LIGAND FREE ENERGY PREDICTED BY IDOCK:   -6.70 KCAL/MOL
REMARK 924 INTRA-LIGAND FREE ENERGY PREDICTED BY IDOCK:   -0.70 KCAL/MOL
REMARK 927      BINDING AFFINITY PREDICTED BY RF-SCORE:    0.00 PKD
ROOT
HETATM    1  C   UNL     1     -11.263  10.590  68.282  1.00  0.00    -0.354 C  
HETATM    2  C   UNL     1     -11.542  10.863  69.761  1.00  0.00    -0.322 C  
HETATM    3  C   UNL     1     -11.955  12.326  69.946  1.00  0.00    -0.377 C  
ENDROOT
BRANCH   2   4
HETATM    4  N   UNL     1     -12.592   9.944  70.203  1.00  0.00    -0.497 NA 
HETATM    5  H   UNL     1     -12.249   8.984  70.219  1.00  0.00     0.000 HD 
BRANCH   4   6
HETATM    6  C   UNL     1     -13.180  10.310  71.499  1.00  0.00    -0.386 C  
BRANCH   6   7
HETATM    7  C   UNL     1     -13.120   9.104  72.449  1.00  0.00    -0.423 C  
HETATM    8  O   UNL     1     -14.351   9.000  73.181  1.00  0.00    -1.136 OA 
HETATM    9  H   UNL     1     -14.314   8.255  73.769  1.00  0.00     0.000 HD 
BRANCH   7  10
HETATM   10  C   UNL     1     -12.858   7.798  71.692  1.00  0.00    -0.340 C  
BRANCH  10  11
HETATM   11  O   UNL     1     -11.446   7.602  71.504  1.00  0.00    -0.254 OA 
BRANCH  11  12
HETATM   12  C   UNL     1     -10.983   6.356  71.876  1.00  0.00    -0.253 A  
HETATM   13  C   UNL     1     -11.069   5.892  73.196  1.00  0.00    -0.259 A  
HETATM   14  C   UNL     1     -10.595   4.632  73.541  1.00  0.00    -0.304 A  
HETATM   15  C   UNL     1     -10.051   3.806  72.566  1.00  0.00    -0.235 A  
HETATM   16  C   UNL     1      -9.987   4.222  71.229  1.00  0.00    -0.230 A  
HETATM   17  C   UNL     1     -10.455   5.512  70.862  1.00  0.00    -0.319 A  
HETATM   18  C   UNL     1     -10.358   5.876  69.499  1.00  0.00    -0.314 A  
HETATM   19  C   UNL     1      -9.833   5.001  68.540  1.00  0.00    -0.216 A  
HETATM   20  C   UNL     1      -9.388   3.739  68.920  1.00  0.00    -0.234 A  
HETATM   21  C   UNL     1      -9.462   3.356  70.257  1.00  0.00    -0.247 A  
ENDBRANCH  11  12
ENDBRANCH  10  11
ENDBRANCH   7  10
ENDBRANCH   6   7
ENDBRANCH   4   6
ENDBRANCH   2   4
TORSDOF 6
ENDMDL
MODEL       69
REMARK 921   NORMALIZED FREE ENERGY PREDICTED BY IDOCK:   -4.97 KCAL/MOL
REMARK 922        TOTAL FREE ENERGY PREDICTED BY IDOCK:   -7.39 KCAL/MOL
REMARK 923 INTER-LIGAND FREE ENERGY PREDICTED BY IDOCK:   -7.24 KCAL/MOL
REMARK 924 INTRA-LIGAND FREE ENERGY PREDICTED BY IDOCK:   -0.15 KCAL/MOL
REMARK 927      BINDING AFFINITY PREDICTED BY RF-SCORE:    0.00 PKD
ROOT
HETATM    1  C   UNL     1      -9.747   6.847  73.154  1.00  0.00    -0.200 C  
HETATM    2  C   UNL     1     -11.058   6.426  72.489  1.00  0.00    -0.263 C  
HETATM    3  C   UNL     1     -11.495   5.062  73.029  1.00  0.00    -0.344 C  
ENDROOT
BRANCH   2   4
HETATM    4  N   UNL     1     -12.058   7.461  72.758  1.00  0.00    -0.541 NA 
HETATM    5  H   UNL     1     -11.609   8.345  72.997  1.00  0.00     0.000 HD 
BRANCH   4   6
HETATM    6  C   UNL     1     -13.018   7.643  71.661  1.00  0.00    -0.350 C  
BRANCH   6   7
HETATM    7  C   UNL     1     -13.971   8.799  71.998  1.00  0.00    -0.451 C  
HETATM    8  O   UNL     1     -14.214   8.832  73.414  1.00  0.00    -1.173 OA 
HETATM    9  H   UNL     1     -14.803   9.547  73.622  1.00  0.00     0.000 HD 
BRANCH   7  10
HETATM   10  C   UNL     1     -13.409  10.150  71.540  1.00  0.00    -0.341 C  
BRANCH  10  11
HETATM   11  O   UNL     1     -12.015  10.026  71.208  1.00  0.00    -0.347 OA 
BRANCH  11  12
HETATM   12  C   UNL     1     -11.678  10.495  69.954  1.00  0.00    -0.294 A  
HETATM   13  C   UNL     1     -11.271   9.637  68.923  1.00  0.00    -0.020 A  
HETATM   14  C   UNL     1     -10.938  10.136  67.670  1.00  0.00    -0.331 A  
HETATM   15  C   UNL     1     -11.032  11.500  67.421  1.00  0.00    -0.317 A  
HETATM   16  C   UNL     1     -11.474  12.381  68.418  1.00  0.00    -0.356 A  
HETATM   17  C   UNL     1     -11.805  11.888  69.707  1.00  0.00    -0.411 A  
HETATM   18  C   UNL     1     -12.239  12.827  70.672  1.00  0.00    -0.374 A  
HETATM   19  C   UNL     1     -12.352  14.190  70.372  1.00  0.00    -0.428 A  
HETATM   20  C   UNL     1     -12.030  14.651  69.099  1.00  0.00    -0.329 A  
HETATM   21  C   UNL     1     -11.590  13.751  68.132  1.00  0.00    -0.370 A  
ENDBRANCH  11  12
ENDBRANCH  10  11
ENDBRANCH   7  10
ENDBRANCH   6   7
ENDBRANCH   4   6
ENDBRANCH   2   4
TORSDOF 6
ENDMDL
MODEL       70
REMARK 921   NORMALIZED FREE ENERGY PREDICTED BY IDOCK:   -4.97 KCAL/MOL
REMARK 922        TOTAL FREE ENERGY PREDICTED BY IDOCK:   -7.39 KCAL/MOL
REMARK 923 INTER-LIGAND FREE ENERGY PREDICTED BY IDOCK:   -6.59 KCAL/MOL
REMARK 924 INTRA-LIGAND FREE ENERGY PREDICTED BY IDOCK:   -0.80 KCAL/MOL
REMARK 927      BINDING AFFINITY PREDICTED BY RF-SCORE:    0.00 PKD
ROOT
HETATM    1  C   UNL     1      -9.413  16.417  67.192  1.00  0.00    -0.238 C  
HETATM    2  C   UNL     1      -9.087  14.976  66.798  1.00  0.00    -0.262 C  
HETATM    3  C   UNL     1      -8.162  14.352  67.846  1.00  0.00    -0.157 C  
ENDROOT
BRANCH   2   4
HETATM    4  N   UNL     1     -10.347  14.239  66.680  1.00  0.00    -0.275 NA 
HETATM    5  H   UNL     1     -11.139  14.881  66.643  1.00  0.00     0.000 HD 
BRANCH   4   6
HETATM    6  C   UNL     1     -10.374  13.310  65.543  1.00  0.00    -0.291 C  
BRANCH   6   7
HETATM    7  C   UNL     1     -10.754  11.906  66.036  1.00  0.00    -0.285 C  
HETATM    8  O   UNL     1      -9.566  11.169  66.369  1.00  0.00    -0.190 OA 
HETATM    9  H   UNL     1      -9.801  10.301  66.673  1.00  0.00     0.000 HD 
BRANCH   7  10
HETATM   10  C   UNL     1     -11.682  11.964  67.254  1.00  0.00    -0.247 C  
BRANCH  10  11
HETATM   11  O   UNL     1     -10.915  12.081  68.464  1.00  0.00    -0.214 OA 
BRANCH  11  12
HETATM   12  C   UNL     1     -11.583  11.696  69.609  1.00  0.00    -0.330 A  
HETATM   13  C   UNL     1     -11.549  10.378  70.084  1.00  0.00    -0.392 A  
HETATM   14  C   UNL     1     -12.230  10.019  71.240  1.00  0.00    -0.498 A  
HETATM   15  C   UNL     1     -12.935  10.979  71.955  1.00  0.00    -0.398 A  
HETATM   16  C   UNL     1     -12.956  12.315  71.531  1.00  0.00    -0.390 A  
HETATM   17  C   UNL     1     -12.276  12.695  70.344  1.00  0.00    -0.368 A  
HETATM   18  C   UNL     1     -12.339  14.057  69.966  1.00  0.00    -0.397 A  
HETATM   19  C   UNL     1     -13.033  15.001  70.732  1.00  0.00    -0.442 A  
HETATM   20  C   UNL     1     -13.685  14.608  71.897  1.00  0.00    -0.510 A  
HETATM   21  C   UNL     1     -13.649  13.273  72.289  1.00  0.00    -0.703 A  
ENDBRANCH  11  12
ENDBRANCH  10  11
ENDBRANCH   7  10
ENDBRANCH   6   7
ENDBRANCH   4   6
ENDBRANCH   2   4
TORSDOF 6
ENDMDL
MODEL       71
REMARK 921   NORMALIZED FREE ENERGY PREDICTED BY IDOCK:   -4.96 KCAL/MOL
REMARK 922        TOTAL FREE ENERGY PREDICTED BY IDOCK:   -7.38 KCAL/MOL
REMARK 923 INTER-LIGAND FREE ENERGY PREDICTED BY IDOCK:   -6.70 KCAL/MOL
REMARK 924 INTRA-LIGAND FREE ENERGY PREDICTED BY IDOCK:   -0.68 KCAL/MOL
REMARK 927      BINDING AFFINITY PREDICTED BY RF-SCORE:    0.00 PKD
ROOT
HETATM    1  C   UNL     1     -10.040  11.312  63.369  1.00  0.00    -0.445 C  
HETATM    2  C   UNL     1      -9.985  10.924  64.847  1.00  0.00    -0.303 C  
HETATM    3  C   UNL     1      -9.330   9.549  64.996  1.00  0.00    -0.294 C  
ENDROOT
BRANCH   2   4
HETATM    4  N   UNL     1      -9.239  11.961  65.563  1.00  0.00    -0.425 NA 
HETATM    5  H   UNL     1      -9.861  12.709  65.867  1.00  0.00     0.000 HD 
BRANCH   4   6
HETATM    6  C   UNL     1      -8.456  11.441  66.692  1.00  0.00    -0.171 C  
BRANCH   6   7
HETATM    7  C   UNL     1      -8.962  12.069  67.999  1.00  0.00    -0.187 C  
HETATM    8  O   UNL     1      -7.857  12.297  68.889  1.00  0.00    -0.305 OA 
HETATM    9  H   UNL     1      -8.169  12.685  69.697  1.00  0.00     0.000 HD 
BRANCH   7  10
HETATM   10  C   UNL     1      -9.701  13.387  67.747  1.00  0.00    -0.216 C  
BRANCH  10  11
HETATM   11  O   UNL     1     -11.123  13.186  67.818  1.00  0.00    -0.246 OA 
BRANCH  11  12
HETATM   12  C   UNL     1     -11.707  13.607  68.995  1.00  0.00    -0.333 A  
HETATM   13  C   UNL     1     -11.922  14.963  69.277  1.00  0.00    -0.326 A  
HETATM   14  C   UNL     1     -12.513  15.358  70.471  1.00  0.00    -0.468 A  
HETATM   15  C   UNL     1     -12.923  14.401  71.391  1.00  0.00    -0.405 A  
HETATM   16  C   UNL     1     -12.760  13.035  71.123  1.00  0.00    -0.372 A  
HETATM   17  C   UNL     1     -12.146  12.615  69.914  1.00  0.00    -0.322 A  
HETATM   18  C   UNL     1     -12.005  11.223  69.703  1.00  0.00    -0.423 A  
HETATM   19  C   UNL     1     -12.461  10.289  70.641  1.00  0.00    -0.407 A  
HETATM   20  C   UNL     1     -13.068  10.722  71.815  1.00  0.00    -0.573 A  
HETATM   21  C   UNL     1     -13.212  12.086  72.054  1.00  0.00    -0.481 A  
ENDBRANCH  11  12
ENDBRANCH  10  11
ENDBRANCH   7  10
ENDBRANCH   6   7
ENDBRANCH   4   6
ENDBRANCH   2   4
TORSDOF 6
ENDMDL
MODEL       72
REMARK 921   NORMALIZED FREE ENERGY PREDICTED BY IDOCK:   -4.96 KCAL/MOL
REMARK 922        TOTAL FREE ENERGY PREDICTED BY IDOCK:   -7.37 KCAL/MOL
REMARK 923 INTER-LIGAND FREE ENERGY PREDICTED BY IDOCK:   -6.95 KCAL/MOL
REMARK 924 INTRA-LIGAND FREE ENERGY PREDICTED BY IDOCK:   -0.42 KCAL/MOL
REMARK 927      BINDING AFFINITY PREDICTED BY RF-SCORE:    0.00 PKD
ROOT
HETATM    1  C   UNL     1      -7.107  10.005  63.497  1.00  0.00    -0.130 C  
HETATM    2  C   UNL     1      -8.615   9.812  63.662  1.00  0.00    -0.201 C  
HETATM    3  C   UNL     1      -8.904   9.126  64.999  1.00  0.00    -0.230 C  
ENDROOT
BRANCH   2   4
HETATM    4  N   UNL     1      -9.255  11.126  63.578  1.00  0.00    -0.373 NA 
HETATM    5  H   UNL     1      -9.268  11.461  62.615  1.00  0.00     0.000 HD 
BRANCH   4   6
HETATM    6  C   UNL     1     -10.604  11.156  64.159  1.00  0.00    -0.368 C  
BRANCH   6   7
HETATM    7  C   UNL     1     -11.435  12.249  63.471  1.00  0.00    -0.476 C  
HETATM    8  O   UNL     1     -12.600  11.665  62.866  1.00  0.00    -0.914 OA 
HETATM    9  H   UNL     1     -13.114  12.341  62.440  1.00  0.00     0.000 HD 
BRANCH   7  10
HETATM   10  C   UNL     1     -11.859  13.344  64.455  1.00  0.00    -0.398 C  
BRANCH  10  11
HETATM   11  O   UNL     1     -11.070  13.273  65.655  1.00  0.00    -0.282 OA 
BRANCH  11  12
HETATM   12  C   UNL     1     -10.892  14.480  66.300  1.00  0.00    -0.317 A  
HETATM   13  C   UNL     1     -10.384  15.609  65.643  1.00  0.00    -0.408 A  
HETATM   14  C   UNL     1     -10.216  16.812  66.317  1.00  0.00    -0.341 A  
HETATM   15  C   UNL     1     -10.578  16.911  67.655  1.00  0.00    -0.325 A  
HETATM   16  C   UNL     1     -11.126  15.814  68.332  1.00  0.00    -0.341 A  
HETATM   17  C   UNL     1     -11.292  14.574  67.661  1.00  0.00    -0.354 A  
HETATM   18  C   UNL     1     -11.845  13.502  68.399  1.00  0.00    -0.408 A  
HETATM   19  C   UNL     1     -12.228  13.652  69.737  1.00  0.00    -0.350 A  
HETATM   20  C   UNL     1     -12.065  14.879  70.374  1.00  0.00    -0.386 A  
HETATM   21  C   UNL     1     -11.514  15.949  69.675  1.00  0.00    -0.346 A  
ENDBRANCH  11  12
ENDBRANCH  10  11
ENDBRANCH   7  10
ENDBRANCH   6   7
ENDBRANCH   4   6
ENDBRANCH   2   4
TORSDOF 6
ENDMDL
MODEL       73
REMARK 921   NORMALIZED FREE ENERGY PREDICTED BY IDOCK:   -4.95 KCAL/MOL
REMARK 922        TOTAL FREE ENERGY PREDICTED BY IDOCK:   -7.37 KCAL/MOL
REMARK 923 INTER-LIGAND FREE ENERGY PREDICTED BY IDOCK:   -6.44 KCAL/MOL
REMARK 924 INTRA-LIGAND FREE ENERGY PREDICTED BY IDOCK:   -0.93 KCAL/MOL
REMARK 927      BINDING AFFINITY PREDICTED BY RF-SCORE:    0.00 PKD
ROOT
HETATM    1  C   UNL     1     -10.029  10.201  69.249  1.00  0.00    -0.234 C  
HETATM    2  C   UNL     1     -11.303  10.786  69.859  1.00  0.00    -0.311 C  
HETATM    3  C   UNL     1     -12.016  11.661  68.825  1.00  0.00    -0.326 C  
ENDROOT
BRANCH   2   4
HETATM    4  N   UNL     1     -12.147   9.675  70.303  1.00  0.00    -0.470 NA 
HETATM    5  H   UNL     1     -11.579   8.867  70.554  1.00  0.00     0.000 HD 
BRANCH   4   6
HETATM    6  C   UNL     1     -13.056  10.035  71.400  1.00  0.00    -0.417 C  
BRANCH   6   7
HETATM    7  C   UNL     1     -13.171   8.858  72.379  1.00  0.00    -0.430 C  
HETATM    8  O   UNL     1     -14.282   9.068  73.264  1.00  0.00    -1.192 OA 
HETATM    9  H   UNL     1     -14.353   8.340  73.870  1.00  0.00     0.000 HD 
BRANCH   7  10
HETATM   10  C   UNL     1     -13.341   7.524  71.645  1.00  0.00    -0.358 C  
BRANCH  10  11
HETATM   11  O   UNL     1     -12.328   6.591  72.058  1.00  0.00    -0.336 OA 
BRANCH  11  12
HETATM   12  C   UNL     1     -11.194   6.585  71.271  1.00  0.00    -0.288 A  
HETATM   13  C   UNL     1     -11.212   6.138  69.943  1.00  0.00    -0.484 A  
HETATM   14  C   UNL     1     -10.056   6.145  69.172  1.00  0.00    -0.212 A  
HETATM   15  C   UNL     1      -8.868   6.623  69.712  1.00  0.00    -0.144 A  
HETATM   16  C   UNL     1      -8.824   7.115  71.023  1.00  0.00    -0.145 A  
HETATM   17  C   UNL     1      -9.994   7.103  71.827  1.00  0.00    -0.186 A  
HETATM   18  C   UNL     1      -9.885   7.608  73.144  1.00  0.00    -0.337 A  
HETATM   19  C   UNL     1      -8.676   8.113  73.639  1.00  0.00    -0.309 A  
HETATM   20  C   UNL     1      -7.543   8.123  72.831  1.00  0.00    -0.181 A  
HETATM   21  C   UNL     1      -7.619   7.623  71.534  1.00  0.00    -0.081 A  
ENDBRANCH  11  12
ENDBRANCH  10  11
ENDBRANCH   7  10
ENDBRANCH   6   7
ENDBRANCH   4   6
ENDBRANCH   2   4
TORSDOF 6
ENDMDL
MODEL       74
REMARK 921   NORMALIZED FREE ENERGY PREDICTED BY IDOCK:   -4.90 KCAL/MOL
REMARK 922        TOTAL FREE ENERGY PREDICTED BY IDOCK:   -7.30 KCAL/MOL
REMARK 923 INTER-LIGAND FREE ENERGY PREDICTED BY IDOCK:   -6.75 KCAL/MOL
REMARK 924 INTRA-LIGAND FREE ENERGY PREDICTED BY IDOCK:   -0.56 KCAL/MOL
REMARK 927      BINDING AFFINITY PREDICTED BY RF-SCORE:    0.00 PKD
ROOT
HETATM    1  C   UNL     1     -11.882  11.247  70.641  1.00  0.00    -0.368 C  
HETATM    2  C   UNL     1     -13.199  11.238  71.417  1.00  0.00    -0.169 C  
HETATM    3  C   UNL     1     -13.403   9.871  72.073  1.00  0.00    -0.532 C  
ENDROOT
BRANCH   2   4
HETATM    4  N   UNL     1     -13.152  12.314  72.409  1.00  0.00    -0.360 NA 
HETATM    5  H   UNL     1     -12.193  12.630  72.553  1.00  0.00     0.000 HD 
BRANCH   4   6
HETATM    6  C   UNL     1     -14.031  13.445  72.085  1.00  0.00    -0.437 C  
BRANCH   6   7
HETATM    7  C   UNL     1     -13.285  14.764  72.334  1.00  0.00    -0.389 C  
HETATM    8  O   UNL     1     -13.116  14.968  73.746  1.00  0.00    -0.573 OA 
HETATM    9  H   UNL     1     -12.654  15.784  73.900  1.00  0.00     0.000 HD 
BRANCH   7  10
HETATM   10  C   UNL     1     -11.917  14.781  71.643  1.00  0.00    -0.345 C  
BRANCH  10  11
HETATM   11  O   UNL     1     -11.849  15.859  70.693  1.00  0.00    -0.353 OA 
BRANCH  11  12
HETATM   12  C   UNL     1     -11.624  15.464  69.390  1.00  0.00    -0.340 A  
HETATM   13  C   UNL     1     -12.166  14.284  68.864  1.00  0.00    -0.240 A  
HETATM   14  C   UNL     1     -11.923  13.912  67.548  1.00  0.00    -0.421 A  
HETATM   15  C   UNL     1     -11.155  14.730  66.728  1.00  0.00    -0.338 A  
HETATM   16  C   UNL     1     -10.632  15.937  67.210  1.00  0.00    -0.314 A  
HETATM   17  C   UNL     1     -10.860  16.325  68.556  1.00  0.00    -0.330 A  
HETATM   18  C   UNL     1     -10.301  17.552  68.984  1.00  0.00    -0.303 A  
HETATM   19  C   UNL     1      -9.560  18.364  68.117  1.00  0.00    -0.335 A  
HETATM   20  C   UNL     1      -9.356  17.969  66.799  1.00  0.00    -0.287 A  
HETATM   21  C   UNL     1      -9.886  16.762  66.352  1.00  0.00    -0.312 A  
ENDBRANCH  11  12
ENDBRANCH  10  11
ENDBRANCH   7  10
ENDBRANCH   6   7
ENDBRANCH   4   6
ENDBRANCH   2   4
TORSDOF 6
ENDMDL
MODEL       75
REMARK 921   NORMALIZED FREE ENERGY PREDICTED BY IDOCK:   -4.89 KCAL/MOL
REMARK 922        TOTAL FREE ENERGY PREDICTED BY IDOCK:   -7.29 KCAL/MOL
REMARK 923 INTER-LIGAND FREE ENERGY PREDICTED BY IDOCK:   -6.68 KCAL/MOL
REMARK 924 INTRA-LIGAND FREE ENERGY PREDICTED BY IDOCK:   -0.61 KCAL/MOL
REMARK 927      BINDING AFFINITY PREDICTED BY RF-SCORE:    0.00 PKD
ROOT
HETATM    1  C   UNL     1      -8.791   8.439  65.460  1.00  0.00    -0.172 C  
HETATM    2  C   UNL     1      -9.734   8.653  66.644  1.00  0.00    -0.247 C  
HETATM    3  C   UNL     1      -8.953   8.531  67.955  1.00  0.00    -0.139 C  
ENDROOT
BRANCH   2   4
HETATM    4  N   UNL     1     -10.352   9.973  66.502  1.00  0.00    -0.221 NA 
HETATM    5  H   UNL     1     -10.653  10.331  67.408  1.00  0.00     0.000 HD 
BRANCH   4   6
HETATM    6  C   UNL     1      -9.494  10.947  65.814  1.00  0.00    -0.211 C  
BRANCH   6   7
HETATM    7  C   UNL     1      -9.711  12.341  66.421  1.00  0.00    -0.234 C  
HETATM    8  O   UNL     1      -9.717  13.330  65.379  1.00  0.00    -0.490 OA 
HETATM    9  H   UNL     1      -9.851  14.192  65.754  1.00  0.00     0.000 HD 
BRANCH   7  10
HETATM   10  C   UNL     1     -11.021  12.418  67.211  1.00  0.00    -0.260 C  
BRANCH  10  11
HETATM   11  O   UNL     1     -10.783  12.946  68.527  1.00  0.00    -0.242 OA 
BRANCH  11  12
HETATM   12  C   UNL     1     -11.470  12.306  69.539  1.00  0.00    -0.249 A  
HETATM   13  C   UNL     1     -11.334  10.932  69.778  1.00  0.00    -0.374 A  
HETATM   14  C   UNL     1     -12.038  10.314  70.805  1.00  0.00    -0.451 A  
HETATM   15  C   UNL     1     -12.870  11.067  71.624  1.00  0.00    -0.540 A  
HETATM   16  C   UNL     1     -12.998  12.450  71.438  1.00  0.00    -0.348 A  
HETATM   17  C   UNL     1     -12.295  13.094  70.385  1.00  0.00    -0.351 A  
HETATM   18  C   UNL     1     -12.470  14.491  70.245  1.00  0.00    -0.405 A  
HETATM   19  C   UNL     1     -13.292  15.220  71.113  1.00  0.00    -0.568 A  
HETATM   20  C   UNL     1     -13.964  14.570  72.143  1.00  0.00    -0.597 A  
HETATM   21  C   UNL     1     -13.820  13.194  72.300  1.00  0.00    -0.586 A  
ENDBRANCH  11  12
ENDBRANCH  10  11
ENDBRANCH   7  10
ENDBRANCH   6   7
ENDBRANCH   4   6
ENDBRANCH   2   4
TORSDOF 6
ENDMDL
MODEL       76
REMARK 921   NORMALIZED FREE ENERGY PREDICTED BY IDOCK:   -4.88 KCAL/MOL
REMARK 922        TOTAL FREE ENERGY PREDICTED BY IDOCK:   -7.28 KCAL/MOL
REMARK 923 INTER-LIGAND FREE ENERGY PREDICTED BY IDOCK:   -6.32 KCAL/MOL
REMARK 924 INTRA-LIGAND FREE ENERGY PREDICTED BY IDOCK:   -0.95 KCAL/MOL
REMARK 927      BINDING AFFINITY PREDICTED BY RF-SCORE:    0.00 PKD
ROOT
HETATM    1  C   UNL     1      -8.222  12.434  67.206  1.00  0.00    -0.184 C  
HETATM    2  C   UNL     1      -9.450  13.340  67.111  1.00  0.00    -0.240 C  
HETATM    3  C   UNL     1      -9.234  14.594  67.960  1.00  0.00    -0.197 C  
ENDROOT
BRANCH   2   4
HETATM    4  N   UNL     1      -9.664  13.671  65.700  1.00  0.00    -0.494 NA 
HETATM    5  H   UNL     1      -9.197  12.995  65.096  1.00  0.00     0.000 HD 
BRANCH   4   6
HETATM    6  C   UNL     1     -11.083  13.799  65.340  1.00  0.00    -0.302 C  
BRANCH   6   7
HETATM    7  C   UNL     1     -11.267  15.000  64.401  1.00  0.00    -0.161 C  
HETATM    8  O   UNL     1     -12.531  14.901  63.727  1.00  0.00    -1.048 OA 
HETATM    9  H   UNL     1     -12.645  15.644  63.146  1.00  0.00     0.000 HD 
BRANCH   7  10
HETATM   10  C   UNL     1     -11.190  16.330  65.159  1.00  0.00    -0.113 C  
BRANCH  10  11
HETATM   11  O   UNL     1      -9.819  16.702  65.379  1.00  0.00    -0.538 OA 
BRANCH  11  12
HETATM   12  C   UNL     1      -9.646  17.853  66.121  1.00  0.00    -0.178 A  
HETATM   13  C   UNL     1     -10.716  18.700  66.443  1.00  0.00    -0.279 A  
HETATM   14  C   UNL     1     -10.513  19.852  67.193  1.00  0.00    -0.566 A  
HETATM   15  C   UNL     1      -9.240  20.162  67.654  1.00  0.00    -0.461 A  
HETATM   16  C   UNL     1      -8.156  19.317  67.385  1.00  0.00    -0.306 A  
HETATM   17  C   UNL     1      -8.344  18.142  66.610  1.00  0.00    -0.283 A  
HETATM   18  C   UNL     1      -7.209  17.333  66.367  1.00  0.00    -0.327 A  
HETATM   19  C   UNL     1      -5.948  17.663  66.879  1.00  0.00    -0.189 A  
HETATM   20  C   UNL     1      -5.788  18.814  67.644  1.00  0.00    -0.180 A  
HETATM   21  C   UNL     1      -6.885  19.636  67.890  1.00  0.00    -0.279 A  
ENDBRANCH  11  12
ENDBRANCH  10  11
ENDBRANCH   7  10
ENDBRANCH   6   7
ENDBRANCH   4   6
ENDBRANCH   2   4
TORSDOF 6
ENDMDL
MODEL       77
REMARK 921   NORMALIZED FREE ENERGY PREDICTED BY IDOCK:   -4.88 KCAL/MOL
REMARK 922        TOTAL FREE ENERGY PREDICTED BY IDOCK:   -7.28 KCAL/MOL
REMARK 923 INTER-LIGAND FREE ENERGY PREDICTED BY IDOCK:   -6.87 KCAL/MOL
REMARK 924 INTRA-LIGAND FREE ENERGY PREDICTED BY IDOCK:   -0.41 KCAL/MOL
REMARK 927      BINDING AFFINITY PREDICTED BY RF-SCORE:    0.00 PKD
ROOT
HETATM    1  C   UNL     1     -14.123  15.273  71.912  1.00  0.00    -0.656 C  
HETATM    2  C   UNL     1     -12.645  15.597  72.135  1.00  0.00    -0.426 C  
HETATM    3  C   UNL     1     -12.373  15.759  73.633  1.00  0.00    -0.689 C  
ENDROOT
BRANCH   2   4
HETATM    4  N   UNL     1     -11.848  14.515  71.553  1.00  0.00    -0.436 NA 
HETATM    5  H   UNL     1     -11.317  14.028  72.275  1.00  0.00     0.000 HD 
BRANCH   4   6
HETATM    6  C   UNL     1     -12.644  13.565  70.763  1.00  0.00    -0.309 C  
BRANCH   6   7
HETATM    7  C   UNL     1     -11.928  13.276  69.436  1.00  0.00    -0.301 C  
HETATM    8  O   UNL     1     -10.553  13.683  69.526  1.00  0.00    -0.436 OA 
HETATM    9  H   UNL     1     -10.110  13.504  68.705  1.00  0.00     0.000 HD 
BRANCH   7  10
HETATM   10  C   UNL     1     -12.003  11.792  69.062  1.00  0.00    -0.280 C  
BRANCH  10  11
HETATM   11  O   UNL     1     -10.869  11.084  69.591  1.00  0.00    -0.240 OA 
BRANCH  11  12
HETATM   12  C   UNL     1     -10.822   9.743  69.263  1.00  0.00    -0.216 A  
HETATM   13  C   UNL     1     -10.505   9.303  67.971  1.00  0.00    -0.275 A  
HETATM   14  C   UNL     1     -10.464   7.947  67.670  1.00  0.00    -0.303 A  
HETATM   15  C   UNL     1     -10.715   7.009  68.664  1.00  0.00    -0.225 A  
HETATM   16  C   UNL     1     -10.996   7.415  69.976  1.00  0.00    -0.264 A  
HETATM   17  C   UNL     1     -11.054   8.796  70.297  1.00  0.00    -0.240 A  
HETATM   18  C   UNL     1     -11.347   9.142  71.637  1.00  0.00    -0.446 A  
HETATM   19  C   UNL     1     -11.561   8.166  72.618  1.00  0.00    -0.441 A  
HETATM   20  C   UNL     1     -11.491   6.817  72.284  1.00  0.00    -0.314 A  
HETATM   21  C   UNL     1     -11.214   6.447  70.970  1.00  0.00    -0.370 A  
ENDBRANCH  11  12
ENDBRANCH  10  11
ENDBRANCH   7  10
ENDBRANCH   6   7
ENDBRANCH   4   6
ENDBRANCH   2   4
TORSDOF 6
ENDMDL
MODEL       78
REMARK 921   NORMALIZED FREE ENERGY PREDICTED BY IDOCK:   -4.88 KCAL/MOL
REMARK 922        TOTAL FREE ENERGY PREDICTED BY IDOCK:   -7.27 KCAL/MOL
REMARK 923 INTER-LIGAND FREE ENERGY PREDICTED BY IDOCK:   -6.29 KCAL/MOL
REMARK 924 INTRA-LIGAND FREE ENERGY PREDICTED BY IDOCK:   -0.97 KCAL/MOL
REMARK 927      BINDING AFFINITY PREDICTED BY RF-SCORE:    0.00 PKD
ROOT
HETATM    1  C   UNL     1     -11.735  11.601  70.137  1.00  0.00    -0.381 C  
HETATM    2  C   UNL     1     -13.004  11.594  70.990  1.00  0.00    -0.135 C  
HETATM    3  C   UNL     1     -13.121  10.260  71.731  1.00  0.00    -0.570 C  
ENDROOT
BRANCH   2   4
HETATM    4  N   UNL     1     -12.937  12.725  71.917  1.00  0.00    -0.328 NA 
HETATM    5  H   UNL     1     -12.000  13.128  71.929  1.00  0.00     0.000 HD 
BRANCH   4   6
HETATM    6  C   UNL     1     -13.946  13.759  71.651  1.00  0.00    -0.178 C  
BRANCH   6   7
HETATM    7  C   UNL     1     -13.442  15.114  72.168  1.00  0.00    -0.424 C  
HETATM    8  O   UNL     1     -12.865  14.953  73.473  1.00  0.00    -0.514 OA 
HETATM    9  H   UNL     1     -12.553  15.791  73.793  1.00  0.00     0.000 HD 
BRANCH   7  10
HETATM   10  C   UNL     1     -12.410  15.735  71.221  1.00  0.00    -0.438 C  
BRANCH  10  11
HETATM   11  O   UNL     1     -12.353  14.997  69.989  1.00  0.00    -0.323 OA 
BRANCH  11  12
HETATM   12  C   UNL     1     -11.219  15.222  69.234  1.00  0.00    -0.284 A  
HETATM   13  C   UNL     1     -10.086  15.855  69.763  1.00  0.00    -0.247 A  
HETATM   14  C   UNL     1      -8.957  16.068  68.980  1.00  0.00    -0.244 A  
HETATM   15  C   UNL     1      -8.935  15.626  67.663  1.00  0.00    -0.183 A  
HETATM   16  C   UNL     1     -10.036  14.954  67.115  1.00  0.00    -0.231 A  
HETATM   17  C   UNL     1     -11.201  14.740  67.897  1.00  0.00    -0.318 A  
HETATM   18  C   UNL     1     -12.281  14.060  67.287  1.00  0.00    -0.325 A  
HETATM   19  C   UNL     1     -12.207  13.602  65.966  1.00  0.00    -0.492 A  
HETATM   20  C   UNL     1     -11.052  13.814  65.219  1.00  0.00    -0.315 A  
HETATM   21  C   UNL     1      -9.977  14.489  65.791  1.00  0.00    -0.361 A  
ENDBRANCH  11  12
ENDBRANCH  10  11
ENDBRANCH   7  10
ENDBRANCH   6   7
ENDBRANCH   4   6
ENDBRANCH   2   4
TORSDOF 6
ENDMDL
MODEL       79
REMARK 921   NORMALIZED FREE ENERGY PREDICTED BY IDOCK:   -4.88 KCAL/MOL
REMARK 922        TOTAL FREE ENERGY PREDICTED BY IDOCK:   -7.27 KCAL/MOL
REMARK 923 INTER-LIGAND FREE ENERGY PREDICTED BY IDOCK:   -7.10 KCAL/MOL
REMARK 924 INTRA-LIGAND FREE ENERGY PREDICTED BY IDOCK:   -0.16 KCAL/MOL
REMARK 927      BINDING AFFINITY PREDICTED BY RF-SCORE:    0.00 PKD
ROOT
HETATM    1  C   UNL     1     -11.889   7.971  72.390  1.00  0.00    -0.429 C  
HETATM    2  C   UNL     1     -12.949   8.796  71.661  1.00  0.00    -0.349 C  
HETATM    3  C   UNL     1     -14.230   7.972  71.510  1.00  0.00    -0.513 C  
ENDROOT
BRANCH   2   4
HETATM    4  N   UNL     1     -13.181  10.022  72.428  1.00  0.00    -0.554 NA 
HETATM    5  H   UNL     1     -12.467  10.138  73.147  1.00  0.00     0.000 HD 
BRANCH   4   6
HETATM    6  C   UNL     1     -13.278  11.224  71.589  1.00  0.00    -0.327 C  
BRANCH   6   7
HETATM    7  C   UNL     1     -12.198  11.178  70.499  1.00  0.00    -0.384 C  
HETATM    8  O   UNL     1     -12.740  10.600  69.301  1.00  0.00    -0.689 OA 
HETATM    9  H   UNL     1     -12.073  10.571  68.626  1.00  0.00     0.000 HD 
BRANCH   7  10
HETATM   10  C   UNL     1     -11.641  12.572  70.192  1.00  0.00    -0.069 C  
BRANCH  10  11
HETATM   11  O   UNL     1     -12.476  13.246  69.235  1.00  0.00    -0.102 OA 
BRANCH  11  12
HETATM   12  C   UNL     1     -11.819  14.171  68.447  1.00  0.00    -0.353 A  
HETATM   13  C   UNL     1     -11.405  15.414  68.945  1.00  0.00    -0.322 A  
HETATM   14  C   UNL     1     -10.745  16.325  68.130  1.00  0.00    -0.322 A  
HETATM   15  C   UNL     1     -10.466  15.996  66.809  1.00  0.00    -0.308 A  
HETATM   16  C   UNL     1     -10.830  14.746  66.291  1.00  0.00    -0.322 A  
HETATM   17  C   UNL     1     -11.517  13.809  67.107  1.00  0.00    -0.365 A  
HETATM   18  C   UNL     1     -11.862  12.567  66.525  1.00  0.00    -0.434 A  
HETATM   19  C   UNL     1     -11.533  12.260  65.199  1.00  0.00    -0.390 A  
HETATM   20  C   UNL     1     -10.852  13.190  64.419  1.00  0.00    -0.417 A  
HETATM   21  C   UNL     1     -10.508  14.425  64.962  1.00  0.00    -0.454 A  
ENDBRANCH  11  12
ENDBRANCH  10  11
ENDBRANCH   7  10
ENDBRANCH   6   7
ENDBRANCH   4   6
ENDBRANCH   2   4
TORSDOF 6
ENDMDL
MODEL       80
REMARK 921   NORMALIZED FREE ENERGY PREDICTED BY IDOCK:   -4.87 KCAL/MOL
REMARK 922        TOTAL FREE ENERGY PREDICTED BY IDOCK:   -7.26 KCAL/MOL
REMARK 923 INTER-LIGAND FREE ENERGY PREDICTED BY IDOCK:   -6.57 KCAL/MOL
REMARK 924 INTRA-LIGAND FREE ENERGY PREDICTED BY IDOCK:   -0.69 KCAL/MOL
REMARK 927      BINDING AFFINITY PREDICTED BY RF-SCORE:    0.00 PKD
ROOT
HETATM    1  C   UNL     1     -10.522  12.076  63.773  1.00  0.00    -0.469 C  
HETATM    2  C   UNL     1     -10.735  11.160  64.979  1.00  0.00    -0.231 C  
HETATM    3  C   UNL     1      -9.735  10.002  64.929  1.00  0.00    -0.377 C  
ENDROOT
BRANCH   2   4
HETATM    4  N   UNL     1     -10.576  11.961  66.194  1.00  0.00    -0.249 NA 
HETATM    5  H   UNL     1      -9.756  12.563  66.126  1.00  0.00     0.000 HD 
BRANCH   4   6
HETATM    6  C   UNL     1     -11.771  12.745  66.536  1.00  0.00    -0.400 C  
BRANCH   6   7
HETATM    7  C   UNL     1     -11.497  13.574  67.799  1.00  0.00    -0.315 C  
HETATM    8  O   UNL     1     -12.163  14.843  67.702  1.00  0.00    -0.524 OA 
HETATM    9  H   UNL     1     -11.994  15.356  68.483  1.00  0.00     0.000 HD 
BRANCH   7  10
HETATM   10  C   UNL     1     -11.957  12.846  69.067  1.00  0.00    -0.251 C  
BRANCH  10  11
HETATM   11  O   UNL     1     -12.161  11.449  68.796  1.00  0.00    -0.502 OA 
BRANCH  11  12
HETATM   12  C   UNL     1     -11.992  10.620  69.886  1.00  0.00    -0.310 A  
HETATM   13  C   UNL     1     -13.055  10.272  70.731  1.00  0.00    -0.360 A  
HETATM   14  C   UNL     1     -12.855   9.434  71.821  1.00  0.00    -0.484 A  
HETATM   15  C   UNL     1     -11.592   8.910  72.068  1.00  0.00    -0.435 A  
HETATM   16  C   UNL     1     -10.516   9.205  71.221  1.00  0.00    -0.398 A  
HETATM   17  C   UNL     1     -10.701  10.070  70.110  1.00  0.00    -0.361 A  
HETATM   18  C   UNL     1      -9.575  10.333  69.295  1.00  0.00    -0.239 A  
HETATM   19  C   UNL     1      -8.326   9.758  69.559  1.00  0.00    -0.165 A  
HETATM   20  C   UNL     1      -8.169   8.906  70.648  1.00  0.00    -0.183 A  
HETATM   21  C   UNL     1      -9.257   8.636  71.474  1.00  0.00    -0.316 A  
ENDBRANCH  11  12
ENDBRANCH  10  11
ENDBRANCH   7  10
ENDBRANCH   6   7
ENDBRANCH   4   6
ENDBRANCH   2   4
TORSDOF 6
ENDMDL
MODEL       81
REMARK 921   NORMALIZED FREE ENERGY PREDICTED BY IDOCK:   -4.83 KCAL/MOL
REMARK 922        TOTAL FREE ENERGY PREDICTED BY IDOCK:   -7.21 KCAL/MOL
REMARK 923 INTER-LIGAND FREE ENERGY PREDICTED BY IDOCK:   -6.75 KCAL/MOL
REMARK 924 INTRA-LIGAND FREE ENERGY PREDICTED BY IDOCK:   -0.46 KCAL/MOL
REMARK 927      BINDING AFFINITY PREDICTED BY RF-SCORE:    0.00 PKD
ROOT
HETATM    1  C   UNL     1     -10.095  11.168  63.508  1.00  0.00    -0.437 C  
HETATM    2  C   UNL     1     -10.888  12.475  63.536  1.00  0.00    -0.397 C  
HETATM    3  C   UNL     1     -12.326  12.196  63.978  1.00  0.00    -0.550 C  
ENDROOT
BRANCH   2   4
HETATM    4  N   UNL     1     -10.210  13.400  64.447  1.00  0.00    -0.635 NA 
HETATM    5  H   UNL     1      -9.562  14.000  63.937  1.00  0.00     0.000 HD 
BRANCH   4   6
HETATM    6  C   UNL     1     -11.136  14.202  65.258  1.00  0.00    -0.331 C  
BRANCH   6   7
HETATM    7  C   UNL     1     -10.676  14.192  66.723  1.00  0.00    -0.286 C  
HETATM    8  O   UNL     1     -10.844  15.499  67.295  1.00  0.00    -0.309 OA 
HETATM    9  H   UNL     1     -10.559  15.493  68.201  1.00  0.00     0.000 HD 
BRANCH   7  10
HETATM   10  C   UNL     1     -11.449  13.162  67.554  1.00  0.00    -0.328 C  
BRANCH  10  11
HETATM   11  O   UNL     1     -10.620  12.646  68.609  1.00  0.00    -0.235 OA 
BRANCH  11  12
HETATM   12  C   UNL     1     -11.312  12.074  69.658  1.00  0.00    -0.179 A  
HETATM   13  C   UNL     1     -12.227  12.801  70.432  1.00  0.00    -0.371 A  
HETATM   14  C   UNL     1     -12.911  12.198  71.481  1.00  0.00    -0.394 A  
HETATM   15  C   UNL     1     -12.708  10.851  71.755  1.00  0.00    -0.435 A  
HETATM   16  C   UNL     1     -11.831  10.086  70.976  1.00  0.00    -0.476 A  
HETATM   17  C   UNL     1     -11.116  10.689  69.909  1.00  0.00    -0.364 A  
HETATM   18  C   UNL     1     -10.241   9.865  69.162  1.00  0.00    -0.218 A  
HETATM   19  C   UNL     1     -10.090   8.503  69.450  1.00  0.00    -0.205 A  
HETATM   20  C   UNL     1     -10.808   7.930  70.495  1.00  0.00    -0.242 A  
HETATM   21  C   UNL     1     -11.669   8.718  71.253  1.00  0.00    -0.356 A  
ENDBRANCH  11  12
ENDBRANCH  10  11
ENDBRANCH   7  10
ENDBRANCH   6   7
ENDBRANCH   4   6
ENDBRANCH   2   4
TORSDOF 6
ENDMDL
MODEL       82
REMARK 921   NORMALIZED FREE ENERGY PREDICTED BY IDOCK:   -4.82 KCAL/MOL
REMARK 922        TOTAL FREE ENERGY PREDICTED BY IDOCK:   -7.18 KCAL/MOL
REMARK 923 INTER-LIGAND FREE ENERGY PREDICTED BY IDOCK:   -6.57 KCAL/MOL
REMARK 924 INTRA-LIGAND FREE ENERGY PREDICTED BY IDOCK:   -0.61 KCAL/MOL
REMARK 927      BINDING AFFINITY PREDICTED BY RF-SCORE:    0.00 PKD
ROOT
HETATM    1  C   UNL     1     -10.502  16.096  65.590  1.00  0.00    -0.402 C  
HETATM    2  C   UNL     1     -10.205  16.528  67.027  1.00  0.00    -0.288 C  
HETATM    3  C   UNL     1     -10.202  18.056  67.116  1.00  0.00    -0.366 C  
ENDROOT
BRANCH   2   4
HETATM    4  N   UNL     1     -11.220  15.936  67.900  1.00  0.00    -0.329 NA 
HETATM    5  H   UNL     1     -11.906  15.414  67.355  1.00  0.00     0.000 HD 
BRANCH   4   6
HETATM    6  C   UNL     1     -10.654  15.098  68.967  1.00  0.00    -0.245 C  
BRANCH   6   7
HETATM    7  C   UNL     1     -10.374  13.691  68.420  1.00  0.00    -0.248 C  
HETATM    8  O   UNL     1      -9.032  13.299  68.750  1.00  0.00    -0.382 OA 
HETATM    9  H   UNL     1      -8.859  12.428  68.412  1.00  0.00     0.000 HD 
BRANCH   7  10
HETATM   10  C   UNL     1     -11.364  12.660  68.973  1.00  0.00    -0.292 C  
BRANCH  10  11
HETATM   11  O   UNL     1     -12.027  11.975  67.898  1.00  0.00    -0.526 OA 
BRANCH  11  12
HETATM   12  C   UNL     1     -11.255  11.029  67.253  1.00  0.00    -0.258 A  
HETATM   13  C   UNL     1     -10.889   9.823  67.865  1.00  0.00    -0.298 A  
HETATM   14  C   UNL     1     -10.112   8.888  67.192  1.00  0.00    -0.316 A  
HETATM   15  C   UNL     1      -9.710   9.136  65.885  1.00  0.00    -0.336 A  
HETATM   16  C   UNL     1     -10.092  10.314  65.229  1.00  0.00    -0.359 A  
HETATM   17  C   UNL     1     -10.875  11.284  65.908  1.00  0.00    -0.264 A  
HETATM   18  C   UNL     1     -11.224  12.454  65.194  1.00  0.00    -0.356 A  
HETATM   19  C   UNL     1     -10.827  12.651  63.866  1.00  0.00    -0.468 A  
HETATM   20  C   UNL     1     -10.067  11.683  63.217  1.00  0.00    -0.454 A  
HETATM   21  C   UNL     1      -9.700  10.525  63.897  1.00  0.00    -0.384 A  
ENDBRANCH  11  12
ENDBRANCH  10  11
ENDBRANCH   7  10
ENDBRANCH   6   7
ENDBRANCH   4   6
ENDBRANCH   2   4
TORSDOF 6
ENDMDL
MODEL       83
REMARK 921   NORMALIZED FREE ENERGY PREDICTED BY IDOCK:   -4.80 KCAL/MOL
REMARK 922        TOTAL FREE ENERGY PREDICTED BY IDOCK:   -7.17 KCAL/MOL
REMARK 923 INTER-LIGAND FREE ENERGY PREDICTED BY IDOCK:   -6.67 KCAL/MOL
REMARK 924 INTRA-LIGAND FREE ENERGY PREDICTED BY IDOCK:   -0.50 KCAL/MOL
REMARK 927      BINDING AFFINITY PREDICTED BY RF-SCORE:    0.00 PKD
ROOT
HETATM    1  C   UNL     1      -9.421  10.387  62.835  1.00  0.00    -0.354 C  
HETATM    2  C   UNL     1      -9.760  11.606  63.693  1.00  0.00    -0.289 C  
HETATM    3  C   UNL     1     -11.273  11.839  63.683  1.00  0.00    -0.519 C  
ENDROOT
BRANCH   2   4
HETATM    4  N   UNL     1      -9.258  11.365  65.048  1.00  0.00    -0.380 NA 
HETATM    5  H   UNL     1      -9.923  11.700  65.745  1.00  0.00     0.000 HD 
BRANCH   4   6
HETATM    6  C   UNL     1      -8.904   9.961  65.296  1.00  0.00    -0.181 C  
BRANCH   6   7
HETATM    7  C   UNL     1     -10.062   9.260  66.023  1.00  0.00    -0.192 C  
HETATM    8  O   UNL     1      -9.759   7.866  66.190  1.00  0.00    -0.414 OA 
HETATM    9  H   UNL     1     -10.475   7.433  66.639  1.00  0.00     0.000 HD 
BRANCH   7  10
HETATM   10  C   UNL     1     -10.341   9.895  67.390  1.00  0.00    -0.246 C  
BRANCH  10  11
HETATM   11  O   UNL     1     -11.589  10.607  67.366  1.00  0.00    -0.445 OA 
BRANCH  11  12
HETATM   12  C   UNL     1     -11.545  11.866  67.932  1.00  0.00    -0.323 A  
HETATM   13  C   UNL     1     -11.110  12.990  67.217  1.00  0.00    -0.303 A  
HETATM   14  C   UNL     1     -11.077  14.245  67.812  1.00  0.00    -0.294 A  
HETATM   15  C   UNL     1     -11.504  14.400  69.124  1.00  0.00    -0.328 A  
HETATM   16  C   UNL     1     -11.984  13.304  69.855  1.00  0.00    -0.400 A  
HETATM   17  C   UNL     1     -12.011  12.013  69.266  1.00  0.00    -0.329 A  
HETATM   18  C   UNL     1     -12.501  10.947  70.056  1.00  0.00    -0.332 A  
HETATM   19  C   UNL     1     -12.953  11.150  71.366  1.00  0.00    -0.506 A  
HETATM   20  C   UNL     1     -12.926  12.426  71.921  1.00  0.00    -0.407 A  
HETATM   21  C   UNL     1     -12.440  13.493  71.170  1.00  0.00    -0.424 A  
ENDBRANCH  11  12
ENDBRANCH  10  11
ENDBRANCH   7  10
ENDBRANCH   6   7
ENDBRANCH   4   6
ENDBRANCH   2   4
TORSDOF 6
ENDMDL
MODEL       84
REMARK 921   NORMALIZED FREE ENERGY PREDICTED BY IDOCK:   -4.79 KCAL/MOL
REMARK 922        TOTAL FREE ENERGY PREDICTED BY IDOCK:   -7.15 KCAL/MOL
REMARK 923 INTER-LIGAND FREE ENERGY PREDICTED BY IDOCK:   -6.28 KCAL/MOL
REMARK 924 INTRA-LIGAND FREE ENERGY PREDICTED BY IDOCK:   -0.87 KCAL/MOL
REMARK 927      BINDING AFFINITY PREDICTED BY RF-SCORE:    0.00 PKD
ROOT
HETATM    1  C   UNL     1      -9.615  10.207  64.401  1.00  0.00    -0.366 C  
HETATM    2  C   UNL     1      -9.643  10.891  65.769  1.00  0.00    -0.216 C  
HETATM    3  C   UNL     1     -10.967  11.640  65.944  1.00  0.00    -0.334 C  
ENDROOT
BRANCH   2   4
HETATM    4  N   UNL     1      -9.462   9.863  66.796  1.00  0.00    -0.163 NA 
HETATM    5  H   UNL     1     -10.138   9.983  67.550  1.00  0.00     0.000 HD 
BRANCH   4   6
HETATM    6  C   UNL     1      -9.510   8.494  66.265  1.00  0.00    -0.231 C  
BRANCH   6   7
HETATM    7  C   UNL     1     -10.559   7.681  67.037  1.00  0.00    -0.336 C  
HETATM    8  O   UNL     1     -10.825   6.449  66.347  1.00  0.00    -0.520 OA 
HETATM    9  H   UNL     1     -11.474   5.946  66.824  1.00  0.00     0.000 HD 
BRANCH   7  10
HETATM   10  C   UNL     1     -10.104   7.381  68.470  1.00  0.00    -0.175 C  
BRANCH  10  11
HETATM   11  O   UNL     1     -10.045   8.594  69.240  1.00  0.00    -0.190 OA 
BRANCH  11  12
HETATM   12  C   UNL     1     -10.984   8.683  70.248  1.00  0.00    -0.236 A  
HETATM   13  C   UNL     1     -11.313   7.588  71.059  1.00  0.00    -0.292 A  
HETATM   14  C   UNL     1     -12.261   7.707  72.067  1.00  0.00    -0.328 A  
HETATM   15  C   UNL     1     -12.877   8.931  72.297  1.00  0.00    -0.475 A  
HETATM   16  C   UNL     1     -12.542  10.056  71.532  1.00  0.00    -0.525 A  
HETATM   17  C   UNL     1     -11.584   9.948  70.489  1.00  0.00    -0.386 A  
HETATM   18  C   UNL     1     -11.293  11.117  69.749  1.00  0.00    -0.354 A  
HETATM   19  C   UNL     1     -11.911  12.340  70.034  1.00  0.00    -0.379 A  
HETATM   20  C   UNL     1     -12.840  12.426  71.066  1.00  0.00    -0.245 A  
HETATM   21  C   UNL     1     -13.155  11.289  71.805  1.00  0.00    -0.527 A  
ENDBRANCH  11  12
ENDBRANCH  10  11
ENDBRANCH   7  10
ENDBRANCH   6   7
ENDBRANCH   4   6
ENDBRANCH   2   4
TORSDOF 6
ENDMDL
MODEL       85
REMARK 921   NORMALIZED FREE ENERGY PREDICTED BY IDOCK:   -4.79 KCAL/MOL
REMARK 922        TOTAL FREE ENERGY PREDICTED BY IDOCK:   -7.15 KCAL/MOL
REMARK 923 INTER-LIGAND FREE ENERGY PREDICTED BY IDOCK:   -6.64 KCAL/MOL
REMARK 924 INTRA-LIGAND FREE ENERGY PREDICTED BY IDOCK:   -0.51 KCAL/MOL
REMARK 927      BINDING AFFINITY PREDICTED BY RF-SCORE:    0.00 PKD
ROOT
HETATM    1  C   UNL     1     -11.335   7.588  72.351  1.00  0.00    -0.360 C  
HETATM    2  C   UNL     1     -12.609   7.682  71.510  1.00  0.00    -0.343 C  
HETATM    3  C   UNL     1     -12.928   9.150  71.219  1.00  0.00    -0.307 C  
ENDROOT
BRANCH   2   4
HETATM    4  N   UNL     1     -12.399   6.918  70.279  1.00  0.00    -0.598 NA 
HETATM    5  H   UNL     1     -12.772   7.420  69.473  1.00  0.00     0.000 HD 
BRANCH   4   6
HETATM    6  C   UNL     1     -10.996   6.543  70.057  1.00  0.00    -0.332 C  
BRANCH   6   7
HETATM    7  C   UNL     1     -10.543   7.044  68.678  1.00  0.00    -0.210 C  
HETATM    8  O   UNL     1     -11.451   6.577  67.668  1.00  0.00    -0.694 OA 
HETATM    9  H   UNL     1     -11.170   6.887  66.815  1.00  0.00     0.000 HD 
BRANCH   7  10
HETATM   10  C   UNL     1     -10.459   8.573  68.629  1.00  0.00    -0.169 C  
BRANCH  10  11
HETATM   11  O   UNL     1      -9.798   9.001  67.426  1.00  0.00    -0.168 OA 
BRANCH  11  12
HETATM   12  C   UNL     1     -10.350  10.117  66.831  1.00  0.00    -0.236 A  
HETATM   13  C   UNL     1     -11.155  11.019  67.540  1.00  0.00    -0.366 A  
HETATM   14  C   UNL     1     -11.697  12.135  66.915  1.00  0.00    -0.374 A  
HETATM   15  C   UNL     1     -11.421  12.380  65.576  1.00  0.00    -0.404 A  
HETATM   16  C   UNL     1     -10.588  11.521  64.848  1.00  0.00    -0.360 A  
HETATM   17  C   UNL     1     -10.037  10.369  65.468  1.00  0.00    -0.352 A  
HETATM   18  C   UNL     1      -9.208   9.537  64.679  1.00  0.00    -0.247 A  
HETATM   19  C   UNL     1      -8.928   9.837  63.340  1.00  0.00    -0.271 A  
HETATM   20  C   UNL     1      -9.471  10.976  62.754  1.00  0.00    -0.361 A  
HETATM   21  C   UNL     1     -10.298  11.808  63.504  1.00  0.00    -0.490 A  
ENDBRANCH  11  12
ENDBRANCH  10  11
ENDBRANCH   7  10
ENDBRANCH   6   7
ENDBRANCH   4   6
ENDBRANCH   2   4
TORSDOF 6
ENDMDL
MODEL       86
REMARK 921   NORMALIZED FREE ENERGY PREDICTED BY IDOCK:   -4.78 KCAL/MOL
REMARK 922        TOTAL FREE ENERGY PREDICTED BY IDOCK:   -7.13 KCAL/MOL
REMARK 923 INTER-LIGAND FREE ENERGY PREDICTED BY IDOCK:   -6.75 KCAL/MOL
REMARK 924 INTRA-LIGAND FREE ENERGY PREDICTED BY IDOCK:   -0.38 KCAL/MOL
REMARK 927      BINDING AFFINITY PREDICTED BY RF-SCORE:    0.00 PKD
ROOT
HETATM    1  C   UNL     1     -11.507  11.665  63.925  1.00  0.00    -0.433 C  
HETATM    2  C   UNL     1     -10.958  13.072  64.161  1.00  0.00    -0.408 C  
HETATM    3  C   UNL     1     -12.106  14.020  64.519  1.00  0.00    -0.484 C  
ENDROOT
BRANCH   2   4
HETATM    4  N   UNL     1      -9.961  12.999  65.231  1.00  0.00    -0.466 NA 
HETATM    5  H   UNL     1      -9.217  13.680  65.079  1.00  0.00     0.000 HD 
BRANCH   4   6
HETATM    6  C   UNL     1     -10.537  13.147  66.575  1.00  0.00    -0.284 C  
BRANCH   6   7
HETATM    7  C   UNL     1      -9.875  12.143  67.530  1.00  0.00    -0.191 C  
HETATM    8  O   UNL     1      -9.081  12.844  68.500  1.00  0.00    -0.331 OA 
HETATM    9  H   UNL     1      -8.672  12.223  69.090  1.00  0.00     0.000 HD 
BRANCH   7  10
HETATM   10  C   UNL     1     -10.913  11.272  68.246  1.00  0.00    -0.224 C  
BRANCH  10  11
HETATM   11  O   UNL     1     -10.402  10.822  69.512  1.00  0.00    -0.215 OA 
BRANCH  11  12
HETATM   12  C   UNL     1     -11.358  10.329  70.377  1.00  0.00    -0.332 A  
HETATM   13  C   UNL     1     -12.335  11.152  70.955  1.00  0.00    -0.500 A  
HETATM   14  C   UNL     1     -13.286  10.628  71.822  1.00  0.00    -0.526 A  
HETATM   15  C   UNL     1     -13.290   9.268  72.105  1.00  0.00    -0.537 A  
HETATM   16  C   UNL     1     -12.353   8.411  71.513  1.00  0.00    -0.343 A  
HETATM   17  C   UNL     1     -11.367   8.932  70.635  1.00  0.00    -0.299 A  
HETATM   18  C   UNL     1     -10.445   8.017  70.074  1.00  0.00    -0.228 A  
HETATM   19  C   UNL     1     -10.504   6.647  70.358  1.00  0.00    -0.249 A  
HETATM   20  C   UNL     1     -11.485   6.156  71.215  1.00  0.00    -0.311 A  
HETATM   21  C   UNL     1     -12.399   7.035  71.790  1.00  0.00    -0.391 A  
ENDBRANCH  11  12
ENDBRANCH  10  11
ENDBRANCH   7  10
ENDBRANCH   6   7
ENDBRANCH   4   6
ENDBRANCH   2   4
TORSDOF 6
ENDMDL
MODEL       87
REMARK 921   NORMALIZED FREE ENERGY PREDICTED BY IDOCK:   -4.76 KCAL/MOL
REMARK 922        TOTAL FREE ENERGY PREDICTED BY IDOCK:   -7.11 KCAL/MOL
REMARK 923 INTER-LIGAND FREE ENERGY PREDICTED BY IDOCK:   -6.53 KCAL/MOL
REMARK 924 INTRA-LIGAND FREE ENERGY PREDICTED BY IDOCK:   -0.59 KCAL/MOL
REMARK 927      BINDING AFFINITY PREDICTED BY RF-SCORE:    0.00 PKD
ROOT
HETATM    1  C   UNL     1     -11.659   6.454  70.472  1.00  0.00    -0.424 C  
HETATM    2  C   UNL     1     -12.246   7.645  71.230  1.00  0.00    -0.315 C  
HETATM    3  C   UNL     1     -11.495   7.838  72.550  1.00  0.00    -0.428 C  
ENDROOT
BRANCH   2   4
HETATM    4  N   UNL     1     -12.145   8.827  70.372  1.00  0.00    -0.456 NA 
HETATM    5  H   UNL     1     -12.312   9.678  70.907  1.00  0.00     0.000 HD 
BRANCH   4   6
HETATM    6  C   UNL     1     -10.873   8.910  69.642  1.00  0.00    -0.178 C  
BRANCH   6   7
HETATM    7  C   UNL     1     -10.169  10.230  69.986  1.00  0.00    -0.162 C  
HETATM    8  O   UNL     1      -8.756  10.009  70.117  1.00  0.00    -0.329 OA 
HETATM    9  H   UNL     1      -8.320  10.826  70.330  1.00  0.00     0.000 HD 
BRANCH   7  10
HETATM   10  C   UNL     1     -10.426  11.304  68.923  1.00  0.00    -0.206 C  
BRANCH  10  11
HETATM   11  O   UNL     1     -11.363  10.826  67.943  1.00  0.00    -0.323 OA 
BRANCH  11  12
HETATM   12  C   UNL     1     -10.890  10.824  66.647  1.00  0.00    -0.164 A  
HETATM   13  C   UNL     1     -10.016   9.835  66.174  1.00  0.00    -0.338 A  
HETATM   14  C   UNL     1      -9.557   9.858  64.862  1.00  0.00    -0.356 A  
HETATM   15  C   UNL     1      -9.986  10.856  63.996  1.00  0.00    -0.403 A  
HETATM   16  C   UNL     1     -10.891  11.836  64.425  1.00  0.00    -0.389 A  
HETATM   17  C   UNL     1     -11.359  11.834  65.765  1.00  0.00    -0.309 A  
HETATM   18  C   UNL     1     -12.267  12.853  66.139  1.00  0.00    -0.385 A  
HETATM   19  C   UNL     1     -12.701  13.822  65.226  1.00  0.00    -0.481 A  
HETATM   20  C   UNL     1     -12.236  13.799  63.915  1.00  0.00    -0.402 A  
HETATM   21  C   UNL     1     -11.334  12.815  63.521  1.00  0.00    -0.480 A  
ENDBRANCH  11  12
ENDBRANCH  10  11
ENDBRANCH   7  10
ENDBRANCH   6   7
ENDBRANCH   4   6
ENDBRANCH   2   4
TORSDOF 6
ENDMDL
MODEL       88
REMARK 921   NORMALIZED FREE ENERGY PREDICTED BY IDOCK:   -4.76 KCAL/MOL
REMARK 922        TOTAL FREE ENERGY PREDICTED BY IDOCK:   -7.11 KCAL/MOL
REMARK 923 INTER-LIGAND FREE ENERGY PREDICTED BY IDOCK:   -6.38 KCAL/MOL
REMARK 924 INTRA-LIGAND FREE ENERGY PREDICTED BY IDOCK:   -0.72 KCAL/MOL
REMARK 927      BINDING AFFINITY PREDICTED BY RF-SCORE:    0.00 PKD
ROOT
HETATM    1  C   UNL     1      -9.065   8.813  68.108  1.00  0.00    -0.142 C  
HETATM    2  C   UNL     1      -8.314   9.419  69.294  1.00  0.00    -0.131 C  
HETATM    3  C   UNL     1      -8.150  10.926  69.085  1.00  0.00    -0.104 C  
ENDROOT
BRANCH   2   4
HETATM    4  N   UNL     1      -9.070   9.120  70.512  1.00  0.00    -0.220 NA 
HETATM    5  H   UNL     1      -9.538   9.956  70.862  1.00  0.00     0.000 HD 
BRANCH   4   6
HETATM    6  C   UNL     1     -10.025   8.016  70.349  1.00  0.00    -0.188 C  
BRANCH   6   7
HETATM    7  C   UNL     1     -11.411   8.461  70.840  1.00  0.00    -0.267 C  
HETATM    8  O   UNL     1     -11.950   7.475  71.735  1.00  0.00    -0.280 OA 
HETATM    9  H   UNL     1     -12.807   7.749  72.038  1.00  0.00     0.000 HD 
BRANCH   7  10
HETATM   10  C   UNL     1     -11.355   9.820  71.544  1.00  0.00    -0.275 C  
BRANCH  10  11
HETATM   11  O   UNL     1     -12.520  10.599  71.223  1.00  0.00    -0.358 OA 
BRANCH  11  12
HETATM   12  C   UNL     1     -12.268  11.735  70.480  1.00  0.00    -0.347 A  
HETATM   13  C   UNL     1     -11.647  11.681  69.225  1.00  0.00    -0.385 A  
HETATM   14  C   UNL     1     -11.406  12.840  68.498  1.00  0.00    -0.326 A  
HETATM   15  C   UNL     1     -11.806  14.070  69.004  1.00  0.00    -0.391 A  
HETATM   16  C   UNL     1     -12.466  14.156  70.238  1.00  0.00    -0.416 A  
HETATM   17  C   UNL     1     -12.708  12.982  70.999  1.00  0.00    -0.347 A  
HETATM   18  C   UNL     1     -13.373  13.134  72.238  1.00  0.00    -0.621 A  
HETATM   19  C   UNL     1     -13.790  14.389  72.698  1.00  0.00    -0.480 A  
HETATM   20  C   UNL     1     -13.551  15.526  71.933  1.00  0.00    -0.580 A  
HETATM   21  C   UNL     1     -12.889  15.408  70.713  1.00  0.00    -0.524 A  
ENDBRANCH  11  12
ENDBRANCH  10  11
ENDBRANCH   7  10
ENDBRANCH   6   7
ENDBRANCH   4   6
ENDBRANCH   2   4
TORSDOF 6
ENDMDL
MODEL       89
REMARK 921   NORMALIZED FREE ENERGY PREDICTED BY IDOCK:   -4.74 KCAL/MOL
REMARK 922        TOTAL FREE ENERGY PREDICTED BY IDOCK:   -7.08 KCAL/MOL
REMARK 923 INTER-LIGAND FREE ENERGY PREDICTED BY IDOCK:   -5.68 KCAL/MOL
REMARK 924 INTRA-LIGAND FREE ENERGY PREDICTED BY IDOCK:   -1.39 KCAL/MOL
REMARK 927      BINDING AFFINITY PREDICTED BY RF-SCORE:    0.00 PKD
ROOT
HETATM    1  C   UNL     1      -7.524   9.748  67.784  1.00  0.00    -0.090 C  
HETATM    2  C   UNL     1      -7.509  10.943  68.738  1.00  0.00    -0.112 C  
HETATM    3  C   UNL     1      -7.675  12.240  67.943  1.00  0.00    -0.133 C  
ENDROOT
BRANCH   2   4
HETATM    4  N   UNL     1      -8.589  10.762  69.711  1.00  0.00    -0.308 NA 
HETATM    5  H   UNL     1      -9.425  11.269  69.422  1.00  0.00     0.000 HD 
BRANCH   4   6
HETATM    6  C   UNL     1      -8.900   9.352  69.981  1.00  0.00    -0.211 C  
BRANCH   6   7
HETATM    7  C   UNL     1     -10.418   9.184  70.146  1.00  0.00    -0.218 C  
HETATM    8  O   UNL     1     -10.754   9.143  71.542  1.00  0.00    -0.318 OA 
HETATM    9  H   UNL     1     -11.692   9.038  71.644  1.00  0.00     0.000 HD 
BRANCH   7  10
HETATM   10  C   UNL     1     -11.192  10.315  69.462  1.00  0.00    -0.261 C  
BRANCH  10  11
HETATM   11  O   UNL     1     -11.062  10.219  68.033  1.00  0.00    -0.283 OA 
BRANCH  11  12
HETATM   12  C   UNL     1     -11.245  11.409  67.357  1.00  0.00    -0.305 A  
HETATM   13  C   UNL     1     -11.786  12.543  67.977  1.00  0.00    -0.410 A  
HETATM   14  C   UNL     1     -11.958  13.728  67.271  1.00  0.00    -0.436 A  
HETATM   15  C   UNL     1     -11.568  13.803  65.940  1.00  0.00    -0.346 A  
HETATM   16  C   UNL     1     -10.987  12.700  65.301  1.00  0.00    -0.320 A  
HETATM   17  C   UNL     1     -10.816  11.478  66.004  1.00  0.00    -0.330 A  
HETATM   18  C   UNL     1     -10.229  10.399  65.303  1.00  0.00    -0.332 A  
HETATM   19  C   UNL     1      -9.819  10.526  63.970  1.00  0.00    -0.387 A  
HETATM   20  C   UNL     1      -9.988  11.735  63.302  1.00  0.00    -0.435 A  
HETATM   21  C   UNL     1     -10.572  12.811  63.964  1.00  0.00    -0.446 A  
ENDBRANCH  11  12
ENDBRANCH  10  11
ENDBRANCH   7  10
ENDBRANCH   6   7
ENDBRANCH   4   6
ENDBRANCH   2   4
TORSDOF 6
ENDMDL
MODEL       90
REMARK 921   NORMALIZED FREE ENERGY PREDICTED BY IDOCK:   -4.73 KCAL/MOL
REMARK 922        TOTAL FREE ENERGY PREDICTED BY IDOCK:   -7.06 KCAL/MOL
REMARK 923 INTER-LIGAND FREE ENERGY PREDICTED BY IDOCK:   -6.55 KCAL/MOL
REMARK 924 INTRA-LIGAND FREE ENERGY PREDICTED BY IDOCK:   -0.52 KCAL/MOL
REMARK 927      BINDING AFFINITY PREDICTED BY RF-SCORE:    0.00 PKD
ROOT
HETATM    1  C   UNL     1      -9.113   8.758  69.025  1.00  0.00    -0.141 C  
HETATM    2  C   UNL     1      -9.006  10.198  69.529  1.00  0.00    -0.188 C  
HETATM    3  C   UNL     1      -8.325  11.066  68.468  1.00  0.00    -0.149 C  
ENDROOT
BRANCH   2   4
HETATM    4  N   UNL     1     -10.356  10.676  69.835  1.00  0.00    -0.444 NA 
HETATM    5  H   UNL     1     -10.810  11.039  68.998  1.00  0.00     0.000 HD 
BRANCH   4   6
HETATM    6  C   UNL     1     -11.198   9.664  70.488  1.00  0.00    -0.297 C  
BRANCH   6   7
HETATM    7  C   UNL     1     -12.622  10.212  70.655  1.00  0.00    -0.269 C  
HETATM    8  O   UNL     1     -13.513   9.147  71.023  1.00  0.00    -0.555 OA 
HETATM    9  H   UNL     1     -14.395   9.486  71.126  1.00  0.00     0.000 HD 
BRANCH   7  10
HETATM   10  C   UNL     1     -12.684  11.322  71.709  1.00  0.00    -0.273 C  
BRANCH  10  11
HETATM   11  O   UNL     1     -13.447  12.437  71.218  1.00  0.00     0.022 OA 
BRANCH  11  12
HETATM   12  C   UNL     1     -12.994  13.674  71.633  1.00  0.00    -0.362 A  
HETATM   13  C   UNL     1     -13.160  14.125  72.949  1.00  0.00    -0.544 A  
HETATM   14  C   UNL     1     -12.692  15.374  73.339  1.00  0.00    -0.656 A  
HETATM   15  C   UNL     1     -12.028  16.181  72.424  1.00  0.00    -0.649 A  
HETATM   16  C   UNL     1     -11.810  15.744  71.111  1.00  0.00    -0.471 A  
HETATM   17  C   UNL     1     -12.293  14.476  70.693  1.00  0.00    -0.407 A  
HETATM   18  C   UNL     1     -12.045  14.093  69.354  1.00  0.00    -0.372 A  
HETATM   19  C   UNL     1     -11.343  14.922  68.471  1.00  0.00    -0.314 A  
HETATM   20  C   UNL     1     -10.870  16.157  68.903  1.00  0.00    -0.305 A  
HETATM   21  C   UNL     1     -11.107  16.565  70.213  1.00  0.00    -0.171 A  
ENDBRANCH  11  12
ENDBRANCH  10  11
ENDBRANCH   7  10
ENDBRANCH   6   7
ENDBRANCH   4   6
ENDBRANCH   2   4
TORSDOF 6
ENDMDL
MODEL       91
REMARK 921   NORMALIZED FREE ENERGY PREDICTED BY IDOCK:   -4.71 KCAL/MOL
REMARK 922        TOTAL FREE ENERGY PREDICTED BY IDOCK:   -7.04 KCAL/MOL
REMARK 923 INTER-LIGAND FREE ENERGY PREDICTED BY IDOCK:   -6.59 KCAL/MOL
REMARK 924 INTRA-LIGAND FREE ENERGY PREDICTED BY IDOCK:   -0.45 KCAL/MOL
REMARK 927      BINDING AFFINITY PREDICTED BY RF-SCORE:    0.00 PKD
ROOT
HETATM    1  C   UNL     1      -6.352  18.588  69.166  1.00  0.00    -0.264 C  
HETATM    2  C   UNL     1      -7.123  19.893  68.962  1.00  0.00    -0.271 C  
HETATM    3  C   UNL     1      -6.384  20.776  67.953  1.00  0.00    -0.374 C  
ENDROOT
BRANCH   2   4
HETATM    4  N   UNL     1      -8.473  19.559  68.504  1.00  0.00    -0.352 NA 
HETATM    5  H   UNL     1      -9.156  19.721  69.244  1.00  0.00     0.000 HD 
BRANCH   4   6
HETATM    6  C   UNL     1      -8.860  20.259  67.273  1.00  0.00    -0.355 C  
BRANCH   6   7
HETATM    7  C   UNL     1     -10.215  19.726  66.783  1.00  0.00    -0.462 C  
HETATM    8  O   UNL     1     -10.104  19.294  65.418  1.00  0.00    -0.261 OA 
HETATM    9  H   UNL     1     -10.942  18.965  65.115  1.00  0.00     0.000 HD 
BRANCH   7  10
HETATM   10  C   UNL     1     -10.716  18.567  67.652  1.00  0.00    -0.364 C  
BRANCH  10  11
HETATM   11  O   UNL     1      -9.906  17.397  67.442  1.00  0.00    -0.267 OA 
BRANCH  11  12
HETATM   12  C   UNL     1     -10.613  16.215  67.355  1.00  0.00    -0.311 A  
HETATM   13  C   UNL     1     -10.864  15.585  66.128  1.00  0.00    -0.295 A  
HETATM   14  C   UNL     1     -11.578  14.395  66.071  1.00  0.00    -0.364 A  
HETATM   15  C   UNL     1     -12.030  13.801  67.243  1.00  0.00    -0.436 A  
HETATM   16  C   UNL     1     -11.761  14.383  68.489  1.00  0.00    -0.370 A  
HETATM   17  C   UNL     1     -11.044  15.606  68.564  1.00  0.00    -0.322 A  
HETATM   18  C   UNL     1     -10.809  16.146  69.850  1.00  0.00    -0.355 A  
HETATM   19  C   UNL     1     -11.252  15.499  71.011  1.00  0.00    -0.419 A  
HETATM   20  C   UNL     1     -11.946  14.297  70.915  1.00  0.00    -0.389 A  
HETATM   21  C   UNL     1     -12.200  13.747  69.662  1.00  0.00    -0.359 A  
ENDBRANCH  11  12
ENDBRANCH  10  11
ENDBRANCH   7  10
ENDBRANCH   6   7
ENDBRANCH   4   6
ENDBRANCH   2   4
TORSDOF 6
ENDMDL
MODEL       92
REMARK 921   NORMALIZED FREE ENERGY PREDICTED BY IDOCK:   -4.70 KCAL/MOL
REMARK 922        TOTAL FREE ENERGY PREDICTED BY IDOCK:   -7.03 KCAL/MOL
REMARK 923 INTER-LIGAND FREE ENERGY PREDICTED BY IDOCK:   -6.28 KCAL/MOL
REMARK 924 INTRA-LIGAND FREE ENERGY PREDICTED BY IDOCK:   -0.75 KCAL/MOL
REMARK 927      BINDING AFFINITY PREDICTED BY RF-SCORE:    0.00 PKD
ROOT
HETATM    1  C   UNL     1      -7.465   9.624  70.467  1.00  0.00    -0.147 C  
HETATM    2  C   UNL     1      -8.879   9.105  70.727  1.00  0.00    -0.239 C  
HETATM    3  C   UNL     1      -8.973   8.557  72.153  1.00  0.00    -0.300 C  
ENDROOT
BRANCH   2   4
HETATM    4  N   UNL     1      -9.817  10.207  70.507  1.00  0.00    -0.313 NA 
HETATM    5  H   UNL     1      -9.854  10.459  69.520  1.00  0.00     0.000 HD 
BRANCH   4   6
HETATM    6  C   UNL     1     -11.165   9.939  71.028  1.00  0.00    -0.364 C  
BRANCH   6   7
HETATM    7  C   UNL     1     -12.164  10.918  70.396  1.00  0.00    -0.365 C  
HETATM    8  O   UNL     1     -11.774  12.269  70.691  1.00  0.00    -0.475 OA 
HETATM    9  H   UNL     1     -12.393  12.875  70.301  1.00  0.00     0.000 HD 
BRANCH   7  10
HETATM   10  C   UNL     1     -12.262  10.729  68.879  1.00  0.00     0.105 C  
BRANCH  10  11
HETATM   11  O   UNL     1     -11.399  11.659  68.201  1.00  0.00    -0.244 OA 
BRANCH  11  12
HETATM   12  C   UNL     1     -10.896  11.206  66.998  1.00  0.00    -0.284 A  
HETATM   13  C   UNL     1     -10.097  10.058  66.910  1.00  0.00    -0.287 A  
HETATM   14  C   UNL     1      -9.605   9.624  65.685  1.00  0.00    -0.338 A  
HETATM   15  C   UNL     1      -9.926  10.319  64.525  1.00  0.00    -0.359 A  
HETATM   16  C   UNL     1     -10.755  11.448  64.573  1.00  0.00    -0.391 A  
HETATM   17  C   UNL     1     -11.255  11.911  65.818  1.00  0.00    -0.365 A  
HETATM   18  C   UNL     1     -12.083  13.058  65.802  1.00  0.00    -0.510 A  
HETATM   19  C   UNL     1     -12.410  13.711  64.607  1.00  0.00    -0.413 A  
HETATM   20  C   UNL     1     -11.916  13.235  63.397  1.00  0.00    -0.491 A  
HETATM   21  C   UNL     1     -11.091  12.113  63.383  1.00  0.00    -0.495 A  
ENDBRANCH  11  12
ENDBRANCH  10  11
ENDBRANCH   7  10
ENDBRANCH   6   7
ENDBRANCH   4   6
ENDBRANCH   2   4
TORSDOF 6
ENDMDL
MODEL       93
REMARK 921   NORMALIZED FREE ENERGY PREDICTED BY IDOCK:   -4.69 KCAL/MOL
REMARK 922        TOTAL FREE ENERGY PREDICTED BY IDOCK:   -7.02 KCAL/MOL
REMARK 923 INTER-LIGAND FREE ENERGY PREDICTED BY IDOCK:   -6.22 KCAL/MOL
REMARK 924 INTRA-LIGAND FREE ENERGY PREDICTED BY IDOCK:   -0.80 KCAL/MOL
REMARK 927      BINDING AFFINITY PREDICTED BY RF-SCORE:    0.00 PKD
ROOT
HETATM    1  C   UNL     1      -9.790   6.672  73.136  1.00  0.00    -0.188 C  
HETATM    2  C   UNL     1     -11.065   6.317  72.371  1.00  0.00    -0.270 C  
HETATM    3  C   UNL     1     -11.519   4.906  72.753  1.00  0.00    -0.193 C  
ENDROOT
BRANCH   2   4
HETATM    4  N   UNL     1     -12.083   7.319  72.692  1.00  0.00    -0.520 NA 
HETATM    5  H   UNL     1     -11.655   8.155  73.090  1.00  0.00     0.000 HD 
BRANCH   4   6
HETATM    6  C   UNL     1     -12.940   7.666  71.550  1.00  0.00    -0.341 C  
BRANCH   6   7
HETATM    7  C   UNL     1     -13.777   8.907  71.894  1.00  0.00    -0.439 C  
HETATM    8  O   UNL     1     -14.110   8.897  73.291  1.00  0.00    -1.211 OA 
HETATM    9  H   UNL     1     -14.627   9.665  73.503  1.00  0.00     0.000 HD 
BRANCH   7  10
HETATM   10  C   UNL     1     -13.037  10.204  71.548  1.00  0.00    -0.429 C  
BRANCH  10  11
HETATM   11  O   UNL     1     -11.647   9.936  71.295  1.00  0.00    -0.360 OA 
BRANCH  11  12
HETATM   12  C   UNL     1     -11.203  10.326  70.048  1.00  0.00    -0.311 A  
HETATM   13  C   UNL     1     -12.031  10.999  69.139  1.00  0.00    -0.394 A  
HETATM   14  C   UNL     1     -11.557  11.380  67.890  1.00  0.00    -0.337 A  
HETATM   15  C   UNL     1     -10.238  11.118  67.541  1.00  0.00    -0.216 A  
HETATM   16  C   UNL     1      -9.372  10.483  68.441  1.00  0.00    -0.158 A  
HETATM   17  C   UNL     1      -9.844  10.075  69.716  1.00  0.00    -0.270 A  
HETATM   18  C   UNL     1      -8.924   9.435  70.578  1.00  0.00    -0.303 A  
HETATM   19  C   UNL     1      -7.593   9.218  70.201  1.00  0.00    -0.111 A  
HETATM   20  C   UNL     1      -7.148   9.634  68.950  1.00  0.00    -0.067 A  
HETATM   21  C   UNL     1      -8.034  10.258  68.076  1.00  0.00    -0.101 A  
ENDBRANCH  11  12
ENDBRANCH  10  11
ENDBRANCH   7  10
ENDBRANCH   6   7
ENDBRANCH   4   6
ENDBRANCH   2   4
TORSDOF 6
ENDMDL
MODEL       94
REMARK 921   NORMALIZED FREE ENERGY PREDICTED BY IDOCK:   -4.69 KCAL/MOL
REMARK 922        TOTAL FREE ENERGY PREDICTED BY IDOCK:   -7.01 KCAL/MOL
REMARK 923 INTER-LIGAND FREE ENERGY PREDICTED BY IDOCK:   -6.32 KCAL/MOL
REMARK 924 INTRA-LIGAND FREE ENERGY PREDICTED BY IDOCK:   -0.69 KCAL/MOL
REMARK 927      BINDING AFFINITY PREDICTED BY RF-SCORE:    0.00 PKD
ROOT
HETATM    1  C   UNL     1      -9.837   5.373  71.080  1.00  0.00    -0.243 C  
HETATM    2  C   UNL     1     -11.188   6.087  71.027  1.00  0.00    -0.263 C  
HETATM    3  C   UNL     1     -11.437   6.820  72.347  1.00  0.00    -0.302 C  
ENDROOT
BRANCH   2   4
HETATM    4  N   UNL     1     -11.171   7.009  69.890  1.00  0.00    -0.401 NA 
HETATM    5  H   UNL     1     -11.359   7.964  70.195  1.00  0.00     0.000 HD 
BRANCH   4   6
HETATM    6  C   UNL     1      -9.928   6.948  69.108  1.00  0.00    -0.162 C  
BRANCH   6   7
HETATM    7  C   UNL     1     -10.240   7.212  67.628  1.00  0.00    -0.198 C  
HETATM    8  O   UNL     1     -11.532   6.679  67.299  1.00  0.00    -0.766 OA 
HETATM    9  H   UNL     1     -11.725   6.842  66.384  1.00  0.00     0.000 HD 
BRANCH   7  10
HETATM   10  C   UNL     1     -10.200   8.708  67.297  1.00  0.00    -0.268 C  
BRANCH  10  11
HETATM   11  O   UNL     1     -11.155   9.424  68.099  1.00  0.00    -0.106 OA 
BRANCH  11  12
HETATM   12  C   UNL     1     -11.170  10.789  67.894  1.00  0.00    -0.318 A  
HETATM   13  C   UNL     1     -10.767  11.366  66.682  1.00  0.00    -0.316 A  
HETATM   14  C   UNL     1     -10.795  12.744  66.504  1.00  0.00    -0.280 A  
HETATM   15  C   UNL     1     -11.250  13.565  67.528  1.00  0.00    -0.307 A  
HETATM   16  C   UNL     1     -11.699  13.019  68.738  1.00  0.00    -0.363 A  
HETATM   17  C   UNL     1     -11.665  11.614  68.941  1.00  0.00    -0.397 A  
HETATM   18  C   UNL     1     -12.125  11.124  70.185  1.00  0.00    -0.443 A  
HETATM   19  C   UNL     1     -12.608  11.983  71.180  1.00  0.00    -0.372 A  
HETATM   20  C   UNL     1     -12.641  13.356  70.957  1.00  0.00    -0.425 A  
HETATM   21  C   UNL     1     -12.185  13.868  69.746  1.00  0.00    -0.388 A  
ENDBRANCH  11  12
ENDBRANCH  10  11
ENDBRANCH   7  10
ENDBRANCH   6   7
ENDBRANCH   4   6
ENDBRANCH   2   4
TORSDOF 6
ENDMDL
MODEL       95
REMARK 921   NORMALIZED FREE ENERGY PREDICTED BY IDOCK:   -4.68 KCAL/MOL
REMARK 922        TOTAL FREE ENERGY PREDICTED BY IDOCK:   -7.00 KCAL/MOL
REMARK 923 INTER-LIGAND FREE ENERGY PREDICTED BY IDOCK:   -6.32 KCAL/MOL
REMARK 924 INTRA-LIGAND FREE ENERGY PREDICTED BY IDOCK:   -0.67 KCAL/MOL
REMARK 927      BINDING AFFINITY PREDICTED BY RF-SCORE:    0.00 PKD
ROOT
HETATM    1  C   UNL     1      -6.779  17.342  66.212  1.00  0.00    -0.269 C  
HETATM    2  C   UNL     1      -7.928  18.062  66.917  1.00  0.00    -0.231 C  
HETATM    3  C   UNL     1      -8.318  19.312  66.124  1.00  0.00    -0.280 C  
ENDROOT
BRANCH   2   4
HETATM    4  N   UNL     1      -9.048  17.126  67.037  1.00  0.00    -0.225 NA 
HETATM    5  H   UNL     1      -9.909  17.620  67.272  1.00  0.00     0.000 HD 
BRANCH   4   6
HETATM    6  C   UNL     1      -9.235  16.286  65.847  1.00  0.00    -0.233 C  
BRANCH   6   7
HETATM    7  C   UNL     1     -10.727  16.235  65.484  1.00  0.00    -0.313 C  
HETATM    8  O   UNL     1     -10.882  15.807  64.122  1.00  0.00    -0.739 OA 
HETATM    9  H   UNL     1     -11.805  15.775  63.898  1.00  0.00     0.000 HD 
BRANCH   7  10
HETATM   10  C   UNL     1     -11.504  15.296  66.412  1.00  0.00    -0.087 C  
BRANCH  10  11
HETATM   11  O   UNL     1     -10.681  14.888  67.517  1.00  0.00    -0.266 OA 
BRANCH  11  12
HETATM   12  C   UNL     1     -11.360  14.700  68.704  1.00  0.00    -0.283 A  
HETATM   13  C   UNL     1     -11.967  15.760  69.391  1.00  0.00    -0.321 A  
HETATM   14  C   UNL     1     -12.646  15.542  70.584  1.00  0.00    -0.493 A  
HETATM   15  C   UNL     1     -12.750  14.254  71.095  1.00  0.00    -0.430 A  
HETATM   16  C   UNL     1     -12.189  13.166  70.413  1.00  0.00    -0.389 A  
HETATM   17  C   UNL     1     -11.481  13.374  69.200  1.00  0.00    -0.351 A  
HETATM   18  C   UNL     1     -10.934  12.237  68.562  1.00  0.00    -0.275 A  
HETATM   19  C   UNL     1     -11.089  10.950  69.093  1.00  0.00    -0.301 A  
HETATM   20  C   UNL     1     -11.794  10.768  70.279  1.00  0.00    -0.438 A  
HETATM   21  C   UNL     1     -12.335  11.870  70.934  1.00  0.00    -0.400 A  
ENDBRANCH  11  12
ENDBRANCH  10  11
ENDBRANCH   7  10
ENDBRANCH   6   7
ENDBRANCH   4   6
ENDBRANCH   2   4
TORSDOF 6
ENDMDL
MODEL       96
REMARK 921   NORMALIZED FREE ENERGY PREDICTED BY IDOCK:   -4.67 KCAL/MOL
REMARK 922        TOTAL FREE ENERGY PREDICTED BY IDOCK:   -6.99 KCAL/MOL
REMARK 923 INTER-LIGAND FREE ENERGY PREDICTED BY IDOCK:   -6.37 KCAL/MOL
REMARK 924 INTRA-LIGAND FREE ENERGY PREDICTED BY IDOCK:   -0.62 KCAL/MOL
REMARK 927      BINDING AFFINITY PREDICTED BY RF-SCORE:    0.00 PKD
ROOT
HETATM    1  C   UNL     1      -5.790  18.857  69.097  1.00  0.00    -0.237 C  
HETATM    2  C   UNL     1      -7.028  19.678  68.735  1.00  0.00    -0.339 C  
HETATM    3  C   UNL     1      -6.649  20.766  67.728  1.00  0.00    -0.385 C  
ENDROOT
BRANCH   2   4
HETATM    4  N   UNL     1      -8.038  18.767  68.193  1.00  0.00    -0.290 NA 
HETATM    5  H   UNL     1      -8.654  18.428  68.933  1.00  0.00     0.000 HD 
BRANCH   4   6
HETATM    6  C   UNL     1      -8.816  19.347  67.091  1.00  0.00    -0.295 C  
BRANCH   6   7
HETATM    7  C   UNL     1     -10.129  18.569  66.923  1.00  0.00    -0.370 C  
HETATM    8  O   UNL     1     -10.017  17.658  65.819  1.00  0.00    -0.544 OA 
HETATM    9  H   UNL     1     -10.829  17.176  65.715  1.00  0.00     0.000 HD 
BRANCH   7  10
HETATM   10  C   UNL     1     -10.497  17.796  68.194  1.00  0.00    -0.377 C  
BRANCH  10  11
HETATM   11  O   UNL     1     -10.108  16.417  68.073  1.00  0.00    -0.238 OA 
BRANCH  11  12
HETATM   12  C   UNL     1     -10.822  15.544  68.869  1.00  0.00    -0.254 A  
HETATM   13  C   UNL     1     -11.433  15.954  70.062  1.00  0.00    -0.354 A  
HETATM   14  C   UNL     1     -12.147  15.054  70.844  1.00  0.00    -0.380 A  
HETATM   15  C   UNL     1     -12.282  13.735  70.431  1.00  0.00    -0.433 A  
HETATM   16  C   UNL     1     -11.718  13.301  69.223  1.00  0.00    -0.380 A  
HETATM   17  C   UNL     1     -10.975  14.205  68.420  1.00  0.00    -0.270 A  
HETATM   18  C   UNL     1     -10.426  13.707  67.215  1.00  0.00    -0.260 A  
HETATM   19  C   UNL     1     -10.613  12.377  66.817  1.00  0.00    -0.250 A  
HETATM   20  C   UNL     1     -11.352  11.510  67.616  1.00  0.00    -0.358 A  
HETATM   21  C   UNL     1     -11.897  11.970  68.812  1.00  0.00    -0.358 A  
ENDBRANCH  11  12
ENDBRANCH  10  11
ENDBRANCH   7  10
ENDBRANCH   6   7
ENDBRANCH   4   6
ENDBRANCH   2   4
TORSDOF 6
ENDMDL
MODEL       97
REMARK 921   NORMALIZED FREE ENERGY PREDICTED BY IDOCK:   -4.66 KCAL/MOL
REMARK 922        TOTAL FREE ENERGY PREDICTED BY IDOCK:   -6.98 KCAL/MOL
REMARK 923 INTER-LIGAND FREE ENERGY PREDICTED BY IDOCK:   -6.48 KCAL/MOL
REMARK 924 INTRA-LIGAND FREE ENERGY PREDICTED BY IDOCK:   -0.50 KCAL/MOL
REMARK 927      BINDING AFFINITY PREDICTED BY RF-SCORE:    0.00 PKD
ROOT
HETATM    1  C   UNL     1     -10.206   6.290  71.026  1.00  0.00    -0.234 C  
HETATM    2  C   UNL     1     -11.539   6.590  70.339  1.00  0.00    -0.407 C  
HETATM    3  C   UNL     1     -12.528   7.161  71.358  1.00  0.00    -0.427 C  
ENDROOT
BRANCH   2   4
HETATM    4  N   UNL     1     -11.286   7.529  69.244  1.00  0.00    -0.438 NA 
HETATM    5  H   UNL     1     -11.676   8.446  69.458  1.00  0.00     0.000 HD 
BRANCH   4   6
HETATM    6  C   UNL     1      -9.865   7.637  68.886  1.00  0.00    -0.164 C  
BRANCH   6   7
HETATM    7  C   UNL     1      -9.677   7.256  67.410  1.00  0.00    -0.150 C  
HETATM    8  O   UNL     1     -10.921   6.787  66.867  1.00  0.00    -0.448 OA 
HETATM    9  H   UNL     1     -10.805   6.551  65.954  1.00  0.00     0.000 HD 
BRANCH   7  10
HETATM   10  C   UNL     1      -9.164   8.438  66.580  1.00  0.00    -0.189 C  
BRANCH  10  11
HETATM   11  O   UNL     1     -10.036   9.571  66.729  1.00  0.00    -0.214 OA 
BRANCH  11  12
HETATM   12  C   UNL     1     -10.127  10.379  65.614  1.00  0.00    -0.269 A  
HETATM   13  C   UNL     1      -9.583  10.007  64.377  1.00  0.00    -0.325 A  
HETATM   14  C   UNL     1      -9.690  10.840  63.271  1.00  0.00    -0.396 A  
HETATM   15  C   UNL     1     -10.367  12.049  63.378  1.00  0.00    -0.468 A  
HETATM   16  C   UNL     1     -10.957  12.434  64.589  1.00  0.00    -0.344 A  
HETATM   17  C   UNL     1     -10.845  11.600  65.732  1.00  0.00    -0.334 A  
HETATM   18  C   UNL     1     -11.458  12.046  66.927  1.00  0.00    -0.402 A  
HETATM   19  C   UNL     1     -12.159  13.256  66.985  1.00  0.00    -0.375 A  
HETATM   20  C   UNL     1     -12.264  14.054  65.850  1.00  0.00    -0.481 A  
HETATM   21  C   UNL     1     -11.663  13.646  64.663  1.00  0.00    -0.414 A  
ENDBRANCH  11  12
ENDBRANCH  10  11
ENDBRANCH   7  10
ENDBRANCH   6   7
ENDBRANCH   4   6
ENDBRANCH   2   4
TORSDOF 6
ENDMDL
MODEL       98
REMARK 921   NORMALIZED FREE ENERGY PREDICTED BY IDOCK:   -4.66 KCAL/MOL
REMARK 922        TOTAL FREE ENERGY PREDICTED BY IDOCK:   -6.97 KCAL/MOL
REMARK 923 INTER-LIGAND FREE ENERGY PREDICTED BY IDOCK:   -6.44 KCAL/MOL
REMARK 924 INTRA-LIGAND FREE ENERGY PREDICTED BY IDOCK:   -0.54 KCAL/MOL
REMARK 927      BINDING AFFINITY PREDICTED BY RF-SCORE:    0.00 PKD
ROOT
HETATM    1  C   UNL     1     -10.593   5.559  70.072  1.00  0.00    -0.384 C  
HETATM    2  C   UNL     1     -11.666   6.469  70.671  1.00  0.00    -0.374 C  
HETATM    3  C   UNL     1     -11.470   6.571  72.186  1.00  0.00    -0.332 C  
ENDROOT
BRANCH   2   4
HETATM    4  N   UNL     1     -11.567   7.778  70.023  1.00  0.00    -0.473 NA 
HETATM    5  H   UNL     1     -12.112   7.797  69.161  1.00  0.00     0.000 HD 
BRANCH   4   6
HETATM    6  C   UNL     1     -11.942   8.894  70.902  1.00  0.00    -0.213 C  
BRANCH   6   7
HETATM    7  C   UNL     1     -10.933  10.039  70.737  1.00  0.00    -0.305 C  
HETATM    8  O   UNL     1      -9.719   9.723  71.436  1.00  0.00    -0.217 OA 
HETATM    9  H   UNL     1      -9.095  10.432  71.335  1.00  0.00     0.000 HD 
BRANCH   7  10
HETATM   10  C   UNL     1     -10.622  10.314  69.262  1.00  0.00    -0.230 C  
BRANCH  10  11
HETATM   11  O   UNL     1     -11.794  10.795  68.583  1.00  0.00    -0.404 OA 
BRANCH  11  12
HETATM   12  C   UNL     1     -11.733  12.119  68.195  1.00  0.00    -0.341 A  
HETATM   13  C   UNL     1     -11.974  13.169  69.091  1.00  0.00    -0.329 A  
HETATM   14  C   UNL     1     -11.904  14.493  68.673  1.00  0.00    -0.355 A  
HETATM   15  C   UNL     1     -11.566  14.786  67.358  1.00  0.00    -0.377 A  
HETATM   16  C   UNL     1     -11.279  13.761  66.447  1.00  0.00    -0.321 A  
HETATM   17  C   UNL     1     -11.359  12.404  66.854  1.00  0.00    -0.392 A  
HETATM   18  C   UNL     1     -11.063  11.415  65.888  1.00  0.00    -0.225 A  
HETATM   19  C   UNL     1     -10.694  11.753  64.580  1.00  0.00    -0.369 A  
HETATM   20  C   UNL     1     -10.613  13.090  64.204  1.00  0.00    -0.421 A  
HETATM   21  C   UNL     1     -10.909  14.085  65.131  1.00  0.00    -0.376 A  
ENDBRANCH  11  12
ENDBRANCH  10  11
ENDBRANCH   7  10
ENDBRANCH   6   7
ENDBRANCH   4   6
ENDBRANCH   2   4
TORSDOF 6
ENDMDL
MODEL       99
REMARK 921   NORMALIZED FREE ENERGY PREDICTED BY IDOCK:   -4.63 KCAL/MOL
REMARK 922        TOTAL FREE ENERGY PREDICTED BY IDOCK:   -6.93 KCAL/MOL
REMARK 923 INTER-LIGAND FREE ENERGY PREDICTED BY IDOCK:   -6.47 KCAL/MOL
REMARK 924 INTRA-LIGAND FREE ENERGY PREDICTED BY IDOCK:   -0.46 KCAL/MOL
REMARK 927      BINDING AFFINITY PREDICTED BY RF-SCORE:    0.00 PKD
ROOT
HETATM    1  C   UNL     1     -12.151  13.812  70.079  1.00  0.00    -0.416 C  
HETATM    2  C   UNL     1     -11.217  12.916  69.266  1.00  0.00    -0.190 C  
HETATM    3  C   UNL     1     -12.023  11.798  68.601  1.00  0.00    -0.299 C  
ENDROOT
BRANCH   2   4
HETATM    4  N   UNL     1     -10.531  13.751  68.277  1.00  0.00    -0.241 NA 
HETATM    5  H   UNL     1      -9.776  13.233  67.827  1.00  0.00     0.000 HD 
BRANCH   4   6
HETATM    6  C   UNL     1     -11.436  14.331  67.275  1.00  0.00    -0.352 C  
BRANCH   6   7
HETATM    7  C   UNL     1     -10.700  14.463  65.934  1.00  0.00    -0.306 C  
HETATM    8  O   UNL     1     -11.394  13.716  64.922  1.00  0.00    -0.322 OA 
HETATM    9  H   UNL     1     -10.939  13.798  64.093  1.00  0.00     0.000 HD 
BRANCH   7  10
HETATM   10  C   UNL     1     -10.571  15.926  65.498  1.00  0.00    -0.401 C  
BRANCH  10  11
HETATM   11  O   UNL     1      -9.316  16.472  65.939  1.00  0.00    -0.435 OA 
BRANCH  11  12
HETATM   12  C   UNL     1      -9.393  17.749  66.456  1.00  0.00    -0.279 A  
HETATM   13  C   UNL     1     -10.571  18.254  67.023  1.00  0.00    -0.375 A  
HETATM   14  C   UNL     1     -10.620  19.544  67.538  1.00  0.00    -0.599 A  
HETATM   15  C   UNL     1      -9.481  20.340  67.517  1.00  0.00    -0.539 A  
HETATM   16  C   UNL     1      -8.276  19.853  66.994  1.00  0.00    -0.356 A  
HETATM   17  C   UNL     1      -8.214  18.542  66.453  1.00  0.00    -0.289 A  
HETATM   18  C   UNL     1      -6.970  18.109  65.936  1.00  0.00    -0.319 A  
HETATM   19  C   UNL     1      -5.837  18.931  65.963  1.00  0.00    -0.189 A  
HETATM   20  C   UNL     1      -5.918  20.209  66.506  1.00  0.00    -0.192 A  
HETATM   21  C   UNL     1      -7.131  20.666  67.014  1.00  0.00    -0.375 A  
ENDBRANCH  11  12
ENDBRANCH  10  11
ENDBRANCH   7  10
ENDBRANCH   6   7
ENDBRANCH   4   6
ENDBRANCH   2   4
TORSDOF 6
ENDMDL
MODEL      100
REMARK 921   NORMALIZED FREE ENERGY PREDICTED BY IDOCK:   -4.61 KCAL/MOL
REMARK 922        TOTAL FREE ENERGY PREDICTED BY IDOCK:   -6.91 KCAL/MOL
REMARK 923 INTER-LIGAND FREE ENERGY PREDICTED BY IDOCK:   -5.93 KCAL/MOL
REMARK 924 INTRA-LIGAND FREE ENERGY PREDICTED BY IDOCK:   -0.97 KCAL/MOL
REMARK 927      BINDING AFFINITY PREDICTED BY RF-SCORE:    0.00 PKD
ROOT
HETATM    1  C   UNL     1      -5.927  12.064  67.408  1.00  0.00    -0.130 C  
HETATM    2  C   UNL     1      -7.411  12.424  67.489  1.00  0.00    -0.150 C  
HETATM    3  C   UNL     1      -7.579  13.943  67.411  1.00  0.00    -0.160 C  
ENDROOT
BRANCH   2   4
HETATM    4  N   UNL     1      -8.105  11.745  66.393  1.00  0.00    -0.374 NA 
HETATM    5  H   UNL     1      -7.626  11.904  65.507  1.00  0.00     0.000 HD 
BRANCH   4   6
HETATM    6  C   UNL     1      -8.301  10.308  66.628  1.00  0.00    -0.125 C  
BRANCH   6   7
HETATM    7  C   UNL     1      -9.787   9.958  66.460  1.00  0.00    -0.215 C  
HETATM    8  O   UNL     1      -9.916   8.631  65.925  1.00  0.00    -0.469 OA 
HETATM    9  H   UNL     1     -10.835   8.414  65.820  1.00  0.00     0.000 HD 
BRANCH   7  10
HETATM   10  C   UNL     1     -10.548  10.056  67.786  1.00  0.00    -0.261 C  
BRANCH  10  11
HETATM   11  O   UNL     1     -11.732  10.856  67.626  1.00  0.00    -0.566 OA 
BRANCH  11  12
HETATM   12  C   UNL     1     -11.527  12.216  67.735  1.00  0.00    -0.332 A  
HETATM   13  C   UNL     1     -11.111  12.814  68.932  1.00  0.00    -0.310 A  
HETATM   14  C   UNL     1     -10.912  14.187  69.013  1.00  0.00    -0.286 A  
HETATM   15  C   UNL     1     -11.102  14.981  67.888  1.00  0.00    -0.310 A  
HETATM   16  C   UNL     1     -11.479  14.410  66.665  1.00  0.00    -0.372 A  
HETATM   17  C   UNL     1     -11.699  13.011  66.570  1.00  0.00    -0.437 A  
HETATM   18  C   UNL     1     -12.084  12.496  65.310  1.00  0.00    -0.500 A  
HETATM   19  C   UNL     1     -12.233  13.326  64.191  1.00  0.00    -0.465 A  
HETATM   20  C   UNL     1     -12.004  14.694  64.305  1.00  0.00    -0.406 A  
HETATM   21  C   UNL     1     -11.634  15.230  65.535  1.00  0.00    -0.067 A  
ENDBRANCH  11  12
ENDBRANCH  10  11
ENDBRANCH   7  10
ENDBRANCH   6   7
ENDBRANCH   4   6
ENDBRANCH   2   4
TORSDOF 6
ENDMDL
MODEL      101
REMARK 921   NORMALIZED FREE ENERGY PREDICTED BY IDOCK:   -4.59 KCAL/MOL
REMARK 922        TOTAL FREE ENERGY PREDICTED BY IDOCK:   -6.88 KCAL/MOL
REMARK 923 INTER-LIGAND FREE ENERGY PREDICTED BY IDOCK:   -6.26 KCAL/MOL
REMARK 924 INTRA-LIGAND FREE ENERGY PREDICTED BY IDOCK:   -0.61 KCAL/MOL
REMARK 927      BINDING AFFINITY PREDICTED BY RF-SCORE:    0.00 PKD
ROOT
HETATM    1  C   UNL     1     -10.556   9.545  68.435  1.00  0.00    -0.261 C  
HETATM    2  C   UNL     1     -11.044  10.419  69.591  1.00  0.00    -0.276 C  
HETATM    3  C   UNL     1     -11.289  11.845  69.093  1.00  0.00    -0.338 C  
ENDROOT
BRANCH   2   4
HETATM    4  N   UNL     1     -12.264   9.817  70.133  1.00  0.00    -0.472 NA 
HETATM    5  H   UNL     1     -12.194   8.799  70.139  1.00  0.00     0.000 HD 
BRANCH   4   6
HETATM    6  C   UNL     1     -12.623  10.323  71.465  1.00  0.00    -0.440 C  
BRANCH   6   7
HETATM    7  C   UNL     1     -13.034   9.150  72.366  1.00  0.00    -0.398 C  
HETATM    8  O   UNL     1     -14.306   9.426  72.974  1.00  0.00    -0.902 OA 
HETATM    9  H   UNL     1     -14.561   8.701  73.531  1.00  0.00     0.000 HD 
BRANCH   7  10
HETATM   10  C   UNL     1     -13.110   7.834  71.586  1.00  0.00    -0.345 C  
BRANCH  10  11
HETATM   11  O   UNL     1     -12.447   6.783  72.310  1.00  0.00    -0.198 OA 
BRANCH  11  12
HETATM   12  C   UNL     1     -11.554   6.043  71.562  1.00  0.00    -0.172 A  
HETATM   13  C   UNL     1     -11.362   6.269  70.192  1.00  0.00    -0.476 A  
HETATM   14  C   UNL     1     -10.455   5.509  69.464  1.00  0.00    -0.368 A  
HETATM   15  C   UNL     1      -9.707   4.526  70.101  1.00  0.00    -0.287 A  
HETATM   16  C   UNL     1      -9.845   4.301  71.477  1.00  0.00    -0.260 A  
HETATM   17  C   UNL     1     -10.777   5.060  72.233  1.00  0.00    -0.246 A  
HETATM   18  C   UNL     1     -10.874   4.782  73.616  1.00  0.00    -0.377 A  
HETATM   19  C   UNL     1     -10.079   3.806  74.227  1.00  0.00    -0.205 A  
HETATM   20  C   UNL     1      -9.165   3.079  73.470  1.00  0.00    -0.096 A  
HETATM   21  C   UNL     1      -9.054   3.324  72.103  1.00  0.00    -0.150 A  
ENDBRANCH  11  12
ENDBRANCH  10  11
ENDBRANCH   7  10
ENDBRANCH   6   7
ENDBRANCH   4   6
ENDBRANCH   2   4
TORSDOF 6
ENDMDL
MODEL      102
REMARK 921   NORMALIZED FREE ENERGY PREDICTED BY IDOCK:   -4.57 KCAL/MOL
REMARK 922        TOTAL FREE ENERGY PREDICTED BY IDOCK:   -6.85 KCAL/MOL
REMARK 923 INTER-LIGAND FREE ENERGY PREDICTED BY IDOCK:   -6.41 KCAL/MOL
REMARK 924 INTRA-LIGAND FREE ENERGY PREDICTED BY IDOCK:   -0.44 KCAL/MOL
REMARK 927      BINDING AFFINITY PREDICTED BY RF-SCORE:    0.00 PKD
ROOT
HETATM    1  C   UNL     1     -14.035  15.374  72.300  1.00  0.00    -0.661 C  
HETATM    2  C   UNL     1     -12.582  15.707  72.637  1.00  0.00    -0.433 C  
HETATM    3  C   UNL     1     -12.342  15.513  74.136  1.00  0.00    -0.806 C  
ENDROOT
BRANCH   2   4
HETATM    4  N   UNL     1     -11.718  14.839  71.834  1.00  0.00    -0.418 NA 
HETATM    5  H   UNL     1     -11.241  14.158  72.424  1.00  0.00     0.000 HD 
BRANCH   4   6
HETATM    6  C   UNL     1     -12.425  14.171  70.732  1.00  0.00    -0.366 C  
BRANCH   6   7
HETATM    7  C   UNL     1     -11.946  14.746  69.391  1.00  0.00    -0.303 C  
HETATM    8  O   UNL     1     -10.709  15.452  69.578  1.00  0.00    -0.234 OA 
HETATM    9  H   UNL     1     -10.413  15.808  68.749  1.00  0.00     0.000 HD 
BRANCH   7  10
HETATM   10  C   UNL     1     -11.759  13.649  68.338  1.00  0.00    -0.358 C  
BRANCH  10  11
HETATM   11  O   UNL     1     -10.481  13.011  68.499  1.00  0.00    -0.249 OA 
BRANCH  11  12
HETATM   12  C   UNL     1     -10.520  11.631  68.487  1.00  0.00    -0.217 A  
HETATM   13  C   UNL     1     -10.982  10.889  69.582  1.00  0.00    -0.311 A  
HETATM   14  C   UNL     1     -11.011   9.500  69.541  1.00  0.00    -0.217 A  
HETATM   15  C   UNL     1     -10.602   8.833  68.393  1.00  0.00    -0.185 A  
HETATM   16  C   UNL     1     -10.172   9.546  67.265  1.00  0.00    -0.295 A  
HETATM   17  C   UNL     1     -10.124  10.964  67.296  1.00  0.00    -0.225 A  
HETATM   18  C   UNL     1      -9.676  11.627  66.129  1.00  0.00    -0.253 A  
HETATM   19  C   UNL     1      -9.304  10.919  64.980  1.00  0.00    -0.260 A  
HETATM   20  C   UNL     1      -9.367   9.529  64.968  1.00  0.00    -0.294 A  
HETATM   21  C   UNL     1      -9.794   8.849  66.106  1.00  0.00    -0.326 A  
ENDBRANCH  11  12
ENDBRANCH  10  11
ENDBRANCH   7  10
ENDBRANCH   6   7
ENDBRANCH   4   6
ENDBRANCH   2   4
TORSDOF 6
ENDMDL
MODEL      103
REMARK 921   NORMALIZED FREE ENERGY PREDICTED BY IDOCK:   -4.56 KCAL/MOL
REMARK 922        TOTAL FREE ENERGY PREDICTED BY IDOCK:   -6.84 KCAL/MOL
REMARK 923 INTER-LIGAND FREE ENERGY PREDICTED BY IDOCK:   -6.14 KCAL/MOL
REMARK 924 INTRA-LIGAND FREE ENERGY PREDICTED BY IDOCK:   -0.70 KCAL/MOL
REMARK 927      BINDING AFFINITY PREDICTED BY RF-SCORE:    0.00 PKD
ROOT
HETATM    1  C   UNL     1     -10.550  15.867  69.887  1.00  0.00    -0.327 C  
HETATM    2  C   UNL     1     -11.184  16.322  68.572  1.00  0.00    -0.359 C  
HETATM    3  C   UNL     1     -10.175  17.150  67.772  1.00  0.00    -0.324 C  
ENDROOT
BRANCH   2   4
HETATM    4  N   UNL     1     -11.612  15.131  67.836  1.00  0.00    -0.334 NA 
HETATM    5  H   UNL     1     -12.333  15.366  67.155  1.00  0.00     0.000 HD 
BRANCH   4   6
HETATM    6  C   UNL     1     -10.502  14.413  67.193  1.00  0.00    -0.263 C  
BRANCH   6   7
HETATM    7  C   UNL     1     -11.063  13.392  66.192  1.00  0.00    -0.288 C  
HETATM    8  O   UNL     1     -10.205  13.317  65.042  1.00  0.00    -0.382 OA 
HETATM    9  H   UNL     1     -10.552  12.686  64.423  1.00  0.00     0.000 HD 
BRANCH   7  10
HETATM   10  C   UNL     1     -11.206  12.002  66.820  1.00  0.00    -0.322 C  
BRANCH  10  11
HETATM   11  O   UNL     1     -11.425  12.112  68.236  1.00  0.00    -0.259 OA 
BRANCH  11  12
HETATM   12  C   UNL     1     -10.691  11.228  69.003  1.00  0.00    -0.217 A  
HETATM   13  C   UNL     1      -9.311  11.058  68.828  1.00  0.00    -0.185 A  
HETATM   14  C   UNL     1      -8.598  10.161  69.615  1.00  0.00    -0.170 A  
HETATM   15  C   UNL     1      -9.251   9.440  70.606  1.00  0.00    -0.303 A  
HETATM   16  C   UNL     1     -10.622   9.615  70.835  1.00  0.00    -0.386 A  
HETATM   17  C   UNL     1     -11.368  10.518  70.031  1.00  0.00    -0.392 A  
HETATM   18  C   UNL     1     -12.749  10.647  70.306  1.00  0.00    -0.277 A  
HETATM   19  C   UNL     1     -13.363   9.926  71.337  1.00  0.00    -0.447 A  
HETATM   20  C   UNL     1     -12.612   9.053  72.119  1.00  0.00    -0.461 A  
HETATM   21  C   UNL     1     -11.252   8.898  71.864  1.00  0.00    -0.447 A  
ENDBRANCH  11  12
ENDBRANCH  10  11
ENDBRANCH   7  10
ENDBRANCH   6   7
ENDBRANCH   4   6
ENDBRANCH   2   4
TORSDOF 6
ENDMDL
MODEL      104
REMARK 921   NORMALIZED FREE ENERGY PREDICTED BY IDOCK:   -4.56 KCAL/MOL
REMARK 922        TOTAL FREE ENERGY PREDICTED BY IDOCK:   -6.84 KCAL/MOL
REMARK 923 INTER-LIGAND FREE ENERGY PREDICTED BY IDOCK:   -6.41 KCAL/MOL
REMARK 924 INTRA-LIGAND FREE ENERGY PREDICTED BY IDOCK:   -0.43 KCAL/MOL
REMARK 927      BINDING AFFINITY PREDICTED BY RF-SCORE:    0.00 PKD
ROOT
HETATM    1  C   UNL     1     -11.838  12.791  65.155  1.00  0.00    -0.428 C  
HETATM    2  C   UNL     1     -10.494  12.185  65.561  1.00  0.00    -0.265 C  
HETATM    3  C   UNL     1     -10.036  11.186  64.496  1.00  0.00    -0.364 C  
ENDROOT
BRANCH   2   4
HETATM    4  N   UNL     1      -9.533  13.278  65.728  1.00  0.00    -0.482 NA 
HETATM    5  H   UNL     1     -10.015  14.171  65.831  1.00  0.00     0.000 HD 
BRANCH   4   6
HETATM    6  C   UNL     1      -8.592  13.062  66.835  1.00  0.00    -0.119 C  
BRANCH   6   7
HETATM    7  C   UNL     1      -9.372  12.714  68.111  1.00  0.00    -0.210 C  
HETATM    8  O   UNL     1      -8.462  12.277  69.133  1.00  0.00    -0.285 OA 
HETATM    9  H   UNL     1      -8.944  12.061  69.923  1.00  0.00     0.000 HD 
BRANCH   7  10
HETATM   10  C   UNL     1     -10.186  13.908  68.622  1.00  0.00    -0.218 C  
BRANCH  10  11
HETATM   11  O   UNL     1     -11.594  13.637  68.513  1.00  0.00    -0.289 OA 
BRANCH  11  12
HETATM   12  C   UNL     1     -12.275  13.633  69.714  1.00  0.00    -0.291 A  
HETATM   13  C   UNL     1     -12.862  14.790  70.242  1.00  0.00    -0.263 A  
HETATM   14  C   UNL     1     -13.542  14.756  71.453  1.00  0.00    -0.493 A  
HETATM   15  C   UNL     1     -13.669  13.556  72.142  1.00  0.00    -0.654 A  
HETATM   16  C   UNL     1     -13.129  12.372  71.622  1.00  0.00    -0.408 A  
HETATM   17  C   UNL     1     -12.419  12.393  70.393  1.00  0.00    -0.214 A  
HETATM   18  C   UNL     1     -11.893  11.166  69.923  1.00  0.00    -0.439 A  
HETATM   19  C   UNL     1     -12.071   9.972  70.631  1.00  0.00    -0.381 A  
HETATM   20  C   UNL     1     -12.777   9.972  71.830  1.00  0.00    -0.526 A  
HETATM   21  C   UNL     1     -13.298  11.166  72.322  1.00  0.00    -0.080 A  
ENDBRANCH  11  12
ENDBRANCH  10  11
ENDBRANCH   7  10
ENDBRANCH   6   7
ENDBRANCH   4   6
ENDBRANCH   2   4
TORSDOF 6
ENDMDL
MODEL      105
REMARK 921   NORMALIZED FREE ENERGY PREDICTED BY IDOCK:   -4.53 KCAL/MOL
REMARK 922        TOTAL FREE ENERGY PREDICTED BY IDOCK:   -6.80 KCAL/MOL
REMARK 923 INTER-LIGAND FREE ENERGY PREDICTED BY IDOCK:   -6.25 KCAL/MOL
REMARK 924 INTRA-LIGAND FREE ENERGY PREDICTED BY IDOCK:   -0.55 KCAL/MOL
REMARK 927      BINDING AFFINITY PREDICTED BY RF-SCORE:    0.00 PKD
ROOT
HETATM    1  C   UNL     1      -7.053  14.948  68.188  1.00  0.00    -0.124 C  
HETATM    2  C   UNL     1      -7.764  15.956  69.092  1.00  0.00    -0.220 C  
HETATM    3  C   UNL     1      -7.423  17.380  68.645  1.00  0.00    -0.263 C  
ENDROOT
BRANCH   2   4
HETATM    4  N   UNL     1      -9.203  15.696  69.020  1.00  0.00    -0.224 NA 
HETATM    5  H   UNL     1      -9.687  16.465  68.556  1.00  0.00     0.000 HD 
BRANCH   4   6
HETATM    6  C   UNL     1      -9.533  14.413  68.385  1.00  0.00    -0.207 C  
BRANCH   6   7
HETATM    7  C   UNL     1     -10.790  13.823  69.040  1.00  0.00    -0.217 C  
HETATM    8  O   UNL     1     -11.077  14.524  70.261  1.00  0.00    -0.445 OA 
HETATM    9  H   UNL     1     -11.855  14.160  70.666  1.00  0.00     0.000 HD 
BRANCH   7  10
HETATM   10  C   UNL     1     -12.003  13.895  68.107  1.00  0.00    -0.350 C  
BRANCH  10  11
HETATM   11  O   UNL     1     -12.236  12.618  67.489  1.00  0.00    -0.389 OA 
BRANCH  11  12
HETATM   12  C   UNL     1     -12.025  12.591  66.125  1.00  0.00    -0.366 A  
HETATM   13  C   UNL     1     -12.623  13.518  65.260  1.00  0.00    -0.517 A  
HETATM   14  C   UNL     1     -12.393  13.467  63.891  1.00  0.00    -0.397 A  
HETATM   15  C   UNL     1     -11.539  12.504  63.368  1.00  0.00    -0.547 A  
HETATM   16  C   UNL     1     -10.893  11.588  64.209  1.00  0.00    -0.421 A  
HETATM   17  C   UNL     1     -11.128  11.618  65.608  1.00  0.00    -0.308 A  
HETATM   18  C   UNL     1     -10.451  10.664  66.403  1.00  0.00    -0.276 A  
HETATM   19  C   UNL     1      -9.572   9.730  65.841  1.00  0.00    -0.313 A  
HETATM   20  C   UNL     1      -9.349   9.724  64.468  1.00  0.00    -0.298 A  
HETATM   21  C   UNL     1     -10.009  10.645  63.659  1.00  0.00    -0.364 A  
ENDBRANCH  11  12
ENDBRANCH  10  11
ENDBRANCH   7  10
ENDBRANCH   6   7
ENDBRANCH   4   6
ENDBRANCH   2   4
TORSDOF 6
ENDMDL
MODEL      106
REMARK 921   NORMALIZED FREE ENERGY PREDICTED BY IDOCK:   -4.53 KCAL/MOL
REMARK 922        TOTAL FREE ENERGY PREDICTED BY IDOCK:   -6.79 KCAL/MOL
REMARK 923 INTER-LIGAND FREE ENERGY PREDICTED BY IDOCK:   -6.07 KCAL/MOL
REMARK 924 INTRA-LIGAND FREE ENERGY PREDICTED BY IDOCK:   -0.72 KCAL/MOL
REMARK 927      BINDING AFFINITY PREDICTED BY RF-SCORE:    0.00 PKD
ROOT
HETATM    1  C   UNL     1     -13.919  14.305  71.713  1.00  0.00    -0.526 C  
HETATM    2  C   UNL     1     -12.694  15.068  71.209  1.00  0.00    -0.348 C  
HETATM    3  C   UNL     1     -12.175  15.997  72.309  1.00  0.00    -0.604 C  
ENDROOT
BRANCH   2   4
HETATM    4  N   UNL     1     -11.682  14.090  70.804  1.00  0.00    -0.514 NA 
HETATM    5  H   UNL     1     -11.119  13.801  71.603  1.00  0.00     0.000 HD 
BRANCH   4   6
HETATM    6  C   UNL     1     -12.245  12.921  70.113  1.00  0.00    -0.266 C  
BRANCH   6   7
HETATM    7  C   UNL     1     -11.309  12.501  68.970  1.00  0.00    -0.290 C  
HETATM    8  O   UNL     1     -11.994  11.598  68.088  1.00  0.00    -0.550 OA 
HETATM    9  H   UNL     1     -11.415  11.337  67.382  1.00  0.00     0.000 HD 
BRANCH   7  10
HETATM   10  C   UNL     1     -10.802  13.710  68.178  1.00  0.00    -0.246 C  
BRANCH  10  11
HETATM   11  O   UNL     1      -9.696  14.328  68.859  1.00  0.00    -0.201 OA 
BRANCH  11  12
HETATM   12  C   UNL     1      -9.614  15.697  68.701  1.00  0.00    -0.202 A  
HETATM   13  C   UNL     1     -10.733  16.479  68.384  1.00  0.00    -0.339 A  
HETATM   14  C   UNL     1     -10.621  17.855  68.232  1.00  0.00    -0.314 A  
HETATM   15  C   UNL     1      -9.392  18.475  68.421  1.00  0.00    -0.359 A  
HETATM   16  C   UNL     1      -8.261  17.728  68.779  1.00  0.00    -0.229 A  
HETATM   17  C   UNL     1      -8.356  16.319  68.925  1.00  0.00    -0.231 A  
HETATM   18  C   UNL     1      -7.179  15.620  69.282  1.00  0.00    -0.198 A  
HETATM   19  C   UNL     1      -5.966  16.285  69.496  1.00  0.00    -0.167 A  
HETATM   20  C   UNL     1      -5.897  17.668  69.356  1.00  0.00    -0.227 A  
HETATM   21  C   UNL     1      -7.037  18.381  68.995  1.00  0.00    -0.262 A  
ENDBRANCH  11  12
ENDBRANCH  10  11
ENDBRANCH   7  10
ENDBRANCH   6   7
ENDBRANCH   4   6
ENDBRANCH   2   4
TORSDOF 6
ENDMDL
MODEL      107
REMARK 921   NORMALIZED FREE ENERGY PREDICTED BY IDOCK:   -4.53 KCAL/MOL
REMARK 922        TOTAL FREE ENERGY PREDICTED BY IDOCK:   -6.79 KCAL/MOL
REMARK 923 INTER-LIGAND FREE ENERGY PREDICTED BY IDOCK:   -6.31 KCAL/MOL
REMARK 924 INTRA-LIGAND FREE ENERGY PREDICTED BY IDOCK:   -0.48 KCAL/MOL
REMARK 927      BINDING AFFINITY PREDICTED BY RF-SCORE:    0.00 PKD
ROOT
HETATM    1  C   UNL     1     -12.488  12.514  63.476  1.00  0.00    -0.561 C  
HETATM    2  C   UNL     1     -11.901  13.587  64.394  1.00  0.00    -0.414 C  
HETATM    3  C   UNL     1     -12.738  13.687  65.672  1.00  0.00    -0.505 C  
ENDROOT
BRANCH   2   4
HETATM    4  N   UNL     1     -10.511  13.228  64.683  1.00  0.00    -0.404 NA 
HETATM    5  H   UNL     1     -10.146  13.788  65.453  1.00  0.00     0.000 HD 
BRANCH   4   6
HETATM    6  C   UNL     1     -10.322  11.795  64.945  1.00  0.00    -0.289 C  
BRANCH   6   7
HETATM    7  C   UNL     1      -9.401  11.612  66.160  1.00  0.00    -0.224 C  
HETATM    8  O   UNL     1      -9.427  12.796  66.973  1.00  0.00    -0.218 OA 
HETATM    9  H   UNL     1      -8.857  12.683  67.724  1.00  0.00     0.000 HD 
BRANCH   7  10
HETATM   10  C   UNL     1      -9.807  10.398  67.002  1.00  0.00    -0.191 C  
BRANCH  10  11
HETATM   11  O   UNL     1      -9.467  10.610  68.383  1.00  0.00    -0.153 OA 
BRANCH  11  12
HETATM   12  C   UNL     1      -9.962   9.658  69.251  1.00  0.00    -0.191 A  
HETATM   13  C   UNL     1      -9.411   8.373  69.340  1.00  0.00    -0.154 A  
HETATM   14  C   UNL     1      -9.929   7.434  70.224  1.00  0.00    -0.188 A  
HETATM   15  C   UNL     1     -10.991   7.776  71.052  1.00  0.00    -0.260 A  
HETATM   16  C   UNL     1     -11.539   9.065  71.018  1.00  0.00    -0.360 A  
HETATM   17  C   UNL     1     -11.030  10.031  70.111  1.00  0.00    -0.368 A  
HETATM   18  C   UNL     1     -11.629  11.313  70.120  1.00  0.00    -0.393 A  
HETATM   19  C   UNL     1     -12.676  11.628  70.994  1.00  0.00    -0.395 A  
HETATM   20  C   UNL     1     -13.154  10.669  71.881  1.00  0.00    -0.563 A  
HETATM   21  C   UNL     1     -12.591   9.396  71.888  1.00  0.00    -0.481 A  
ENDBRANCH  11  12
ENDBRANCH  10  11
ENDBRANCH   7  10
ENDBRANCH   6   7
ENDBRANCH   4   6
ENDBRANCH   2   4
TORSDOF 6
ENDMDL
MODEL      108
REMARK 921   NORMALIZED FREE ENERGY PREDICTED BY IDOCK:   -4.52 KCAL/MOL
REMARK 922        TOTAL FREE ENERGY PREDICTED BY IDOCK:   -6.78 KCAL/MOL
REMARK 923 INTER-LIGAND FREE ENERGY PREDICTED BY IDOCK:   -6.32 KCAL/MOL
REMARK 924 INTRA-LIGAND FREE ENERGY PREDICTED BY IDOCK:   -0.46 KCAL/MOL
REMARK 927      BINDING AFFINITY PREDICTED BY RF-SCORE:    0.00 PKD
ROOT
HETATM    1  C   UNL     1      -6.429  18.769  65.998  1.00  0.00    -0.257 C  
HETATM    2  C   UNL     1      -6.288  20.011  66.880  1.00  0.00    -0.188 C  
HETATM    3  C   UNL     1      -5.870  21.208  66.023  1.00  0.00    -0.297 C  
ENDROOT
BRANCH   2   4
HETATM    4  N   UNL     1      -7.571  20.243  67.546  1.00  0.00    -0.296 NA 
HETATM    5  H   UNL     1      -7.690  21.232  67.766  1.00  0.00     0.000 HD 
BRANCH   4   6
HETATM    6  C   UNL     1      -8.723  19.735  66.788  1.00  0.00    -0.339 C  
BRANCH   6   7
HETATM    7  C   UNL     1      -9.700  19.037  67.744  1.00  0.00    -0.325 C  
HETATM    8  O   UNL     1     -11.051  19.380  67.396  1.00  0.00    -0.445 OA 
HETATM    9  H   UNL     1     -11.655  18.948  67.988  1.00  0.00     0.000 HD 
BRANCH   7  10
HETATM   10  C   UNL     1      -9.531  17.514  67.717  1.00  0.00    -0.269 C  
BRANCH  10  11
HETATM   11  O   UNL     1     -10.814  16.867  67.719  1.00  0.00    -0.345 OA 
BRANCH  11  12
HETATM   12  C   UNL     1     -10.874  15.703  66.979  1.00  0.00    -0.294 A  
HETATM   13  C   UNL     1     -10.561  15.671  65.613  1.00  0.00    -0.393 A  
HETATM   14  C   UNL     1     -10.628  14.485  64.894  1.00  0.00    -0.450 A  
HETATM   15  C   UNL     1     -10.986  13.305  65.536  1.00  0.00    -0.297 A  
HETATM   16  C   UNL     1     -11.266  13.294  66.909  1.00  0.00    -0.332 A  
HETATM   17  C   UNL     1     -11.214  14.501  67.655  1.00  0.00    -0.335 A  
HETATM   18  C   UNL     1     -11.513  14.426  69.036  1.00  0.00    -0.314 A  
HETATM   19  C   UNL     1     -11.837  13.211  69.653  1.00  0.00    -0.390 A  
HETATM   20  C   UNL     1     -11.874  12.039  68.904  1.00  0.00    -0.356 A  
HETATM   21  C   UNL     1     -11.594  12.084  67.541  1.00  0.00    -0.401 A  
ENDBRANCH  11  12
ENDBRANCH  10  11
ENDBRANCH   7  10
ENDBRANCH   6   7
ENDBRANCH   4   6
ENDBRANCH   2   4
TORSDOF 6
ENDMDL
MODEL      109
REMARK 921   NORMALIZED FREE ENERGY PREDICTED BY IDOCK:   -4.51 KCAL/MOL
REMARK 922        TOTAL FREE ENERGY PREDICTED BY IDOCK:   -6.77 KCAL/MOL
REMARK 923 INTER-LIGAND FREE ENERGY PREDICTED BY IDOCK:   -6.38 KCAL/MOL
REMARK 924 INTRA-LIGAND FREE ENERGY PREDICTED BY IDOCK:   -0.40 KCAL/MOL
REMARK 927      BINDING AFFINITY PREDICTED BY RF-SCORE:    0.00 PKD
ROOT
HETATM    1  C   UNL     1      -9.471  10.380  63.171  1.00  0.00    -0.362 C  
HETATM    2  C   UNL     1     -10.036  11.673  63.760  1.00  0.00    -0.349 C  
HETATM    3  C   UNL     1     -11.536  11.760  63.470  1.00  0.00    -0.487 C  
ENDROOT
BRANCH   2   4
HETATM    4  N   UNL     1      -9.760  11.677  65.198  1.00  0.00    -0.269 NA 
HETATM    5  H   UNL     1     -10.451  12.238  65.697  1.00  0.00     0.000 HD 
BRANCH   4   6
HETATM    6  C   UNL     1      -9.665  10.330  65.777  1.00  0.00    -0.238 C  
BRANCH   6   7
HETATM    7  C   UNL     1     -10.905  10.053  66.639  1.00  0.00     0.012 C  
HETATM    8  O   UNL     1     -10.833   8.726  67.183  1.00  0.00    -0.382 OA 
HETATM    9  H   UNL     1     -11.600   8.554  67.716  1.00  0.00     0.000 HD 
BRANCH   7  10
HETATM   10  C   UNL     1     -11.044  11.070  67.778  1.00  0.00    -0.295 C  
BRANCH  10  11
HETATM   11  O   UNL     1     -12.036  12.057  67.450  1.00  0.00    -0.583 OA 
BRANCH  11  12
HETATM   12  C   UNL     1     -11.633  13.364  67.638  1.00  0.00    -0.340 A  
HETATM   13  C   UNL     1     -11.067  14.125  66.606  1.00  0.00    -0.314 A  
HETATM   14  C   UNL     1     -10.671  15.439  66.823  1.00  0.00    -0.310 A  
HETATM   15  C   UNL     1     -10.859  16.021  68.071  1.00  0.00    -0.335 A  
HETATM   16  C   UNL     1     -11.458  15.301  69.113  1.00  0.00    -0.330 A  
HETATM   17  C   UNL     1     -11.856  13.954  68.911  1.00  0.00    -0.393 A  
HETATM   18  C   UNL     1     -12.450  13.279  70.003  1.00  0.00    -0.166 A  
HETATM   19  C   UNL     1     -12.652  13.911  71.236  1.00  0.00    -0.450 A  
HETATM   20  C   UNL     1     -12.263  15.236  71.410  1.00  0.00    -0.414 A  
HETATM   21  C   UNL     1     -11.666  15.922  70.356  1.00  0.00    -0.371 A  
ENDBRANCH  11  12
ENDBRANCH  10  11
ENDBRANCH   7  10
ENDBRANCH   6   7
ENDBRANCH   4   6
ENDBRANCH   2   4
TORSDOF 6
ENDMDL
MODEL      110
REMARK 921   NORMALIZED FREE ENERGY PREDICTED BY IDOCK:   -4.50 KCAL/MOL
REMARK 922        TOTAL FREE ENERGY PREDICTED BY IDOCK:   -6.75 KCAL/MOL
REMARK 923 INTER-LIGAND FREE ENERGY PREDICTED BY IDOCK:   -6.33 KCAL/MOL
REMARK 924 INTRA-LIGAND FREE ENERGY PREDICTED BY IDOCK:   -0.42 KCAL/MOL
REMARK 927      BINDING AFFINITY PREDICTED BY RF-SCORE:    0.00 PKD
ROOT
HETATM    1  C   UNL     1     -10.480   7.113  70.164  1.00  0.00    -0.231 C  
HETATM    2  C   UNL     1     -10.973   8.559  70.217  1.00  0.00    -0.235 C  
HETATM    3  C   UNL     1     -11.726   8.799  71.528  1.00  0.00    -0.377 C  
ENDROOT
BRANCH   2   4
HETATM    4  N   UNL     1      -9.812   9.441  70.090  1.00  0.00    -0.216 NA 
HETATM    5  H   UNL     1      -8.965   8.901  69.911  1.00  0.00     0.000 HD 
BRANCH   4   6
HETATM    6  C   UNL     1      -9.985  10.491  69.077  1.00  0.00    -0.211 C  
BRANCH   6   7
HETATM    7  C   UNL     1     -10.941   9.995  67.982  1.00  0.00    -0.240 C  
HETATM    8  O   UNL     1     -12.138  10.790  67.984  1.00  0.00    -0.778 OA 
HETATM    9  H   UNL     1     -12.729  10.483  67.307  1.00  0.00     0.000 HD 
BRANCH   7  10
HETATM   10  C   UNL     1     -10.291  10.045  66.596  1.00  0.00    -0.213 C  
BRANCH  10  11
HETATM   11  O   UNL     1      -9.759  11.356  66.338  1.00  0.00    -0.195 OA 
BRANCH  11  12
HETATM   12  C   UNL     1     -10.505  12.118  65.461  1.00  0.00    -0.265 A  
HETATM   13  C   UNL     1     -11.389  11.542  64.539  1.00  0.00    -0.250 A  
HETATM   14  C   UNL     1     -12.127  12.333  63.668  1.00  0.00    -0.648 A  
HETATM   15  C   UNL     1     -12.012  13.717  63.724  1.00  0.00    -0.425 A  
HETATM   16  C   UNL     1     -11.168  14.327  64.661  1.00  0.00    -0.370 A  
HETATM   17  C   UNL     1     -10.397  13.532  65.549  1.00  0.00    -0.309 A  
HETATM   18  C   UNL     1      -9.559  14.207  66.468  1.00  0.00    -0.310 A  
HETATM   19  C   UNL     1      -9.496  15.605  66.515  1.00  0.00    -0.300 A  
HETATM   20  C   UNL     1     -10.267  16.365  65.642  1.00  0.00    -0.349 A  
HETATM   21  C   UNL     1     -11.093  15.729  64.719  1.00  0.00    -0.413 A  
ENDBRANCH  11  12
ENDBRANCH  10  11
ENDBRANCH   7  10
ENDBRANCH   6   7
ENDBRANCH   4   6
ENDBRANCH   2   4
TORSDOF 6
ENDMDL
MODEL      111
REMARK 921   NORMALIZED FREE ENERGY PREDICTED BY IDOCK:   -4.50 KCAL/MOL
REMARK 922        TOTAL FREE ENERGY PREDICTED BY IDOCK:   -6.75 KCAL/MOL
REMARK 923 INTER-LIGAND FREE ENERGY PREDICTED BY IDOCK:   -6.10 KCAL/MOL
REMARK 924 INTRA-LIGAND FREE ENERGY PREDICTED BY IDOCK:   -0.65 KCAL/MOL
REMARK 927      BINDING AFFINITY PREDICTED BY RF-SCORE:    0.00 PKD
ROOT
HETATM    1  C   UNL     1     -11.977  13.784  68.485  1.00  0.00    -0.402 C  
HETATM    2  C   UNL     1     -11.040  14.392  67.441  1.00  0.00    -0.308 C  
HETATM    3  C   UNL     1      -9.610  14.422  67.987  1.00  0.00    -0.216 C  
ENDROOT
BRANCH   2   4
HETATM    4  N   UNL     1     -11.137  13.591  66.220  1.00  0.00    -0.299 NA 
HETATM    5  H   UNL     1     -10.985  12.603  66.422  1.00  0.00     0.000 HD 
BRANCH   4   6
HETATM    6  C   UNL     1     -12.399  13.787  65.493  1.00  0.00    -0.475 C  
BRANCH   6   7
HETATM    7  C   UNL     1     -12.276  13.192  64.083  1.00  0.00    -0.398 C  
HETATM    8  O   UNL     1     -12.502  14.216  63.101  1.00  0.00    -1.126 OA 
HETATM    9  H   UNL     1     -12.427  13.848  62.229  1.00  0.00     0.000 HD 
BRANCH   7  10
HETATM   10  C   UNL     1     -10.903  12.552  63.853  1.00  0.00    -0.431 C  
BRANCH  10  11
HETATM   11  O   UNL     1     -10.908  11.184  64.297  1.00  0.00    -0.361 OA 
BRANCH  11  12
HETATM   12  C   UNL     1      -9.765  10.474  63.988  1.00  0.00    -0.323 A  
HETATM   13  C   UNL     1      -9.005  10.746  62.843  1.00  0.00    -0.284 A  
HETATM   14  C   UNL     1      -7.858  10.016  62.558  1.00  0.00    -0.139 A  
HETATM   15  C   UNL     1      -7.438   9.019  63.429  1.00  0.00    -0.099 A  
HETATM   16  C   UNL     1      -8.152   8.748  64.604  1.00  0.00    -0.157 A  
HETATM   17  C   UNL     1      -9.334   9.476  64.903  1.00  0.00    -0.264 A  
HETATM   18  C   UNL     1     -10.013   9.153  66.101  1.00  0.00    -0.338 A  
HETATM   19  C   UNL     1      -9.539   8.162  66.970  1.00  0.00    -0.253 A  
HETATM   20  C   UNL     1      -8.374   7.467  66.662  1.00  0.00    -0.124 A  
HETATM   21  C   UNL     1      -7.689   7.756  65.485  1.00  0.00    -0.100 A  
ENDBRANCH  11  12
ENDBRANCH  10  11
ENDBRANCH   7  10
ENDBRANCH   6   7
ENDBRANCH   4   6
ENDBRANCH   2   4
TORSDOF 6
ENDMDL
MODEL      112
REMARK 921   NORMALIZED FREE ENERGY PREDICTED BY IDOCK:   -4.49 KCAL/MOL
REMARK 922        TOTAL FREE ENERGY PREDICTED BY IDOCK:   -6.75 KCAL/MOL
REMARK 923 INTER-LIGAND FREE ENERGY PREDICTED BY IDOCK:   -6.21 KCAL/MOL
REMARK 924 INTRA-LIGAND FREE ENERGY PREDICTED BY IDOCK:   -0.54 KCAL/MOL
REMARK 927      BINDING AFFINITY PREDICTED BY RF-SCORE:    0.00 PKD
ROOT
HETATM    1  C   UNL     1     -11.049   6.371  67.107  1.00  0.00    -0.422 C  
HETATM    2  C   UNL     1      -9.788   5.696  66.567  1.00  0.00    -0.168 C  
HETATM    3  C   UNL     1     -10.177   4.503  65.690  1.00  0.00    -0.275 C  
ENDROOT
BRANCH   2   4
HETATM    4  N   UNL     1      -9.023   6.693  65.816  1.00  0.00    -0.333 NA 
HETATM    5  H   UNL     1      -9.617   7.169  65.138  1.00  0.00     0.000 HD 
BRANCH   4   6
HETATM    6  C   UNL     1      -8.331   7.664  66.675  1.00  0.00    -0.127 C  
BRANCH   6   7
HETATM    7  C   UNL     1      -8.547   9.082  66.125  1.00  0.00    -0.135 C  
HETATM    8  O   UNL     1      -9.342   9.024  64.930  1.00  0.00    -0.446 OA 
HETATM    9  H   UNL     1      -9.475   9.901  64.590  1.00  0.00     0.000 HD 
BRANCH   7  10
HETATM   10  C   UNL     1      -9.226   9.992  67.153  1.00  0.00    -0.141 C  
BRANCH  10  11
HETATM   11  O   UNL     1     -10.623  10.137  66.849  1.00  0.00    -0.238 OA 
BRANCH  11  12
HETATM   12  C   UNL     1     -11.116  11.418  67.000  1.00  0.00    -0.303 A  
HETATM   13  C   UNL     1     -11.219  12.033  68.255  1.00  0.00    -0.315 A  
HETATM   14  C   UNL     1     -11.718  13.324  68.377  1.00  0.00    -0.389 A  
HETATM   15  C   UNL     1     -12.099  14.029  67.242  1.00  0.00    -0.405 A  
HETATM   16  C   UNL     1     -11.971  13.459  65.969  1.00  0.00    -0.460 A  
HETATM   17  C   UNL     1     -11.475  12.136  65.828  1.00  0.00    -0.414 A  
HETATM   18  C   UNL     1     -11.375  11.614  64.517  1.00  0.00    -0.310 A  
HETATM   19  C   UNL     1     -11.738  12.369  63.395  1.00  0.00    -0.554 A  
HETATM   20  C   UNL     1     -12.214  13.667  63.556  1.00  0.00    -0.329 A  
HETATM   21  C   UNL     1     -12.333  14.204  64.835  1.00  0.00    -0.446 A  
ENDBRANCH  11  12
ENDBRANCH  10  11
ENDBRANCH   7  10
ENDBRANCH   6   7
ENDBRANCH   4   6
ENDBRANCH   2   4
TORSDOF 6
ENDMDL
MODEL      113
REMARK 921   NORMALIZED FREE ENERGY PREDICTED BY IDOCK:   -4.49 KCAL/MOL
REMARK 922        TOTAL FREE ENERGY PREDICTED BY IDOCK:   -6.74 KCAL/MOL
REMARK 923 INTER-LIGAND FREE ENERGY PREDICTED BY IDOCK:   -6.69 KCAL/MOL
REMARK 924 INTRA-LIGAND FREE ENERGY PREDICTED BY IDOCK:   -0.05 KCAL/MOL
REMARK 927      BINDING AFFINITY PREDICTED BY RF-SCORE:    0.00 PKD
ROOT
HETATM    1  C   UNL     1      -9.967  16.494  65.801  1.00  0.00    -0.302 C  
HETATM    2  C   UNL     1     -10.029  17.687  66.756  1.00  0.00    -0.320 C  
HETATM    3  C   UNL     1     -10.491  18.932  65.997  1.00  0.00    -0.507 C  
ENDROOT
BRANCH   2   4
HETATM    4  N   UNL     1     -10.942  17.348  67.849  1.00  0.00    -0.261 NA 
HETATM    5  H   UNL     1     -11.490  16.519  67.619  1.00  0.00     0.000 HD 
BRANCH   4   6
HETATM    6  C   UNL     1     -10.266  17.183  69.143  1.00  0.00    -0.284 C  
BRANCH   6   7
HETATM    7  C   UNL     1     -10.271  15.700  69.541  1.00  0.00    -0.277 C  
HETATM    8  O   UNL     1      -8.933  15.272  69.837  1.00  0.00    -0.409 OA 
HETATM    9  H   UNL     1      -8.936  14.354  70.083  1.00  0.00     0.000 HD 
BRANCH   7  10
HETATM   10  C   UNL     1     -11.176  15.439  70.749  1.00  0.00    -0.346 C  
BRANCH  10  11
HETATM   11  O   UNL     1     -12.404  14.820  70.331  1.00  0.00    -0.306 OA 
BRANCH  11  12
HETATM   12  C   UNL     1     -12.495  13.471  70.611  1.00  0.00    -0.333 A  
HETATM   13  C   UNL     1     -13.107  12.992  71.778  1.00  0.00    -0.469 A  
HETATM   14  C   UNL     1     -13.184  11.629  72.034  1.00  0.00    -0.443 A  
HETATM   15  C   UNL     1     -12.673  10.721  71.114  1.00  0.00    -0.532 A  
HETATM   16  C   UNL     1     -12.091  11.165  69.919  1.00  0.00    -0.418 A  
HETATM   17  C   UNL     1     -11.992  12.555  69.648  1.00  0.00    -0.339 A  
HETATM   18  C   UNL     1     -11.390  12.940  68.428  1.00  0.00    -0.329 A  
HETATM   19  C   UNL     1     -10.916  11.993  67.511  1.00  0.00    -0.303 A  
HETATM   20  C   UNL     1     -11.031  10.635  67.793  1.00  0.00    -0.364 A  
HETATM   21  C   UNL     1     -11.611  10.227  68.991  1.00  0.00    -0.148 A  
ENDBRANCH  11  12
ENDBRANCH  10  11
ENDBRANCH   7  10
ENDBRANCH   6   7
ENDBRANCH   4   6
ENDBRANCH   2   4
TORSDOF 6
ENDMDL
MODEL      114
REMARK 921   NORMALIZED FREE ENERGY PREDICTED BY IDOCK:   -4.47 KCAL/MOL
REMARK 922        TOTAL FREE ENERGY PREDICTED BY IDOCK:   -6.71 KCAL/MOL
REMARK 923 INTER-LIGAND FREE ENERGY PREDICTED BY IDOCK:   -6.38 KCAL/MOL
REMARK 924 INTRA-LIGAND FREE ENERGY PREDICTED BY IDOCK:   -0.33 KCAL/MOL
REMARK 927      BINDING AFFINITY PREDICTED BY RF-SCORE:    0.00 PKD
ROOT
HETATM    1  C   UNL     1     -10.548  19.603  66.074  1.00  0.00    -0.584 C  
HETATM    2  C   UNL     1     -10.016  18.189  66.308  1.00  0.00    -0.342 C  
HETATM    3  C   UNL     1      -8.502  18.236  66.526  1.00  0.00    -0.287 C  
ENDROOT
BRANCH   2   4
HETATM    4  N   UNL     1     -10.713  17.626  67.467  1.00  0.00    -0.335 NA 
HETATM    5  H   UNL     1     -11.616  18.080  67.601  1.00  0.00     0.000 HD 
BRANCH   4   6
HETATM    6  C   UNL     1     -10.865  16.167  67.404  1.00  0.00    -0.265 C  
BRANCH   6   7
HETATM    7  C   UNL     1     -11.172  15.621  68.806  1.00  0.00    -0.332 C  
HETATM    8  O   UNL     1     -12.587  15.670  69.048  1.00  0.00    -0.538 OA 
HETATM    9  H   UNL     1     -12.777  15.333  69.916  1.00  0.00     0.000 HD 
BRANCH   7  10
HETATM   10  C   UNL     1     -10.669  14.184  68.978  1.00  0.00    -0.231 C  
BRANCH  10  11
HETATM   11  O   UNL     1     -11.709  13.246  68.650  1.00  0.00    -0.299 OA 
BRANCH  11  12
HETATM   12  C   UNL     1     -11.904  12.251  69.587  1.00  0.00    -0.324 A  
HETATM   13  C   UNL     1     -12.658  12.459  70.750  1.00  0.00    -0.298 A  
HETATM   14  C   UNL     1     -12.838  11.438  71.675  1.00  0.00    -0.497 A  
HETATM   15  C   UNL     1     -12.288  10.185  71.438  1.00  0.00    -0.515 A  
HETATM   16  C   UNL     1     -11.563   9.931  70.266  1.00  0.00    -0.319 A  
HETATM   17  C   UNL     1     -11.358  10.967  69.317  1.00  0.00    -0.345 A  
HETATM   18  C   UNL     1     -10.614  10.650  68.157  1.00  0.00    -0.237 A  
HETATM   19  C   UNL     1     -10.104   9.364  67.940  1.00  0.00    -0.239 A  
HETATM   20  C   UNL     1     -10.323   8.361  68.879  1.00  0.00    -0.231 A  
HETATM   21  C   UNL     1     -11.045   8.646  70.035  1.00  0.00    -0.161 A  
ENDBRANCH  11  12
ENDBRANCH  10  11
ENDBRANCH   7  10
ENDBRANCH   6   7
ENDBRANCH   4   6
ENDBRANCH   2   4
TORSDOF 6
ENDMDL
MODEL      115
REMARK 921   NORMALIZED FREE ENERGY PREDICTED BY IDOCK:   -4.47 KCAL/MOL
REMARK 922        TOTAL FREE ENERGY PREDICTED BY IDOCK:   -6.71 KCAL/MOL
REMARK 923 INTER-LIGAND FREE ENERGY PREDICTED BY IDOCK:   -6.06 KCAL/MOL
REMARK 924 INTRA-LIGAND FREE ENERGY PREDICTED BY IDOCK:   -0.65 KCAL/MOL
REMARK 927      BINDING AFFINITY PREDICTED BY RF-SCORE:    0.00 PKD
ROOT
HETATM    1  C   UNL     1     -10.939  10.622  67.752  1.00  0.00    -0.364 C  
HETATM    2  C   UNL     1     -10.059  11.071  66.585  1.00  0.00    -0.220 C  
HETATM    3  C   UNL     1     -10.090  10.013  65.479  1.00  0.00    -0.325 C  
ENDROOT
BRANCH   2   4
HETATM    4  N   UNL     1     -10.555  12.365  66.112  1.00  0.00    -0.249 NA 
HETATM    5  H   UNL     1      -9.783  13.013  65.958  1.00  0.00     0.000 HD 
BRANCH   4   6
HETATM    6  C   UNL     1     -11.397  12.263  64.913  1.00  0.00    -0.325 C  
BRANCH   6   7
HETATM    7  C   UNL     1     -11.321  13.575  64.119  1.00  0.00    -0.340 C  
HETATM    8  O   UNL     1     -12.450  13.677  63.237  1.00  0.00    -0.992 OA 
HETATM    9  H   UNL     1     -12.402  14.488  62.745  1.00  0.00     0.000 HD 
BRANCH   7  10
HETATM   10  C   UNL     1     -11.277  14.797  65.043  1.00  0.00    -0.395 C  
BRANCH  10  11
HETATM   11  O   UNL     1      -9.940  15.320  65.119  1.00  0.00    -0.318 OA 
BRANCH  11  12
HETATM   12  C   UNL     1      -9.806  16.448  65.904  1.00  0.00    -0.315 A  
HETATM   13  C   UNL     1     -10.619  17.576  65.731  1.00  0.00    -0.176 A  
HETATM   14  C   UNL     1     -10.462  18.698  66.536  1.00  0.00    -0.465 A  
HETATM   15  C   UNL     1      -9.507  18.697  67.545  1.00  0.00    -0.311 A  
HETATM   16  C   UNL     1      -8.706  17.570  67.772  1.00  0.00    -0.230 A  
HETATM   17  C   UNL     1      -8.844  16.422  66.949  1.00  0.00    -0.232 A  
HETATM   18  C   UNL     1      -8.003  15.318  67.224  1.00  0.00    -0.231 A  
HETATM   19  C   UNL     1      -7.075  15.345  68.272  1.00  0.00    -0.117 A  
HETATM   20  C   UNL     1      -6.962  16.478  69.072  1.00  0.00    -0.208 A  
HETATM   21  C   UNL     1      -7.770  17.583  68.819  1.00  0.00    -0.252 A  
ENDBRANCH  11  12
ENDBRANCH  10  11
ENDBRANCH   7  10
ENDBRANCH   6   7
ENDBRANCH   4   6
ENDBRANCH   2   4
TORSDOF 6
ENDMDL
MODEL      116
REMARK 921   NORMALIZED FREE ENERGY PREDICTED BY IDOCK:   -4.44 KCAL/MOL
REMARK 922        TOTAL FREE ENERGY PREDICTED BY IDOCK:   -6.68 KCAL/MOL
REMARK 923 INTER-LIGAND FREE ENERGY PREDICTED BY IDOCK:   -6.29 KCAL/MOL
REMARK 924 INTRA-LIGAND FREE ENERGY PREDICTED BY IDOCK:   -0.39 KCAL/MOL
REMARK 927      BINDING AFFINITY PREDICTED BY RF-SCORE:    0.00 PKD
ROOT
HETATM    1  C   UNL     1     -13.118  14.516  71.053  1.00  0.00    -0.429 C  
HETATM    2  C   UNL     1     -12.260  14.297  69.807  1.00  0.00    -0.339 C  
HETATM    3  C   UNL     1     -11.236  15.427  69.680  1.00  0.00    -0.289 C  
ENDROOT
BRANCH   2   4
HETATM    4  N   UNL     1     -11.613  12.989  69.923  1.00  0.00    -0.507 NA 
HETATM    5  H   UNL     1     -10.647  13.090  70.234  1.00  0.00     0.000 HD 
BRANCH   4   6
HETATM    6  C   UNL     1     -12.344  12.052  70.786  1.00  0.00    -0.308 C  
BRANCH   6   7
HETATM    7  C   UNL     1     -12.410  10.675  70.109  1.00  0.00    -0.295 C  
HETATM    8  O   UNL     1     -12.326  10.829  68.684  1.00  0.00    -0.825 OA 
HETATM    9  H   UNL     1     -12.367   9.978  68.265  1.00  0.00     0.000 HD 
BRANCH   7  10
HETATM   10  C   UNL     1     -11.290   9.749  70.595  1.00  0.00    -0.330 C  
BRANCH  10  11
HETATM   11  O   UNL     1     -11.813   8.444  70.896  1.00  0.00    -0.283 OA 
BRANCH  11  12
HETATM   12  C   UNL     1     -11.109   7.397  70.336  1.00  0.00    -0.265 A  
HETATM   13  C   UNL     1     -10.532   7.485  69.062  1.00  0.00    -0.216 A  
HETATM   14  C   UNL     1      -9.828   6.415  68.523  1.00  0.00    -0.145 A  
HETATM   15  C   UNL     1      -9.666   5.250  69.262  1.00  0.00    -0.235 A  
HETATM   16  C   UNL     1     -10.195   5.144  70.556  1.00  0.00    -0.330 A  
HETATM   17  C   UNL     1     -10.929   6.223  71.115  1.00  0.00    -0.336 A  
HETATM   18  C   UNL     1     -11.442   6.053  72.422  1.00  0.00    -0.357 A  
HETATM   19  C   UNL     1     -11.230   4.875  73.148  1.00  0.00    -0.403 A  
HETATM   20  C   UNL     1     -10.500   3.833  72.584  1.00  0.00    -0.194 A  
HETATM   21  C   UNL     1      -9.991   3.968  71.295  1.00  0.00    -0.202 A  
ENDBRANCH  11  12
ENDBRANCH  10  11
ENDBRANCH   7  10
ENDBRANCH   6   7
ENDBRANCH   4   6
ENDBRANCH   2   4
TORSDOF 6
ENDMDL
MODEL      117
REMARK 921   NORMALIZED FREE ENERGY PREDICTED BY IDOCK:   -4.44 KCAL/MOL
REMARK 922        TOTAL FREE ENERGY PREDICTED BY IDOCK:   -6.67 KCAL/MOL
REMARK 923 INTER-LIGAND FREE ENERGY PREDICTED BY IDOCK:   -5.98 KCAL/MOL
REMARK 924 INTRA-LIGAND FREE ENERGY PREDICTED BY IDOCK:   -0.69 KCAL/MOL
REMARK 927      BINDING AFFINITY PREDICTED BY RF-SCORE:    0.00 PKD
ROOT
HETATM    1  C   UNL     1     -11.866  12.696  66.712  1.00  0.00    -0.440 C  
HETATM    2  C   UNL     1     -11.058  11.677  65.908  1.00  0.00    -0.264 C  
HETATM    3  C   UNL     1     -11.261  11.923  64.411  1.00  0.00    -0.401 C  
ENDROOT
BRANCH   2   4
HETATM    4  N   UNL     1      -9.651  11.807  66.292  1.00  0.00    -0.220 NA 
HETATM    5  H   UNL     1      -9.185  12.515  65.725  1.00  0.00     0.000 HD 
BRANCH   4   6
HETATM    6  C   UNL     1      -9.460  12.076  67.724  1.00  0.00    -0.190 C  
BRANCH   6   7
HETATM    7  C   UNL     1      -8.692  10.912  68.367  1.00  0.00    -0.147 C  
HETATM    8  O   UNL     1      -7.523  11.411  69.035  1.00  0.00    -0.119 OA 
HETATM    9  H   UNL     1      -7.047  10.691  69.433  1.00  0.00     0.000 HD 
BRANCH   7  10
HETATM   10  C   UNL     1      -9.563  10.137  69.361  1.00  0.00    -0.232 C  
BRANCH  10  11
HETATM   11  O   UNL     1     -10.956  10.397  69.116  1.00  0.00    -0.214 OA 
BRANCH  11  12
HETATM   12  C   UNL     1     -11.757  10.351  70.239  1.00  0.00    -0.321 A  
HETATM   13  C   UNL     1     -12.033   9.152  70.909  1.00  0.00    -0.299 A  
HETATM   14  C   UNL     1     -12.843   9.136  72.038  1.00  0.00    -0.483 A  
HETATM   15  C   UNL     1     -13.369  10.325  72.529  1.00  0.00     0.082 A  
HETATM   16  C   UNL     1     -13.081  11.546  71.906  1.00  0.00    -0.492 A  
HETATM   17  C   UNL     1     -12.266  11.578  70.744  1.00  0.00    -0.463 A  
HETATM   18  C   UNL     1     -12.016  12.841  70.158  1.00  0.00    -0.371 A  
HETATM   19  C   UNL     1     -12.538  14.020  70.703  1.00  0.00    -0.414 A  
HETATM   20  C   UNL     1     -13.327  13.967  71.848  1.00  0.00    -0.489 A  
HETATM   21  C   UNL     1     -13.599  12.737  72.441  1.00  0.00    -0.507 A  
ENDBRANCH  11  12
ENDBRANCH  10  11
ENDBRANCH   7  10
ENDBRANCH   6   7
ENDBRANCH   4   6
ENDBRANCH   2   4
TORSDOF 6
ENDMDL
MODEL      118
REMARK 921   NORMALIZED FREE ENERGY PREDICTED BY IDOCK:   -4.44 KCAL/MOL
REMARK 922        TOTAL FREE ENERGY PREDICTED BY IDOCK:   -6.67 KCAL/MOL
REMARK 923 INTER-LIGAND FREE ENERGY PREDICTED BY IDOCK:   -6.59 KCAL/MOL
REMARK 924 INTRA-LIGAND FREE ENERGY PREDICTED BY IDOCK:   -0.08 KCAL/MOL
REMARK 927      BINDING AFFINITY PREDICTED BY RF-SCORE:    0.00 PKD
ROOT
HETATM    1  C   UNL     1      -9.717  20.642  67.270  1.00  0.00    -0.562 C  
HETATM    2  C   UNL     1      -8.390  20.004  66.859  1.00  0.00    -0.326 C  
HETATM    3  C   UNL     1      -7.230  20.910  67.279  1.00  0.00    -0.408 C  
ENDROOT
BRANCH   2   4
HETATM    4  N   UNL     1      -8.303  18.686  67.492  1.00  0.00    -0.263 NA 
HETATM    5  H   UNL     1      -9.037  18.571  68.190  1.00  0.00     0.000 HD 
BRANCH   4   6
HETATM    6  C   UNL     1      -8.320  17.575  66.529  1.00  0.00    -0.270 C  
BRANCH   6   7
HETATM    7  C   UNL     1      -9.708  16.918  66.528  1.00  0.00    -0.281 C  
HETATM    8  O   UNL     1     -10.545  17.551  65.547  1.00  0.00    -0.612 OA 
HETATM    9  H   UNL     1     -11.403  17.144  65.546  1.00  0.00     0.000 HD 
BRANCH   7  10
HETATM   10  C   UNL     1      -9.624  15.415  66.242  1.00  0.00    -0.313 C  
BRANCH  10  11
HETATM   11  O   UNL     1     -10.929  14.817  66.318  1.00  0.00    -0.319 OA 
BRANCH  11  12
HETATM   12  C   UNL     1     -10.935  13.494  66.714  1.00  0.00    -0.292 A  
HETATM   13  C   UNL     1     -11.339  13.103  67.997  1.00  0.00    -0.327 A  
HETATM   14  C   UNL     1     -11.335  11.764  68.368  1.00  0.00    -0.328 A  
HETATM   15  C   UNL     1     -10.952  10.793  67.452  1.00  0.00    -0.361 A  
HETATM   16  C   UNL     1     -10.582  11.146  66.147  1.00  0.00    -0.305 A  
HETATM   17  C   UNL     1     -10.567  12.511  65.757  1.00  0.00    -0.299 A  
HETATM   18  C   UNL     1     -10.178  12.804  64.429  1.00  0.00    -0.344 A  
HETATM   19  C   UNL     1      -9.831  11.793  63.524  1.00  0.00    -0.386 A  
HETATM   20  C   UNL     1      -9.860  10.461  63.926  1.00  0.00    -0.332 A  
HETATM   21  C   UNL     1     -10.229  10.143  65.230  1.00  0.00    -0.261 A  
ENDBRANCH  11  12
ENDBRANCH  10  11
ENDBRANCH   7  10
ENDBRANCH   6   7
ENDBRANCH   4   6
ENDBRANCH   2   4
TORSDOF 6
ENDMDL
MODEL      119
REMARK 921   NORMALIZED FREE ENERGY PREDICTED BY IDOCK:   -4.42 KCAL/MOL
REMARK 922        TOTAL FREE ENERGY PREDICTED BY IDOCK:   -6.64 KCAL/MOL
REMARK 923 INTER-LIGAND FREE ENERGY PREDICTED BY IDOCK:   -5.46 KCAL/MOL
REMARK 924 INTRA-LIGAND FREE ENERGY PREDICTED BY IDOCK:   -1.19 KCAL/MOL
REMARK 927      BINDING AFFINITY PREDICTED BY RF-SCORE:    0.00 PKD
ROOT
HETATM    1  C   UNL     1     -12.526  12.136  63.374  1.00  0.00    -0.625 C  
HETATM    2  C   UNL     1     -11.293  12.053  64.275  1.00  0.00    -0.364 C  
HETATM    3  C   UNL     1     -10.062  11.709  63.433  1.00  0.00    -0.468 C  
ENDROOT
BRANCH   2   4
HETATM    4  N   UNL     1     -11.140  13.339  64.959  1.00  0.00    -0.300 NA 
HETATM    5  H   UNL     1     -11.015  14.094  64.285  1.00  0.00     0.000 HD 
BRANCH   4   6
HETATM    6  C   UNL     1     -12.242  13.641  65.883  1.00  0.00    -0.461 C  
BRANCH   6   7
HETATM    7  C   UNL     1     -11.701  14.426  67.086  1.00  0.00    -0.400 C  
HETATM    8  O   UNL     1     -12.395  14.028  68.279  1.00  0.00    -0.537 OA 
HETATM    9  H   UNL     1     -12.061  14.514  69.023  1.00  0.00     0.000 HD 
BRANCH   7  10
HETATM   10  C   UNL     1     -10.194  14.215  67.272  1.00  0.00    -0.256 C  
BRANCH  10  11
HETATM   11  O   UNL     1      -9.944  12.997  67.994  1.00  0.00    -0.220 OA 
BRANCH  11  12
HETATM   12  C   UNL     1      -8.908  12.233  67.494  1.00  0.00    -0.182 A  
HETATM   13  C   UNL     1      -7.608  12.738  67.361  1.00  0.00    -0.152 A  
HETATM   14  C   UNL     1      -6.584  11.946  66.856  1.00  0.00    -0.083 A  
HETATM   15  C   UNL     1      -6.840  10.627  66.501  1.00  0.00    -0.124 A  
HETATM   16  C   UNL     1      -8.120  10.079  66.660  1.00  0.00    -0.118 A  
HETATM   17  C   UNL     1      -9.180  10.879  67.162  1.00  0.00    -0.159 A  
HETATM   18  C   UNL     1     -10.449  10.270  67.294  1.00  0.00    -0.307 A  
HETATM   19  C   UNL     1     -10.659   8.927  66.956  1.00  0.00    -0.279 A  
HETATM   20  C   UNL     1      -9.604   8.159  66.474  1.00  0.00    -0.303 A  
HETATM   21  C   UNL     1      -8.345   8.734  66.324  1.00  0.00    -0.120 A  
ENDBRANCH  11  12
ENDBRANCH  10  11
ENDBRANCH   7  10
ENDBRANCH   6   7
ENDBRANCH   4   6
ENDBRANCH   2   4
TORSDOF 6
ENDMDL
MODEL      120
REMARK 921   NORMALIZED FREE ENERGY PREDICTED BY IDOCK:   -4.42 KCAL/MOL
REMARK 922        TOTAL FREE ENERGY PREDICTED BY IDOCK:   -6.64 KCAL/MOL
REMARK 923 INTER-LIGAND FREE ENERGY PREDICTED BY IDOCK:   -5.76 KCAL/MOL
REMARK 924 INTRA-LIGAND FREE ENERGY PREDICTED BY IDOCK:   -0.88 KCAL/MOL
REMARK 927      BINDING AFFINITY PREDICTED BY RF-SCORE:    0.00 PKD
ROOT
HETATM    1  C   UNL     1     -10.850  13.484  64.915  1.00  0.00    -0.371 C  
HETATM    2  C   UNL     1     -11.031  12.272  65.829  1.00  0.00    -0.301 C  
HETATM    3  C   UNL     1      -9.669  11.818  66.360  1.00  0.00    -0.234 C  
ENDROOT
BRANCH   2   4
HETATM    4  N   UNL     1     -11.937  12.651  66.915  1.00  0.00    -0.506 NA 
HETATM    5  H   UNL     1     -12.716  11.996  66.982  1.00  0.00     0.000 HD 
BRANCH   4   6
HETATM    6  C   UNL     1     -11.263  12.793  68.213  1.00  0.00    -0.271 C  
BRANCH   6   7
HETATM    7  C   UNL     1     -11.994  13.846  69.059  1.00  0.00    -0.364 C  
HETATM    8  O   UNL     1     -11.482  13.834  70.400  1.00  0.00    -0.504 OA 
HETATM    9  H   UNL     1     -11.934  14.485  70.924  1.00  0.00     0.000 HD 
BRANCH   7  10
HETATM   10  C   UNL     1     -11.852  15.251  68.464  1.00  0.00    -0.281 C  
BRANCH  10  11
HETATM   11  O   UNL     1     -10.618  15.363  67.734  1.00  0.00    -0.261 OA 
BRANCH  11  12
HETATM   12  C   UNL     1      -9.949  16.557  67.914  1.00  0.00    -0.245 A  
HETATM   13  C   UNL     1     -10.533  17.793  67.606  1.00  0.00    -0.393 A  
HETATM   14  C   UNL     1      -9.835  18.979  67.799  1.00  0.00    -0.398 A  
HETATM   15  C   UNL     1      -8.551  18.948  68.328  1.00  0.00    -0.364 A  
HETATM   16  C   UNL     1      -7.953  17.733  68.685  1.00  0.00    -0.276 A  
HETATM   17  C   UNL     1      -8.647  16.511  68.482  1.00  0.00    -0.223 A  
HETATM   18  C   UNL     1      -7.988  15.317  68.857  1.00  0.00    -0.176 A  
HETATM   19  C   UNL     1      -6.705  15.331  69.418  1.00  0.00    -0.164 A  
HETATM   20  C   UNL     1      -6.046  16.540  69.616  1.00  0.00    -0.213 A  
HETATM   21  C   UNL     1      -6.666  17.731  69.248  1.00  0.00    -0.218 A  
ENDBRANCH  11  12
ENDBRANCH  10  11
ENDBRANCH   7  10
ENDBRANCH   6   7
ENDBRANCH   4   6
ENDBRANCH   2   4
TORSDOF 6
ENDMDL
MODEL      121
REMARK 921   NORMALIZED FREE ENERGY PREDICTED BY IDOCK:   -4.40 KCAL/MOL
REMARK 922        TOTAL FREE ENERGY PREDICTED BY IDOCK:   -6.63 KCAL/MOL
REMARK 923 INTER-LIGAND FREE ENERGY PREDICTED BY IDOCK:   -6.16 KCAL/MOL
REMARK 924 INTRA-LIGAND FREE ENERGY PREDICTED BY IDOCK:   -0.46 KCAL/MOL
REMARK 927      BINDING AFFINITY PREDICTED BY RF-SCORE:    0.00 PKD
ROOT
HETATM    1  C   UNL     1      -9.293  20.142  67.427  1.00  0.00    -0.513 C  
HETATM    2  C   UNL     1      -7.840  19.764  67.141  1.00  0.00    -0.273 C  
HETATM    3  C   UNL     1      -6.927  20.955  67.446  1.00  0.00    -0.426 C  
ENDROOT
BRANCH   2   4
HETATM    4  N   UNL     1      -7.503  18.599  67.962  1.00  0.00    -0.245 NA 
HETATM    5  H   UNL     1      -8.226  18.427  68.660  1.00  0.00     0.000 HD 
BRANCH   4   6
HETATM    6  C   UNL     1      -7.239  17.387  67.174  1.00  0.00    -0.172 C  
BRANCH   6   7
HETATM    7  C   UNL     1      -8.526  16.557  67.062  1.00  0.00    -0.197 C  
HETATM    8  O   UNL     1      -9.066  16.674  65.736  1.00  0.00    -0.503 OA 
HETATM    9  H   UNL     1      -9.862  16.161  65.667  1.00  0.00     0.000 HD 
BRANCH   7  10
HETATM   10  C   UNL     1      -8.280  15.081  67.391  1.00  0.00    -0.194 C  
BRANCH  10  11
HETATM   11  O   UNL     1      -9.525  14.364  67.437  1.00  0.00    -0.198 OA 
BRANCH  11  12
HETATM   12  C   UNL     1      -9.544  13.196  66.701  1.00  0.00    -0.260 A  
HETATM   13  C   UNL     1      -8.761  12.085  67.045  1.00  0.00    -0.188 A  
HETATM   14  C   UNL     1      -8.802  10.922  66.287  1.00  0.00    -0.187 A  
HETATM   15  C   UNL     1      -9.646  10.842  65.186  1.00  0.00    -0.295 A  
HETATM   16  C   UNL     1     -10.472  11.919  64.838  1.00  0.00    -0.331 A  
HETATM   17  C   UNL     1     -10.433  13.120  65.595  1.00  0.00    -0.290 A  
HETATM   18  C   UNL     1     -11.286  14.173  65.191  1.00  0.00    -0.336 A  
HETATM   19  C   UNL     1     -12.147  14.041  64.094  1.00  0.00    -0.456 A  
HETATM   20  C   UNL     1     -12.176  12.853  63.372  1.00  0.00    -0.574 A  
HETATM   21  C   UNL     1     -11.340  11.802  63.740  1.00  0.00    -0.524 A  
ENDBRANCH  11  12
ENDBRANCH  10  11
ENDBRANCH   7  10
ENDBRANCH   6   7
ENDBRANCH   4   6
ENDBRANCH   2   4
TORSDOF 6
ENDMDL
MODEL      122
REMARK 921   NORMALIZED FREE ENERGY PREDICTED BY IDOCK:   -4.39 KCAL/MOL
REMARK 922        TOTAL FREE ENERGY PREDICTED BY IDOCK:   -6.61 KCAL/MOL
REMARK 923 INTER-LIGAND FREE ENERGY PREDICTED BY IDOCK:   -6.08 KCAL/MOL
REMARK 924 INTRA-LIGAND FREE ENERGY PREDICTED BY IDOCK:   -0.53 KCAL/MOL
REMARK 927      BINDING AFFINITY PREDICTED BY RF-SCORE:    0.00 PKD
ROOT
HETATM    1  C   UNL     1     -11.907  14.457  66.681  1.00  0.00    -0.417 C  
HETATM    2  C   UNL     1     -12.525  13.544  65.622  1.00  0.00    -0.479 C  
HETATM    3  C   UNL     1     -12.164  14.055  64.225  1.00  0.00    -0.453 C  
ENDROOT
BRANCH   2   4
HETATM    4  N   UNL     1     -12.029  12.184  65.847  1.00  0.00    -0.571 NA 
HETATM    5  H   UNL     1     -12.799  11.547  66.046  1.00  0.00     0.000 HD 
BRANCH   4   6
HETATM    6  C   UNL     1     -11.203  11.675  64.744  1.00  0.00    -0.234 C  
BRANCH   6   7
HETATM    7  C   UNL     1      -9.914  11.060  65.309  1.00  0.00    -0.266 C  
HETATM    8  O   UNL     1      -9.399  11.891  66.360  1.00  0.00    -0.217 OA 
HETATM    9  H   UNL     1      -8.601  11.511  66.710  1.00  0.00     0.000 HD 
BRANCH   7  10
HETATM   10  C   UNL     1     -10.148   9.642  65.840  1.00  0.00    -0.234 C  
BRANCH  10  11
HETATM   11  O   UNL     1      -9.767   9.556  67.223  1.00  0.00    -0.154 OA 
BRANCH  11  12
HETATM   12  C   UNL     1     -10.241   8.440  67.883  1.00  0.00    -0.217 A  
HETATM   13  C   UNL     1     -10.308   7.182  67.268  1.00  0.00    -0.342 A  
HETATM   14  C   UNL     1     -10.789   6.076  67.957  1.00  0.00    -0.374 A  
HETATM   15  C   UNL     1     -11.186   6.205  69.282  1.00  0.00    -0.438 A  
HETATM   16  C   UNL     1     -11.094   7.439  69.940  1.00  0.00    -0.208 A  
HETATM   17  C   UNL     1     -10.617   8.582  69.246  1.00  0.00    -0.193 A  
HETATM   18  C   UNL     1     -10.553   9.799  69.963  1.00  0.00    -0.320 A  
HETATM   19  C   UNL     1     -10.931   9.881  71.309  1.00  0.00    -0.225 A  
HETATM   20  C   UNL     1     -11.388   8.746  71.972  1.00  0.00    -0.441 A  
HETATM   21  C   UNL     1     -11.472   7.536  71.289  1.00  0.00    -0.298 A  
ENDBRANCH  11  12
ENDBRANCH  10  11
ENDBRANCH   7  10
ENDBRANCH   6   7
ENDBRANCH   4   6
ENDBRANCH   2   4
TORSDOF 6
ENDMDL
MODEL      123
REMARK 921   NORMALIZED FREE ENERGY PREDICTED BY IDOCK:   -4.38 KCAL/MOL
REMARK 922        TOTAL FREE ENERGY PREDICTED BY IDOCK:   -6.60 KCAL/MOL
REMARK 923 INTER-LIGAND FREE ENERGY PREDICTED BY IDOCK:   -6.05 KCAL/MOL
REMARK 924 INTRA-LIGAND FREE ENERGY PREDICTED BY IDOCK:   -0.55 KCAL/MOL
REMARK 927      BINDING AFFINITY PREDICTED BY RF-SCORE:    0.00 PKD
ROOT
HETATM    1  C   UNL     1      -6.958  13.377  68.823  1.00  0.00    -0.103 C  
HETATM    2  C   UNL     1      -7.977  13.775  67.754  1.00  0.00    -0.169 C  
HETATM    3  C   UNL     1      -7.634  15.162  67.205  1.00  0.00    -0.236 C  
ENDROOT
BRANCH   2   4
HETATM    4  N   UNL     1      -7.955  12.756  66.703  1.00  0.00    -0.382 NA 
HETATM    5  H   UNL     1      -7.004  12.596  66.373  1.00  0.00     0.000 HD 
BRANCH   4   6
HETATM    6  C   UNL     1      -8.588  11.492  67.104  1.00  0.00    -0.155 C  
BRANCH   6   7
HETATM    7  C   UNL     1     -10.113  11.617  66.973  1.00  0.00    -0.209 C  
HETATM    8  O   UNL     1     -10.613  10.585  66.108  1.00  0.00    -0.200 OA 
HETATM    9  H   UNL     1     -11.556  10.662  66.026  1.00  0.00     0.000 HD 
BRANCH   7  10
HETATM   10  C   UNL     1     -10.809  11.529  68.335  1.00  0.00    -0.211 C  
BRANCH  10  11
HETATM   11  O   UNL     1     -12.036  12.277  68.320  1.00  0.00    -0.363 OA 
BRANCH  11  12
HETATM   12  C   UNL     1     -11.930  13.571  68.789  1.00  0.00    -0.339 A  
HETATM   13  C   UNL     1     -11.459  14.618  67.986  1.00  0.00    -0.346 A  
HETATM   14  C   UNL     1     -11.363  15.912  68.485  1.00  0.00    -0.374 A  
HETATM   15  C   UNL     1     -11.761  16.182  69.788  1.00  0.00    -0.193 A  
HETATM   16  C   UNL     1     -12.274  15.166  70.605  1.00  0.00    -0.401 A  
HETATM   17  C   UNL     1     -12.367  13.837  70.115  1.00  0.00    -0.390 A  
HETATM   18  C   UNL     1     -12.888  12.854  70.989  1.00  0.00    -0.268 A  
HETATM   19  C   UNL     1     -13.309  13.174  72.285  1.00  0.00    -0.621 A  
HETATM   20  C   UNL     1     -13.218  14.485  72.743  1.00  0.00    -0.600 A  
HETATM   21  C   UNL     1     -12.700  15.471  71.908  1.00  0.00    -0.490 A  
ENDBRANCH  11  12
ENDBRANCH  10  11
ENDBRANCH   7  10
ENDBRANCH   6   7
ENDBRANCH   4   6
ENDBRANCH   2   4
TORSDOF 6
ENDMDL
MODEL      124
REMARK 921   NORMALIZED FREE ENERGY PREDICTED BY IDOCK:   -4.38 KCAL/MOL
REMARK 922        TOTAL FREE ENERGY PREDICTED BY IDOCK:   -6.60 KCAL/MOL
REMARK 923 INTER-LIGAND FREE ENERGY PREDICTED BY IDOCK:   -6.09 KCAL/MOL
REMARK 924 INTRA-LIGAND FREE ENERGY PREDICTED BY IDOCK:   -0.51 KCAL/MOL
REMARK 927      BINDING AFFINITY PREDICTED BY RF-SCORE:    0.00 PKD
ROOT
HETATM    1  C   UNL     1     -10.874   5.760  69.449  1.00  0.00    -0.393 C  
HETATM    2  C   UNL     1     -10.272   6.783  68.486  1.00  0.00    -0.175 C  
HETATM    3  C   UNL     1     -10.838   6.565  67.081  1.00  0.00    -0.472 C  
ENDROOT
BRANCH   2   4
HETATM    4  N   UNL     1     -10.579   8.122  68.993  1.00  0.00    -0.341 NA 
HETATM    5  H   UNL     1     -10.070   8.308  69.856  1.00  0.00     0.000 HD 
BRANCH   4   6
HETATM    6  C   UNL     1     -10.342   9.186  68.008  1.00  0.00    -0.222 C  
BRANCH   6   7
HETATM    7  C   UNL     1     -10.289  10.544  68.723  1.00  0.00    -0.191 C  
HETATM    8  O   UNL     1     -10.505  10.362  70.131  1.00  0.00    -0.406 OA 
HETATM    9  H   UNL     1     -10.472  11.202  70.573  1.00  0.00     0.000 HD 
BRANCH   7  10
HETATM   10  C   UNL     1      -8.950  11.254  68.494  1.00  0.00    -0.166 C  
BRANCH  10  11
HETATM   11  O   UNL     1      -8.844  11.697  67.131  1.00  0.00    -0.161 OA 
BRANCH  11  12
HETATM   12  C   UNL     1      -9.511  12.874  66.854  1.00  0.00    -0.237 A  
HETATM   13  C   UNL     1      -9.315  14.037  67.610  1.00  0.00    -0.203 A  
HETATM   14  C   UNL     1      -9.999  15.208  67.308  1.00  0.00    -0.230 A  
HETATM   15  C   UNL     1     -10.872  15.240  66.227  1.00  0.00    -0.312 A  
HETATM   16  C   UNL     1     -11.061  14.107  65.426  1.00  0.00    -0.321 A  
HETATM   17  C   UNL     1     -10.379  12.899  65.729  1.00  0.00    -0.297 A  
HETATM   18  C   UNL     1     -10.616  11.788  64.886  1.00  0.00    -0.344 A  
HETATM   19  C   UNL     1     -11.479  11.870  63.786  1.00  0.00    -0.542 A  
HETATM   20  C   UNL     1     -12.130  13.066  63.502  1.00  0.00    -0.617 A  
HETATM   21  C   UNL     1     -11.924  14.174  64.320  1.00  0.00    -0.460 A  
ENDBRANCH  11  12
ENDBRANCH  10  11
ENDBRANCH   7  10
ENDBRANCH   6   7
ENDBRANCH   4   6
ENDBRANCH   2   4
TORSDOF 6
ENDMDL
MODEL      125
REMARK 921   NORMALIZED FREE ENERGY PREDICTED BY IDOCK:   -4.38 KCAL/MOL
REMARK 922        TOTAL FREE ENERGY PREDICTED BY IDOCK:   -6.60 KCAL/MOL
REMARK 923 INTER-LIGAND FREE ENERGY PREDICTED BY IDOCK:   -5.89 KCAL/MOL
REMARK 924 INTRA-LIGAND FREE ENERGY PREDICTED BY IDOCK:   -0.70 KCAL/MOL
REMARK 927      BINDING AFFINITY PREDICTED BY RF-SCORE:    0.00 PKD
ROOT
HETATM    1  C   UNL     1      -7.053  17.963  67.464  1.00  0.00    -0.205 C  
HETATM    2  C   UNL     1      -8.521  18.386  67.399  1.00  0.00    -0.253 C  
HETATM    3  C   UNL     1      -8.666  19.609  66.490  1.00  0.00    -0.402 C  
ENDROOT
BRANCH   2   4
HETATM    4  N   UNL     1      -9.301  17.249  66.906  1.00  0.00    -0.247 NA 
HETATM    5  H   UNL     1      -9.572  16.636  67.675  1.00  0.00     0.000 HD 
BRANCH   4   6
HETATM    6  C   UNL     1     -10.475  17.646  66.117  1.00  0.00    -0.295 C  
BRANCH   6   7
HETATM    7  C   UNL     1     -11.066  16.412  65.419  1.00  0.00    -0.052 C  
HETATM    8  O   UNL     1     -11.176  16.658  64.009  1.00  0.00    -1.449 OA 
HETATM    9  H   UNL     1     -11.542  15.895  63.577  1.00  0.00     0.000 HD 
BRANCH   7  10
HETATM   10  C   UNL     1     -10.214  15.162  65.660  1.00  0.00    -0.361 C  
BRANCH  10  11
HETATM   11  O   UNL     1     -10.515  14.590  66.945  1.00  0.00    -0.266 OA 
BRANCH  11  12
HETATM   12  C   UNL     1      -9.642  13.601  67.354  1.00  0.00    -0.226 A  
HETATM   13  C   UNL     1      -8.263  13.682  67.121  1.00  0.00    -0.123 A  
HETATM   14  C   UNL     1      -7.408  12.672  67.546  1.00  0.00    -0.151 A  
HETATM   15  C   UNL     1      -7.917  11.577  68.233  1.00  0.00    -0.142 A  
HETATM   16  C   UNL     1      -9.286  11.485  68.518  1.00  0.00    -0.171 A  
HETATM   17  C   UNL     1     -10.175  12.502  68.080  1.00  0.00    -0.231 A  
HETATM   18  C   UNL     1     -11.545  12.349  68.394  1.00  0.00    -0.373 A  
HETATM   19  C   UNL     1     -12.015  11.247  69.118  1.00  0.00    -0.405 A  
HETATM   20  C   UNL     1     -11.126  10.266  69.546  1.00  0.00    -0.310 A  
HETATM   21  C   UNL     1      -9.772  10.384  69.243  1.00  0.00    -0.231 A  
ENDBRANCH  11  12
ENDBRANCH  10  11
ENDBRANCH   7  10
ENDBRANCH   6   7
ENDBRANCH   4   6
ENDBRANCH   2   4
TORSDOF 6
ENDMDL
MODEL      126
REMARK 921   NORMALIZED FREE ENERGY PREDICTED BY IDOCK:   -4.38 KCAL/MOL
REMARK 922        TOTAL FREE ENERGY PREDICTED BY IDOCK:   -6.59 KCAL/MOL
REMARK 923 INTER-LIGAND FREE ENERGY PREDICTED BY IDOCK:   -6.17 KCAL/MOL
REMARK 924 INTRA-LIGAND FREE ENERGY PREDICTED BY IDOCK:   -0.42 KCAL/MOL
REMARK 927      BINDING AFFINITY PREDICTED BY RF-SCORE:    0.00 PKD
ROOT
HETATM    1  C   UNL     1     -10.131  11.650  66.302  1.00  0.00    -0.254 C  
HETATM    2  C   UNL     1     -10.694  13.030  65.963  1.00  0.00    -0.274 C  
HETATM    3  C   UNL     1     -11.780  12.896  64.893  1.00  0.00    -0.388 C  
ENDROOT
BRANCH   2   4
HETATM    4  N   UNL     1     -11.217  13.625  67.195  1.00  0.00    -0.300 NA 
HETATM    5  H   UNL     1     -11.897  14.354  66.984  1.00  0.00     0.000 HD 
BRANCH   4   6
HETATM    6  C   UNL     1     -11.782  12.637  68.124  1.00  0.00    -0.347 C  
BRANCH   6   7
HETATM    7  C   UNL     1     -11.694  13.174  69.560  1.00  0.00    -0.319 C  
HETATM    8  O   UNL     1     -12.482  14.368  69.683  1.00  0.00    -0.480 OA 
HETATM    9  H   UNL     1     -12.427  14.700  70.571  1.00  0.00     0.000 HD 
BRANCH   7  10
HETATM   10  C   UNL     1     -12.166  12.136  70.584  1.00  0.00    -0.300 C  
BRANCH  10  11
HETATM   11  O   UNL     1     -11.399  10.926  70.461  1.00  0.00    -0.290 OA 
BRANCH  11  12
HETATM   12  C   UNL     1     -12.036   9.791  70.919  1.00  0.00    -0.321 A  
HETATM   13  C   UNL     1     -13.350   9.819  71.407  1.00  0.00    -0.449 A  
HETATM   14  C   UNL     1     -13.967   8.660  71.861  1.00  0.00    -0.501 A  
HETATM   15  C   UNL     1     -13.289   7.449  71.810  1.00  0.00    -0.373 A  
HETATM   16  C   UNL     1     -11.989   7.378  71.290  1.00  0.00    -0.343 A  
HETATM   17  C   UNL     1     -11.340   8.555  70.835  1.00  0.00    -0.304 A  
HETATM   18  C   UNL     1     -10.027   8.420  70.326  1.00  0.00    -0.193 A  
HETATM   19  C   UNL     1      -9.389   7.175  70.260  1.00  0.00    -0.155 A  
HETATM   20  C   UNL     1     -10.047   6.032  70.704  1.00  0.00    -0.246 A  
HETATM   21  C   UNL     1     -11.337   6.136  71.219  1.00  0.00    -0.335 A  
ENDBRANCH  11  12
ENDBRANCH  10  11
ENDBRANCH   7  10
ENDBRANCH   6   7
ENDBRANCH   4   6
ENDBRANCH   2   4
TORSDOF 6
ENDMDL
MODEL      127
REMARK 921   NORMALIZED FREE ENERGY PREDICTED BY IDOCK:   -4.37 KCAL/MOL
REMARK 922        TOTAL FREE ENERGY PREDICTED BY IDOCK:   -6.59 KCAL/MOL
REMARK 923 INTER-LIGAND FREE ENERGY PREDICTED BY IDOCK:   -6.23 KCAL/MOL
REMARK 924 INTRA-LIGAND FREE ENERGY PREDICTED BY IDOCK:   -0.35 KCAL/MOL
REMARK 927      BINDING AFFINITY PREDICTED BY RF-SCORE:    0.00 PKD
ROOT
HETATM    1  C   UNL     1     -10.476   8.437  71.948  1.00  0.00    -0.366 C  
HETATM    2  C   UNL     1     -11.078   8.059  70.594  1.00  0.00    -0.262 C  
HETATM    3  C   UNL     1     -11.931   6.797  70.744  1.00  0.00    -0.433 C  
ENDROOT
BRANCH   2   4
HETATM    4  N   UNL     1     -11.869   9.193  70.114  1.00  0.00    -0.460 NA 
HETATM    5  H   UNL     1     -12.839   8.919  69.960  1.00  0.00     0.000 HD 
BRANCH   4   6
HETATM    6  C   UNL     1     -11.792  10.370  70.990  1.00  0.00    -0.361 C  
BRANCH   6   7
HETATM    7  C   UNL     1     -12.468  11.566  70.304  1.00  0.00    -0.205 C  
HETATM    8  O   UNL     1     -12.524  12.679  71.210  1.00  0.00    -0.309 OA 
HETATM    9  H   UNL     1     -12.942  13.419  70.786  1.00  0.00     0.000 HD 
BRANCH   7  10
HETATM   10  C   UNL     1     -11.730  11.979  69.026  1.00  0.00    -0.325 C  
BRANCH  10  11
HETATM   11  O   UNL     1     -12.057  13.333  68.673  1.00  0.00    -0.337 OA 
BRANCH  11  12
HETATM   12  C   UNL     1     -11.636  13.719  67.416  1.00  0.00    -0.362 A  
HETATM   13  C   UNL     1     -12.278  13.284  66.249  1.00  0.00    -0.440 A  
HETATM   14  C   UNL     1     -11.834  13.689  64.997  1.00  0.00    -0.379 A  
HETATM   15  C   UNL     1     -10.754  14.558  64.894  1.00  0.00    -0.448 A  
HETATM   16  C   UNL     1     -10.115  15.045  66.042  1.00  0.00    -0.322 A  
HETATM   17  C   UNL     1     -10.549  14.630  67.328  1.00  0.00    -0.284 A  
HETATM   18  C   UNL     1      -9.860  15.152  68.448  1.00  0.00    -0.223 A  
HETATM   19  C   UNL     1      -8.797  16.052  68.303  1.00  0.00    -0.182 A  
HETATM   20  C   UNL     1      -8.394  16.453  67.033  1.00  0.00    -0.230 A  
HETATM   21  C   UNL     1      -9.047  15.948  65.911  1.00  0.00    -0.304 A  
ENDBRANCH  11  12
ENDBRANCH  10  11
ENDBRANCH   7  10
ENDBRANCH   6   7
ENDBRANCH   4   6
ENDBRANCH   2   4
TORSDOF 6
ENDMDL
MODEL      128
REMARK 921   NORMALIZED FREE ENERGY PREDICTED BY IDOCK:   -4.37 KCAL/MOL
REMARK 922        TOTAL FREE ENERGY PREDICTED BY IDOCK:   -6.58 KCAL/MOL
REMARK 923 INTER-LIGAND FREE ENERGY PREDICTED BY IDOCK:   -6.22 KCAL/MOL
REMARK 924 INTRA-LIGAND FREE ENERGY PREDICTED BY IDOCK:   -0.36 KCAL/MOL
REMARK 927      BINDING AFFINITY PREDICTED BY RF-SCORE:    0.00 PKD
ROOT
HETATM    1  C   UNL     1      -9.568   3.290  70.325  1.00  0.00    -0.198 C  
HETATM    2  C   UNL     1      -9.546   4.740  69.839  1.00  0.00    -0.181 C  
HETATM    3  C   UNL     1      -9.827   4.784  68.335  1.00  0.00    -0.187 C  
ENDROOT
BRANCH   2   4
HETATM    4  N   UNL     1     -10.548   5.491  70.599  1.00  0.00    -0.269 NA 
HETATM    5  H   UNL     1     -10.932   4.921  71.352  1.00  0.00     0.000 HD 
BRANCH   4   6
HETATM    6  C   UNL     1     -10.047   6.771  71.117  1.00  0.00    -0.181 C  
BRANCH   6   7
HETATM    7  C   UNL     1     -11.191   7.527  71.809  1.00  0.00    -0.246 C  
HETATM    8  O   UNL     1     -10.680   8.259  72.934  1.00  0.00    -0.320 OA 
HETATM    9  H   UNL     1     -11.387   8.726  73.362  1.00  0.00     0.000 HD 
BRANCH   7  10
HETATM   10  C   UNL     1     -11.899   8.488  70.848  1.00  0.00    -0.217 C  
BRANCH  10  11
HETATM   11  O   UNL     1     -12.100   9.766  71.474  1.00  0.00    -0.363 OA 
BRANCH  11  12
HETATM   12  C   UNL     1     -11.829  10.853  70.667  1.00  0.00    -0.352 A  
HETATM   13  C   UNL     1     -11.055  10.742  69.504  1.00  0.00    -0.334 A  
HETATM   14  C   UNL     1     -10.799  11.852  68.709  1.00  0.00    -0.270 A  
HETATM   15  C   UNL     1     -11.336  13.087  69.051  1.00  0.00    -0.340 A  
HETATM   16  C   UNL     1     -12.148  13.225  70.185  1.00  0.00    -0.403 A  
HETATM   17  C   UNL     1     -12.408  12.103  71.015  1.00  0.00    -0.331 A  
HETATM   18  C   UNL     1     -13.230  12.306  72.148  1.00  0.00    -0.466 A  
HETATM   19  C   UNL     1     -13.779  13.561  72.441  1.00  0.00    -0.704 A  
HETATM   20  C   UNL     1     -13.519  14.645  71.609  1.00  0.00    -0.452 A  
HETATM   21  C   UNL     1     -12.705  14.477  70.492  1.00  0.00    -0.404 A  
ENDBRANCH  11  12
ENDBRANCH  10  11
ENDBRANCH   7  10
ENDBRANCH   6   7
ENDBRANCH   4   6
ENDBRANCH   2   4
TORSDOF 6
ENDMDL
MODEL      129
REMARK 921   NORMALIZED FREE ENERGY PREDICTED BY IDOCK:   -4.35 KCAL/MOL
REMARK 922        TOTAL FREE ENERGY PREDICTED BY IDOCK:   -6.56 KCAL/MOL
REMARK 923 INTER-LIGAND FREE ENERGY PREDICTED BY IDOCK:   -6.25 KCAL/MOL
REMARK 924 INTRA-LIGAND FREE ENERGY PREDICTED BY IDOCK:   -0.31 KCAL/MOL
REMARK 927      BINDING AFFINITY PREDICTED BY RF-SCORE:    0.00 PKD
ROOT
HETATM    1  C   UNL     1     -10.580   9.790  69.698  1.00  0.00    -0.260 C  
HETATM    2  C   UNL     1     -11.990  10.372  69.594  1.00  0.00    -0.136 C  
HETATM    3  C   UNL     1     -12.453  10.852  70.972  1.00  0.00    -0.514 C  
ENDROOT
BRANCH   2   4
HETATM    4  N   UNL     1     -11.962  11.465  68.620  1.00  0.00    -0.517 NA 
HETATM    5  H   UNL     1     -12.908  11.748  68.367  1.00  0.00     0.000 HD 
BRANCH   4   6
HETATM    6  C   UNL     1     -11.172  12.621  69.065  1.00  0.00    -0.269 C  
BRANCH   6   7
HETATM    7  C   UNL     1     -11.974  13.910  68.834  1.00  0.00    -0.358 C  
HETATM    8  O   UNL     1     -12.932  14.083  69.890  1.00  0.00    -0.312 OA 
HETATM    9  H   UNL     1     -13.428  14.880  69.747  1.00  0.00     0.000 HD 
BRANCH   7  10
HETATM   10  C   UNL     1     -11.063  15.140  68.758  1.00  0.00    -0.267 C  
BRANCH  10  11
HETATM   11  O   UNL     1     -10.760  15.455  67.388  1.00  0.00    -0.284 OA 
BRANCH  11  12
HETATM   12  C   UNL     1      -9.563  16.118  67.200  1.00  0.00    -0.229 A  
HETATM   13  C   UNL     1      -8.352  15.434  67.029  1.00  0.00    -0.268 A  
HETATM   14  C   UNL     1      -7.163  16.127  66.841  1.00  0.00    -0.240 A  
HETATM   15  C   UNL     1      -7.170  17.516  66.795  1.00  0.00    -0.250 A  
HETATM   16  C   UNL     1      -8.370  18.229  66.922  1.00  0.00    -0.256 A  
HETATM   17  C   UNL     1      -9.592  17.537  67.128  1.00  0.00    -0.262 A  
HETATM   18  C   UNL     1     -10.767  18.313  67.254  1.00  0.00    -0.366 A  
HETATM   19  C   UNL     1     -10.738  19.710  67.169  1.00  0.00    -0.587 A  
HETATM   20  C   UNL     1      -9.530  20.369  66.958  1.00  0.00    -0.544 A  
HETATM   21  C   UNL     1      -8.355  19.631  66.840  1.00  0.00    -0.333 A  
ENDBRANCH  11  12
ENDBRANCH  10  11
ENDBRANCH   7  10
ENDBRANCH   6   7
ENDBRANCH   4   6
ENDBRANCH   2   4
TORSDOF 6
ENDMDL
MODEL      130
REMARK 921   NORMALIZED FREE ENERGY PREDICTED BY IDOCK:   -4.35 KCAL/MOL
REMARK 922        TOTAL FREE ENERGY PREDICTED BY IDOCK:   -6.56 KCAL/MOL
REMARK 923 INTER-LIGAND FREE ENERGY PREDICTED BY IDOCK:   -6.13 KCAL/MOL
REMARK 924 INTRA-LIGAND FREE ENERGY PREDICTED BY IDOCK:   -0.42 KCAL/MOL
REMARK 927      BINDING AFFINITY PREDICTED BY RF-SCORE:    0.00 PKD
ROOT
HETATM    1  C   UNL     1     -11.615  14.049  64.555  1.00  0.00    -0.403 C  
HETATM    2  C   UNL     1     -10.528  14.368  65.581  1.00  0.00    -0.334 C  
HETATM    3  C   UNL     1     -11.165  14.965  66.839  1.00  0.00    -0.343 C  
ENDROOT
BRANCH   2   4
HETATM    4  N   UNL     1      -9.802  13.131  65.876  1.00  0.00    -0.379 NA 
HETATM    5  H   UNL     1      -8.921  13.333  66.349  1.00  0.00     0.000 HD 
BRANCH   4   6
HETATM    6  C   UNL     1     -10.594  12.159  66.642  1.00  0.00    -0.235 C  
BRANCH   6   7
HETATM    7  C   UNL     1      -9.861  11.813  67.946  1.00  0.00    -0.183 C  
HETATM    8  O   UNL     1     -10.572  12.366  69.065  1.00  0.00    -0.376 OA 
HETATM    9  H   UNL     1     -10.118  12.152  69.872  1.00  0.00     0.000 HD 
BRANCH   7  10
HETATM   10  C   UNL     1      -9.712  10.299  68.128  1.00  0.00    -0.143 C  
BRANCH  10  11
HETATM   11  O   UNL     1      -9.721   9.959  69.525  1.00  0.00    -0.195 OA 
BRANCH  11  12
HETATM   12  C   UNL     1     -10.344   8.763  69.823  1.00  0.00    -0.211 A  
HETATM   13  C   UNL     1      -9.840   7.531  69.386  1.00  0.00    -0.166 A  
HETATM   14  C   UNL     1     -10.487   6.343  69.702  1.00  0.00    -0.278 A  
HETATM   15  C   UNL     1     -11.636   6.368  70.483  1.00  0.00    -0.424 A  
HETATM   16  C   UNL     1     -12.144   7.579  70.970  1.00  0.00    -0.305 A  
HETATM   17  C   UNL     1     -11.502   8.803  70.646  1.00  0.00    -0.263 A  
HETATM   18  C   UNL     1     -12.066   9.992  71.163  1.00  0.00    -0.475 A  
HETATM   19  C   UNL     1     -13.207   9.972  71.974  1.00  0.00    -0.545 A  
HETATM   20  C   UNL     1     -13.816   8.761  72.288  1.00  0.00    -0.505 A  
HETATM   21  C   UNL     1     -13.289   7.574  71.784  1.00  0.00    -0.370 A  
ENDBRANCH  11  12
ENDBRANCH  10  11
ENDBRANCH   7  10
ENDBRANCH   6   7
ENDBRANCH   4   6
ENDBRANCH   2   4
TORSDOF 6
ENDMDL
MODEL      131
REMARK 921   NORMALIZED FREE ENERGY PREDICTED BY IDOCK:   -4.34 KCAL/MOL
REMARK 922        TOTAL FREE ENERGY PREDICTED BY IDOCK:   -6.54 KCAL/MOL
REMARK 923 INTER-LIGAND FREE ENERGY PREDICTED BY IDOCK:   -5.82 KCAL/MOL
REMARK 924 INTRA-LIGAND FREE ENERGY PREDICTED BY IDOCK:   -0.71 KCAL/MOL
REMARK 927      BINDING AFFINITY PREDICTED BY RF-SCORE:    0.00 PKD
ROOT
HETATM    1  C   UNL     1     -12.487  12.637  64.624  1.00  0.00    -0.538 C  
HETATM    2  C   UNL     1     -11.221  13.494  64.664  1.00  0.00    -0.363 C  
HETATM    3  C   UNL     1     -11.593  14.951  64.950  1.00  0.00    -0.395 C  
ENDROOT
BRANCH   2   4
HETATM    4  N   UNL     1     -10.333  12.949  65.693  1.00  0.00    -0.279 NA 
HETATM    5  H   UNL     1      -9.368  13.234  65.526  1.00  0.00     0.000 HD 
BRANCH   4   6
HETATM    6  C   UNL     1     -10.749  13.289  67.060  1.00  0.00    -0.260 C  
BRANCH   6   7
HETATM    7  C   UNL     1      -9.555  13.132  68.014  1.00  0.00    -0.220 C  
HETATM    8  O   UNL     1      -9.835  13.794  69.257  1.00  0.00    -0.408 OA 
HETATM    9  H   UNL     1      -9.097  13.698  69.847  1.00  0.00     0.000 HD 
BRANCH   7  10
HETATM   10  C   UNL     1      -9.227  11.659  68.276  1.00  0.00    -0.187 C  
BRANCH  10  11
HETATM   11  O   UNL     1     -10.377  10.836  68.017  1.00  0.00    -0.170 OA 
BRANCH  11  12
HETATM   12  C   UNL     1     -10.723   9.988  69.050  1.00  0.00    -0.220 A  
HETATM   13  C   UNL     1     -11.108  10.466  70.310  1.00  0.00    -0.379 A  
HETATM   14  C   UNL     1     -11.452   9.589  71.331  1.00  0.00    -0.462 A  
HETATM   15  C   UNL     1     -11.440   8.219  71.100  1.00  0.00    -0.307 A  
HETATM   16  C   UNL     1     -11.099   7.708  69.840  1.00  0.00    -0.160 A  
HETATM   17  C   UNL     1     -10.732   8.591  68.790  1.00  0.00    -0.089 A  
HETATM   18  C   UNL     1     -10.393   8.015  67.544  1.00  0.00    -0.330 A  
HETATM   19  C   UNL     1     -10.425   6.629  67.341  1.00  0.00    -0.325 A  
HETATM   20  C   UNL     1     -10.795   5.783  68.382  1.00  0.00    -0.251 A  
HETATM   21  C   UNL     1     -11.125   6.321  69.623  1.00  0.00    -0.479 A  
ENDBRANCH  11  12
ENDBRANCH  10  11
ENDBRANCH   7  10
ENDBRANCH   6   7
ENDBRANCH   4   6
ENDBRANCH   2   4
TORSDOF 6
ENDMDL
MODEL      132
REMARK 921   NORMALIZED FREE ENERGY PREDICTED BY IDOCK:   -4.33 KCAL/MOL
REMARK 922        TOTAL FREE ENERGY PREDICTED BY IDOCK:   -6.53 KCAL/MOL
REMARK 923 INTER-LIGAND FREE ENERGY PREDICTED BY IDOCK:   -5.71 KCAL/MOL
REMARK 924 INTRA-LIGAND FREE ENERGY PREDICTED BY IDOCK:   -0.82 KCAL/MOL
REMARK 927      BINDING AFFINITY PREDICTED BY RF-SCORE:    0.00 PKD
ROOT
HETATM    1  C   UNL     1      -7.910   7.345  65.238  1.00  0.00    -0.121 C  
HETATM    2  C   UNL     1      -9.088   7.299  66.212  1.00  0.00    -0.149 C  
HETATM    3  C   UNL     1      -8.568   7.265  67.651  1.00  0.00    -0.126 C  
ENDROOT
BRANCH   2   4
HETATM    4  N   UNL     1      -9.928   8.473  65.967  1.00  0.00    -0.465 NA 
HETATM    5  H   UNL     1     -10.359   8.797  66.832  1.00  0.00     0.000 HD 
BRANCH   4   6
HETATM    6  C   UNL     1      -9.216   9.569  65.296  1.00  0.00    -0.247 C  
BRANCH   6   7
HETATM    7  C   UNL     1      -9.349  10.853  66.128  1.00  0.00    -0.186 C  
HETATM    8  O   UNL     1      -9.482  11.987  65.256  1.00  0.00    -0.404 OA 
HETATM    9  H   UNL     1      -9.565  12.781  65.771  1.00  0.00     0.000 HD 
BRANCH   7  10
HETATM   10  C   UNL     1     -10.549  10.791  67.079  1.00  0.00    -0.260 C  
BRANCH  10  11
HETATM   11  O   UNL     1     -10.158  10.226  68.343  1.00  0.00    -0.151 OA 
BRANCH  11  12
HETATM   12  C   UNL     1     -11.034  10.476  69.381  1.00  0.00    -0.250 A  
HETATM   13  C   UNL     1     -11.642  11.726  69.559  1.00  0.00    -0.398 A  
HETATM   14  C   UNL     1     -12.520  11.948  70.613  1.00  0.00    -0.347 A  
HETATM   15  C   UNL     1     -12.824  10.914  71.490  1.00  0.00    -0.560 A  
HETATM   16  C   UNL     1     -12.265   9.641  71.317  1.00  0.00    -0.452 A  
HETATM   17  C   UNL     1     -11.356   9.401  70.253  1.00  0.00    -0.261 A  
HETATM   18  C   UNL     1     -10.822   8.097  70.134  1.00  0.00    -0.241 A  
HETATM   19  C   UNL     1     -11.179   7.073  71.019  1.00  0.00    -0.309 A  
HETATM   20  C   UNL     1     -12.079   7.327  72.050  1.00  0.00    -0.327 A  
HETATM   21  C   UNL     1     -12.613   8.604  72.198  1.00  0.00    -0.451 A  
ENDBRANCH  11  12
ENDBRANCH  10  11
ENDBRANCH   7  10
ENDBRANCH   6   7
ENDBRANCH   4   6
ENDBRANCH   2   4
TORSDOF 6
ENDMDL
MODEL      133
REMARK 921   NORMALIZED FREE ENERGY PREDICTED BY IDOCK:   -4.33 KCAL/MOL
REMARK 922        TOTAL FREE ENERGY PREDICTED BY IDOCK:   -6.52 KCAL/MOL
REMARK 923 INTER-LIGAND FREE ENERGY PREDICTED BY IDOCK:   -6.13 KCAL/MOL
REMARK 924 INTRA-LIGAND FREE ENERGY PREDICTED BY IDOCK:   -0.40 KCAL/MOL
REMARK 927      BINDING AFFINITY PREDICTED BY RF-SCORE:    0.00 PKD
ROOT
HETATM    1  C   UNL     1     -11.123  15.378  71.015  1.00  0.00    -0.377 C  
HETATM    2  C   UNL     1     -12.404  14.906  70.328  1.00  0.00    -0.341 C  
HETATM    3  C   UNL     1     -13.606  15.167  71.239  1.00  0.00    -0.559 C  
ENDROOT
BRANCH   2   4
HETATM    4  N   UNL     1     -12.526  15.617  69.053  1.00  0.00    -0.533 NA 
HETATM    5  H   UNL     1     -12.508  16.626  69.199  1.00  0.00     0.000 HD 
BRANCH   4   6
HETATM    6  C   UNL     1     -11.519  15.214  68.062  1.00  0.00    -0.342 C  
BRANCH   6   7
HETATM    7  C   UNL     1     -11.947  13.896  67.402  1.00  0.00    -0.401 C  
HETATM    8  O   UNL     1     -12.863  14.164  66.329  1.00  0.00    -0.500 OA 
HETATM    9  H   UNL     1     -13.128  13.348  65.920  1.00  0.00     0.000 HD 
BRANCH   7  10
HETATM   10  C   UNL     1     -10.744  13.111  66.869  1.00  0.00    -0.263 C  
BRANCH  10  11
HETATM   11  O   UNL     1     -11.179  12.071  65.977  1.00  0.00    -0.312 OA 
BRANCH  11  12
HETATM   12  C   UNL     1     -10.628  10.830  66.226  1.00  0.00    -0.192 A  
HETATM   13  C   UNL     1     -10.892  10.120  67.406  1.00  0.00    -0.323 A  
HETATM   14  C   UNL     1     -10.324   8.872  67.630  1.00  0.00    -0.313 A  
HETATM   15  C   UNL     1      -9.502   8.303  66.665  1.00  0.00    -0.271 A  
HETATM   16  C   UNL     1      -9.250   8.967  65.457  1.00  0.00    -0.262 A  
HETATM   17  C   UNL     1      -9.812  10.249  65.219  1.00  0.00    -0.372 A  
HETATM   18  C   UNL     1      -9.515  10.871  63.983  1.00  0.00    -0.298 A  
HETATM   19  C   UNL     1      -8.709  10.249  63.022  1.00  0.00    -0.208 A  
HETATM   20  C   UNL     1      -8.175   8.989  63.273  1.00  0.00    -0.181 A  
HETATM   21  C   UNL     1      -8.442   8.356  64.484  1.00  0.00    -0.078 A  
ENDBRANCH  11  12
ENDBRANCH  10  11
ENDBRANCH   7  10
ENDBRANCH   6   7
ENDBRANCH   4   6
ENDBRANCH   2   4
TORSDOF 6
ENDMDL
MODEL      134
REMARK 921   NORMALIZED FREE ENERGY PREDICTED BY IDOCK:   -4.31 KCAL/MOL
REMARK 922        TOTAL FREE ENERGY PREDICTED BY IDOCK:   -6.51 KCAL/MOL
REMARK 923 INTER-LIGAND FREE ENERGY PREDICTED BY IDOCK:   -5.81 KCAL/MOL
REMARK 924 INTRA-LIGAND FREE ENERGY PREDICTED BY IDOCK:   -0.70 KCAL/MOL
REMARK 927      BINDING AFFINITY PREDICTED BY RF-SCORE:    0.00 PKD
ROOT
HETATM    1  C   UNL     1     -11.301   6.137  70.291  1.00  0.00    -0.414 C  
HETATM    2  C   UNL     1     -11.340   6.089  71.818  1.00  0.00    -0.265 C  
HETATM    3  C   UNL     1      -9.913   6.023  72.369  1.00  0.00    -0.190 C  
ENDROOT
BRANCH   2   4
HETATM    4  N   UNL     1     -12.049   7.279  72.293  1.00  0.00    -0.461 NA 
HETATM    5  H   UNL     1     -11.569   7.691  73.093  1.00  0.00     0.000 HD 
BRANCH   4   6
HETATM    6  C   UNL     1     -12.270   8.283  71.244  1.00  0.00    -0.270 C  
BRANCH   6   7
HETATM    7  C   UNL     1     -11.463   9.549  71.567  1.00  0.00    -0.395 C  
HETATM    8  O   UNL     1     -10.096   9.370  71.164  1.00  0.00    -0.296 OA 
HETATM    9  H   UNL     1      -9.597  10.153  71.363  1.00  0.00     0.000 HD 
BRANCH   7  10
HETATM   10  C   UNL     1     -12.047  10.786  70.876  1.00  0.00    -0.370 C  
BRANCH  10  11
HETATM   11  O   UNL     1     -12.356  10.494  69.502  1.00  0.00    -0.191 OA 
BRANCH  11  12
HETATM   12  C   UNL     1     -11.747  11.327  68.585  1.00  0.00    -0.324 A  
HETATM   13  C   UNL     1     -11.835  12.723  68.673  1.00  0.00    -0.341 A  
HETATM   14  C   UNL     1     -11.211  13.537  67.735  1.00  0.00    -0.308 A  
HETATM   15  C   UNL     1     -10.467  12.966  66.709  1.00  0.00    -0.262 A  
HETATM   16  C   UNL     1     -10.325  11.575  66.616  1.00  0.00    -0.262 A  
HETATM   17  C   UNL     1     -10.967  10.730  67.558  1.00  0.00    -0.372 A  
HETATM   18  C   UNL     1     -10.791   9.334  67.408  1.00  0.00    -0.165 A  
HETATM   19  C   UNL     1     -10.006   8.800  66.379  1.00  0.00    -0.346 A  
HETATM   20  C   UNL     1      -9.378   9.647  65.471  1.00  0.00    -0.309 A  
HETATM   21  C   UNL     1      -9.542  11.025  65.589  1.00  0.00    -0.265 A  
ENDBRANCH  11  12
ENDBRANCH  10  11
ENDBRANCH   7  10
ENDBRANCH   6   7
ENDBRANCH   4   6
ENDBRANCH   2   4
TORSDOF 6
ENDMDL
MODEL      135
REMARK 921   NORMALIZED FREE ENERGY PREDICTED BY IDOCK:   -4.31 KCAL/MOL
REMARK 922        TOTAL FREE ENERGY PREDICTED BY IDOCK:   -6.50 KCAL/MOL
REMARK 923 INTER-LIGAND FREE ENERGY PREDICTED BY IDOCK:   -6.36 KCAL/MOL
REMARK 924 INTRA-LIGAND FREE ENERGY PREDICTED BY IDOCK:   -0.15 KCAL/MOL
REMARK 927      BINDING AFFINITY PREDICTED BY RF-SCORE:    0.00 PKD
ROOT
HETATM    1  C   UNL     1     -10.175  12.026  63.237  1.00  0.00    -0.398 C  
HETATM    2  C   UNL     1     -10.352  10.843  64.189  1.00  0.00    -0.364 C  
HETATM    3  C   UNL     1      -9.057  10.028  64.245  1.00  0.00    -0.296 C  
ENDROOT
BRANCH   2   4
HETATM    4  N   UNL     1     -10.719  11.368  65.506  1.00  0.00    -0.272 NA 
HETATM    5  H   UNL     1     -10.116  10.980  66.231  1.00  0.00     0.000 HD 
BRANCH   4   6
HETATM    6  C   UNL     1     -10.727  12.836  65.565  1.00  0.00    -0.278 C  
BRANCH   6   7
HETATM    7  C   UNL     1     -11.935  13.310  66.387  1.00  0.00    -0.410 C  
HETATM    8  O   UNL     1     -13.145  13.095  65.642  1.00  0.00    -0.408 OA 
HETATM    9  H   UNL     1     -13.892  13.388  66.150  1.00  0.00     0.000 HD 
BRANCH   7  10
HETATM   10  C   UNL     1     -12.024  12.586  67.735  1.00  0.00    -0.223 C  
BRANCH  10  11
HETATM   11  O   UNL     1     -10.925  12.965  68.580  1.00  0.00    -0.239 OA 
BRANCH  11  12
HETATM   12  C   UNL     1     -11.098  14.158  69.252  1.00  0.00    -0.250 A  
HETATM   13  C   UNL     1     -10.468  15.342  68.843  1.00  0.00    -0.241 A  
HETATM   14  C   UNL     1     -10.662  16.529  69.538  1.00  0.00    -0.321 A  
HETATM   15  C   UNL     1     -11.511  16.557  70.638  1.00  0.00    -0.027 A  
HETATM   16  C   UNL     1     -12.188  15.401  71.049  1.00  0.00    -0.431 A  
HETATM   17  C   UNL     1     -11.990  14.177  70.358  1.00  0.00    -0.400 A  
HETATM   18  C   UNL     1     -12.698  13.044  70.823  1.00  0.00    -0.243 A  
HETATM   19  C   UNL     1     -13.570  13.120  71.916  1.00  0.00    -0.453 A  
HETATM   20  C   UNL     1     -13.756  14.332  72.574  1.00  0.00    -0.608 A  
HETATM   21  C   UNL     1     -13.065  15.462  72.144  1.00  0.00    -0.496 A  
ENDBRANCH  11  12
ENDBRANCH  10  11
ENDBRANCH   7  10
ENDBRANCH   6   7
ENDBRANCH   4   6
ENDBRANCH   2   4
TORSDOF 6
ENDMDL
MODEL      136
REMARK 921   NORMALIZED FREE ENERGY PREDICTED BY IDOCK:   -4.31 KCAL/MOL
REMARK 922        TOTAL FREE ENERGY PREDICTED BY IDOCK:   -6.50 KCAL/MOL
REMARK 923 INTER-LIGAND FREE ENERGY PREDICTED BY IDOCK:   -6.10 KCAL/MOL
REMARK 924 INTRA-LIGAND FREE ENERGY PREDICTED BY IDOCK:   -0.40 KCAL/MOL
REMARK 927      BINDING AFFINITY PREDICTED BY RF-SCORE:    0.00 PKD
ROOT
HETATM    1  C   UNL     1     -11.532  15.591  71.776  1.00  0.00    -0.504 C  
HETATM    2  C   UNL     1     -12.671  14.887  71.038  1.00  0.00    -0.348 C  
HETATM    3  C   UNL     1     -14.012  15.295  71.651  1.00  0.00    -0.627 C  
ENDROOT
BRANCH   2   4
HETATM    4  N   UNL     1     -12.589  15.250  69.622  1.00  0.00    -0.612 NA 
HETATM    5  H   UNL     1     -12.634  16.262  69.504  1.00  0.00     0.000 HD 
BRANCH   4   6
HETATM    6  C   UNL     1     -11.407  14.698  68.945  1.00  0.00    -0.283 C  
BRANCH   6   7
HETATM    7  C   UNL     1     -11.752  13.326  68.348  1.00  0.00    -0.354 C  
HETATM    8  O   UNL     1     -11.848  13.428  66.918  1.00  0.00    -0.368 OA 
HETATM    9  H   UNL     1     -12.062  12.580  66.548  1.00  0.00     0.000 HD 
BRANCH   7  10
HETATM   10  C   UNL     1     -10.709  12.267  68.719  1.00  0.00    -0.214 C  
BRANCH  10  11
HETATM   11  O   UNL     1     -11.191  10.952  68.393  1.00  0.00    -0.241 OA 
BRANCH  11  12
HETATM   12  C   UNL     1     -11.067  10.025  69.408  1.00  0.00    -0.223 A  
HETATM   13  C   UNL     1     -11.186  10.378  70.759  1.00  0.00    -0.293 A  
HETATM   14  C   UNL     1     -11.058   9.422  71.760  1.00  0.00    -0.325 A  
HETATM   15  C   UNL     1     -10.835   8.093  71.423  1.00  0.00    -0.281 A  
HETATM   16  C   UNL     1     -10.752   7.699  70.081  1.00  0.00    -0.245 A  
HETATM   17  C   UNL     1     -10.867   8.665  69.047  1.00  0.00    -0.043 A  
HETATM   18  C   UNL     1     -10.769   8.206  67.712  1.00  0.00    -0.166 A  
HETATM   19  C   UNL     1     -10.577   6.852  67.413  1.00  0.00    -0.373 A  
HETATM   20  C   UNL     1     -10.475   5.920  68.442  1.00  0.00    -0.294 A  
HETATM   21  C   UNL     1     -10.558   6.344  69.765  1.00  0.00    -0.309 A  
ENDBRANCH  11  12
ENDBRANCH  10  11
ENDBRANCH   7  10
ENDBRANCH   6   7
ENDBRANCH   4   6
ENDBRANCH   2   4
TORSDOF 6
ENDMDL
MODEL      137
REMARK 921   NORMALIZED FREE ENERGY PREDICTED BY IDOCK:   -4.31 KCAL/MOL
REMARK 922        TOTAL FREE ENERGY PREDICTED BY IDOCK:   -6.50 KCAL/MOL
REMARK 923 INTER-LIGAND FREE ENERGY PREDICTED BY IDOCK:   -6.13 KCAL/MOL
REMARK 924 INTRA-LIGAND FREE ENERGY PREDICTED BY IDOCK:   -0.36 KCAL/MOL
REMARK 927      BINDING AFFINITY PREDICTED BY RF-SCORE:    0.00 PKD
ROOT
HETATM    1  C   UNL     1     -12.416  11.843  64.168  1.00  0.00    -0.358 C  
HETATM    2  C   UNL     1     -11.598  12.295  65.378  1.00  0.00    -0.363 C  
HETATM    3  C   UNL     1     -10.651  11.173  65.810  1.00  0.00    -0.289 C  
ENDROOT
BRANCH   2   4
HETATM    4  N   UNL     1     -10.867  13.508  65.006  1.00  0.00    -0.321 NA 
HETATM    5  H   UNL     1     -10.381  13.379  64.119  1.00  0.00     0.000 HD 
BRANCH   4   6
HETATM    6  C   UNL     1     -11.711  14.710  64.969  1.00  0.00    -0.385 C  
BRANCH   6   7
HETATM    7  C   UNL     1     -10.851  15.931  64.614  1.00  0.00    -0.211 C  
HETATM    8  O   UNL     1     -11.645  16.895  63.904  1.00  0.00    -1.259 OA 
HETATM    9  H   UNL     1     -11.113  17.651  63.684  1.00  0.00     0.000 HD 
BRANCH   7  10
HETATM   10  C   UNL     1     -10.244  16.580  65.862  1.00  0.00    -0.349 C  
BRANCH  10  11
HETATM   11  O   UNL     1      -8.809  16.500  65.821  1.00  0.00    -0.474 OA 
BRANCH  11  12
HETATM   12  C   UNL     1      -8.156  17.475  66.547  1.00  0.00    -0.270 A  
HETATM   13  C   UNL     1      -8.438  18.839  66.385  1.00  0.00    -0.296 A  
HETATM   14  C   UNL     1      -7.765  19.799  67.131  1.00  0.00    -0.299 A  
HETATM   15  C   UNL     1      -6.818  19.409  68.070  1.00  0.00    -0.280 A  
HETATM   16  C   UNL     1      -6.542  18.052  68.286  1.00  0.00    -0.201 A  
HETATM   17  C   UNL     1      -7.211  17.059  67.523  1.00  0.00    -0.173 A  
HETATM   18  C   UNL     1      -6.884  15.708  67.783  1.00  0.00    -0.180 A  
HETATM   19  C   UNL     1      -5.947  15.354  68.762  1.00  0.00    -0.095 A  
HETATM   20  C   UNL     1      -5.310  16.343  69.505  1.00  0.00    -0.133 A  
HETATM   21  C   UNL     1      -5.604  17.682  69.263  1.00  0.00    -0.200 A  
ENDBRANCH  11  12
ENDBRANCH  10  11
ENDBRANCH   7  10
ENDBRANCH   6   7
ENDBRANCH   4   6
ENDBRANCH   2   4
TORSDOF 6
ENDMDL
MODEL      138
REMARK 921   NORMALIZED FREE ENERGY PREDICTED BY IDOCK:   -4.31 KCAL/MOL
REMARK 922        TOTAL FREE ENERGY PREDICTED BY IDOCK:   -6.50 KCAL/MOL
REMARK 923 INTER-LIGAND FREE ENERGY PREDICTED BY IDOCK:   -5.62 KCAL/MOL
REMARK 924 INTRA-LIGAND FREE ENERGY PREDICTED BY IDOCK:   -0.88 KCAL/MOL
REMARK 927      BINDING AFFINITY PREDICTED BY RF-SCORE:    0.00 PKD
ROOT
HETATM    1  C   UNL     1      -8.183   9.905  64.279  1.00  0.00    -0.161 C  
HETATM    2  C   UNL     1      -9.528  10.379  64.832  1.00  0.00    -0.265 C  
HETATM    3  C   UNL     1      -9.464  10.446  66.359  1.00  0.00    -0.209 C  
ENDROOT
BRANCH   2   4
HETATM    4  N   UNL     1      -9.827  11.686  64.244  1.00  0.00    -0.329 NA 
HETATM    5  H   UNL     1      -9.347  11.800  63.351  1.00  0.00     0.000 HD 
BRANCH   4   6
HETATM    6  C   UNL     1     -11.266  11.944  64.098  1.00  0.00    -0.376 C  
BRANCH   6   7
HETATM    7  C   UNL     1     -11.498  13.444  63.863  1.00  0.00    -0.309 C  
HETATM    8  O   UNL     1     -12.607  13.631  62.970  1.00  0.00    -0.957 OA 
HETATM    9  H   UNL     1     -12.750  14.559  62.825  1.00  0.00     0.000 HD 
BRANCH   7  10
HETATM   10  C   UNL     1     -11.760  14.190  65.175  1.00  0.00    -0.361 C  
BRANCH  10  11
HETATM   11  O   UNL     1     -11.416  13.363  66.300  1.00  0.00    -0.307 OA 
BRANCH  11  12
HETATM   12  C   UNL     1     -11.166  14.054  67.469  1.00  0.00    -0.309 A  
HETATM   13  C   UNL     1     -12.190  14.409  68.358  1.00  0.00    -0.178 A  
HETATM   14  C   UNL     1     -11.909  15.104  69.528  1.00  0.00    -0.358 A  
HETATM   15  C   UNL     1     -10.595  15.432  69.839  1.00  0.00    -0.315 A  
HETATM   16  C   UNL     1      -9.544  15.058  68.992  1.00  0.00    -0.225 A  
HETATM   17  C   UNL     1      -9.815  14.359  67.787  1.00  0.00    -0.221 A  
HETATM   18  C   UNL     1      -8.712  14.013  66.971  1.00  0.00    -0.220 A  
HETATM   19  C   UNL     1      -7.399  14.334  67.337  1.00  0.00    -0.152 A  
HETATM   20  C   UNL     1      -7.155  15.012  68.527  1.00  0.00    -0.110 A  
HETATM   21  C   UNL     1      -8.222  15.374  69.346  1.00  0.00    -0.250 A  
ENDBRANCH  11  12
ENDBRANCH  10  11
ENDBRANCH   7  10
ENDBRANCH   6   7
ENDBRANCH   4   6
ENDBRANCH   2   4
TORSDOF 6
ENDMDL
MODEL      139
REMARK 921   NORMALIZED FREE ENERGY PREDICTED BY IDOCK:   -4.29 KCAL/MOL
REMARK 922        TOTAL FREE ENERGY PREDICTED BY IDOCK:   -6.48 KCAL/MOL
REMARK 923 INTER-LIGAND FREE ENERGY PREDICTED BY IDOCK:   -5.66 KCAL/MOL
REMARK 924 INTRA-LIGAND FREE ENERGY PREDICTED BY IDOCK:   -0.82 KCAL/MOL
REMARK 927      BINDING AFFINITY PREDICTED BY RF-SCORE:    0.00 PKD
ROOT
HETATM    1  C   UNL     1      -8.193   4.349  69.449  1.00  0.00    -0.068 C  
HETATM    2  C   UNL     1      -9.669   4.747  69.466  1.00  0.00    -0.201 C  
HETATM    3  C   UNL     1     -10.223   4.613  70.887  1.00  0.00    -0.213 C  
ENDROOT
BRANCH   2   4
HETATM    4  N   UNL     1      -9.776   6.121  68.971  1.00  0.00    -0.133 NA 
HETATM    5  H   UNL     1      -9.273   6.766  69.580  1.00  0.00     0.000 HD 
BRANCH   4   6
HETATM    6  C   UNL     1      -9.340   6.273  67.576  1.00  0.00    -0.113 C  
BRANCH   6   7
HETATM    7  C   UNL     1     -10.293   7.227  66.841  1.00  0.00    -0.288 C  
HETATM    8  O   UNL     1     -11.650   6.942  67.214  1.00  0.00    -0.668 OA 
HETATM    9  H   UNL     1     -12.240   7.532  66.760  1.00  0.00     0.000 HD 
BRANCH   7  10
HETATM   10  C   UNL     1      -9.972   8.695  67.144  1.00  0.00    -0.231 C  
BRANCH  10  11
HETATM   11  O   UNL     1      -9.796   8.888  68.558  1.00  0.00    -0.159 OA 
BRANCH  11  12
HETATM   12  C   UNL     1     -10.540   9.918  69.096  1.00  0.00    -0.220 A  
HETATM   13  C   UNL     1     -10.511  11.215  68.564  1.00  0.00    -0.212 A  
HETATM   14  C   UNL     1     -11.272  12.233  69.126  1.00  0.00    -0.300 A  
HETATM   15  C   UNL     1     -12.094  11.963  70.213  1.00  0.00    -0.409 A  
HETATM   16  C   UNL     1     -12.177  10.669  70.744  1.00  0.00    -0.474 A  
HETATM   17  C   UNL     1     -11.397   9.621  70.190  1.00  0.00    -0.275 A  
HETATM   18  C   UNL     1     -11.521   8.338  70.773  1.00  0.00    -0.268 A  
HETATM   19  C   UNL     1     -12.386   8.100  71.848  1.00  0.00    -0.371 A  
HETATM   20  C   UNL     1     -13.149   9.140  72.370  1.00  0.00    -0.493 A  
HETATM   21  C   UNL     1     -13.040  10.416  71.823  1.00  0.00    -0.567 A  
ENDBRANCH  11  12
ENDBRANCH  10  11
ENDBRANCH   7  10
ENDBRANCH   6   7
ENDBRANCH   4   6
ENDBRANCH   2   4
TORSDOF 6
ENDMDL
MODEL      140
REMARK 921   NORMALIZED FREE ENERGY PREDICTED BY IDOCK:   -4.29 KCAL/MOL
REMARK 922        TOTAL FREE ENERGY PREDICTED BY IDOCK:   -6.48 KCAL/MOL
REMARK 923 INTER-LIGAND FREE ENERGY PREDICTED BY IDOCK:   -5.99 KCAL/MOL
REMARK 924 INTRA-LIGAND FREE ENERGY PREDICTED BY IDOCK:   -0.48 KCAL/MOL
REMARK 927      BINDING AFFINITY PREDICTED BY RF-SCORE:    0.00 PKD
ROOT
HETATM    1  C   UNL     1      -8.927   6.760  66.860  1.00  0.00    -0.133 C  
HETATM    2  C   UNL     1      -9.421   7.244  68.224  1.00  0.00    -0.141 C  
HETATM    3  C   UNL     1      -8.266   7.226  69.227  1.00  0.00    -0.131 C  
ENDROOT
BRANCH   2   4
HETATM    4  N   UNL     1      -9.973   8.590  68.057  1.00  0.00    -0.175 NA 
HETATM    5  H   UNL     1     -10.591   8.630  67.246  1.00  0.00     0.000 HD 
BRANCH   4   6
HETATM    6  C   UNL     1     -10.655   9.093  69.257  1.00  0.00    -0.216 C  
BRANCH   6   7
HETATM    7  C   UNL     1     -10.277  10.564  69.483  1.00  0.00    -0.200 C  
HETATM    8  O   UNL     1      -8.851  10.688  69.598  1.00  0.00    -0.394 OA 
HETATM    9  H   UNL     1      -8.617  11.598  69.739  1.00  0.00     0.000 HD 
BRANCH   7  10
HETATM   10  C   UNL     1     -10.784  11.462  68.349  1.00  0.00    -0.203 C  
BRANCH  10  11
HETATM   11  O   UNL     1     -11.937  12.206  68.776  1.00  0.00    -0.306 OA 
BRANCH  11  12
HETATM   12  C   UNL     1     -11.669  13.491  69.202  1.00  0.00    -0.327 A  
HETATM   13  C   UNL     1     -10.890  14.378  68.448  1.00  0.00    -0.256 A  
HETATM   14  C   UNL     1     -10.637  15.668  68.900  1.00  0.00    -0.228 A  
HETATM   15  C   UNL     1     -11.182  16.098  70.104  1.00  0.00    -0.374 A  
HETATM   16  C   UNL     1     -11.999  15.250  70.863  1.00  0.00    -0.391 A  
HETATM   17  C   UNL     1     -12.257  13.926  70.421  1.00  0.00    -0.438 A  
HETATM   18  C   UNL     1     -13.085  13.116  71.233  1.00  0.00    -0.275 A  
HETATM   19  C   UNL     1     -13.642  13.598  72.424  1.00  0.00    -0.703 A  
HETATM   20  C   UNL     1     -13.384  14.903  72.834  1.00  0.00    -0.576 A  
HETATM   21  C   UNL     1     -12.565  15.719  72.060  1.00  0.00    -0.524 A  
ENDBRANCH  11  12
ENDBRANCH  10  11
ENDBRANCH   7  10
ENDBRANCH   6   7
ENDBRANCH   4   6
ENDBRANCH   2   4
TORSDOF 6
ENDMDL
MODEL      141
REMARK 921   NORMALIZED FREE ENERGY PREDICTED BY IDOCK:   -4.29 KCAL/MOL
REMARK 922        TOTAL FREE ENERGY PREDICTED BY IDOCK:   -6.47 KCAL/MOL
REMARK 923 INTER-LIGAND FREE ENERGY PREDICTED BY IDOCK:   -6.02 KCAL/MOL
REMARK 924 INTRA-LIGAND FREE ENERGY PREDICTED BY IDOCK:   -0.44 KCAL/MOL
REMARK 927      BINDING AFFINITY PREDICTED BY RF-SCORE:    0.00 PKD
ROOT
HETATM    1  C   UNL     1     -12.250  14.404  64.207  1.00  0.00    -0.450 C  
HETATM    2  C   UNL     1     -10.868  14.521  64.852  1.00  0.00    -0.421 C  
HETATM    3  C   UNL     1     -11.015  14.951  66.313  1.00  0.00    -0.338 C  
ENDROOT
BRANCH   2   4
HETATM    4  N   UNL     1     -10.200  13.223  64.734  1.00  0.00    -0.529 NA 
HETATM    5  H   UNL     1      -9.199  13.344  64.584  1.00  0.00     0.000 HD 
BRANCH   4   6
HETATM    6  C   UNL     1     -10.453  12.331  65.874  1.00  0.00    -0.256 C  
BRANCH   6   7
HETATM    7  C   UNL     1      -9.696  11.011  65.670  1.00  0.00    -0.232 C  
HETATM    8  O   UNL     1      -8.290  11.271  65.535  1.00  0.00    -0.365 OA 
HETATM    9  H   UNL     1      -7.822  10.455  65.409  1.00  0.00     0.000 HD 
BRANCH   7  10
HETATM   10  C   UNL     1      -9.931  10.038  66.831  1.00  0.00    -0.209 C  
BRANCH  10  11
HETATM   11  O   UNL     1      -9.456  10.604  68.064  1.00  0.00    -0.153 OA 
BRANCH  11  12
HETATM   12  C   UNL     1     -10.268  10.371  69.155  1.00  0.00    -0.222 A  
HETATM   13  C   UNL     1     -11.548  10.929  69.265  1.00  0.00    -0.388 A  
HETATM   14  C   UNL     1     -12.344  10.676  70.375  1.00  0.00    -0.428 A  
HETATM   15  C   UNL     1     -11.881   9.838  71.382  1.00  0.00    -0.488 A  
HETATM   16  C   UNL     1     -10.622   9.230  71.285  1.00  0.00    -0.417 A  
HETATM   17  C   UNL     1      -9.791   9.489  70.163  1.00  0.00    -0.288 A  
HETATM   18  C   UNL     1      -8.529   8.851  70.126  1.00  0.00    -0.150 A  
HETATM   19  C   UNL     1      -8.113   7.987  71.145  1.00  0.00    -0.098 A  
HETATM   20  C   UNL     1      -8.946   7.740  72.232  1.00  0.00    -0.194 A  
HETATM   21  C   UNL     1     -10.190   8.362  72.301  1.00  0.00    -0.396 A  
ENDBRANCH  11  12
ENDBRANCH  10  11
ENDBRANCH   7  10
ENDBRANCH   6   7
ENDBRANCH   4   6
ENDBRANCH   2   4
TORSDOF 6
ENDMDL
MODEL      142
REMARK 921   NORMALIZED FREE ENERGY PREDICTED BY IDOCK:   -4.28 KCAL/MOL
REMARK 922        TOTAL FREE ENERGY PREDICTED BY IDOCK:   -6.46 KCAL/MOL
REMARK 923 INTER-LIGAND FREE ENERGY PREDICTED BY IDOCK:   -5.37 KCAL/MOL
REMARK 924 INTRA-LIGAND FREE ENERGY PREDICTED BY IDOCK:   -1.10 KCAL/MOL
REMARK 927      BINDING AFFINITY PREDICTED BY RF-SCORE:    0.00 PKD
ROOT
HETATM    1  C   UNL     1      -7.519   9.639  70.400  1.00  0.00    -0.168 C  
HETATM    2  C   UNL     1      -7.250  10.467  69.143  1.00  0.00    -0.089 C  
HETATM    3  C   UNL     1      -7.474   9.603  67.899  1.00  0.00    -0.083 C  
ENDROOT
BRANCH   2   4
HETATM    4  N   UNL     1      -8.140  11.629  69.163  1.00  0.00    -0.360 NA 
HETATM    5  H   UNL     1      -7.672  12.436  69.577  1.00  0.00     0.000 HD 
BRANCH   4   6
HETATM    6  C   UNL     1      -8.689  11.966  67.843  1.00  0.00    -0.167 C  
BRANCH   6   7
HETATM    7  C   UNL     1      -9.923  12.864  68.014  1.00  0.00    -0.236 C  
HETATM    8  O   UNL     1     -10.159  13.603  66.805  1.00  0.00    -0.258 OA 
HETATM    9  H   UNL     1     -10.922  14.159  66.911  1.00  0.00     0.000 HD 
BRANCH   7  10
HETATM   10  C   UNL     1     -11.171  12.052  68.374  1.00  0.00    -0.262 C  
BRANCH  10  11
HETATM   11  O   UNL     1     -10.801  10.740  68.831  1.00  0.00    -0.196 OA 
BRANCH  11  12
HETATM   12  C   UNL     1     -11.518  10.285  69.919  1.00  0.00    -0.273 A  
HETATM   13  C   UNL     1     -12.389  11.115  70.638  1.00  0.00    -0.482 A  
HETATM   14  C   UNL     1     -13.099  10.630  71.729  1.00  0.00    -0.571 A  
HETATM   15  C   UNL     1     -12.969   9.298  72.102  1.00  0.00    -0.503 A  
HETATM   16  C   UNL     1     -12.138   8.430  71.381  1.00  0.00    -0.337 A  
HETATM   17  C   UNL     1     -11.396   8.914  70.272  1.00  0.00    -0.179 A  
HETATM   18  C   UNL     1     -10.571   7.991  69.587  1.00  0.00    -0.223 A  
HETATM   19  C   UNL     1     -10.493   6.647  69.975  1.00  0.00    -0.250 A  
HETATM   20  C   UNL     1     -11.236   6.192  71.059  1.00  0.00    -0.361 A  
HETATM   21  C   UNL     1     -12.049   7.080  71.758  1.00  0.00    -0.371 A  
ENDBRANCH  11  12
ENDBRANCH  10  11
ENDBRANCH   7  10
ENDBRANCH   6   7
ENDBRANCH   4   6
ENDBRANCH   2   4
TORSDOF 6
ENDMDL
MODEL      143
REMARK 921   NORMALIZED FREE ENERGY PREDICTED BY IDOCK:   -4.26 KCAL/MOL
REMARK 922        TOTAL FREE ENERGY PREDICTED BY IDOCK:   -6.43 KCAL/MOL
REMARK 923 INTER-LIGAND FREE ENERGY PREDICTED BY IDOCK:   -5.86 KCAL/MOL
REMARK 924 INTRA-LIGAND FREE ENERGY PREDICTED BY IDOCK:   -0.57 KCAL/MOL
REMARK 927      BINDING AFFINITY PREDICTED BY RF-SCORE:    0.00 PKD
ROOT
HETATM    1  C   UNL     1     -12.092  13.099  63.341  1.00  0.00    -0.558 C  
HETATM    2  C   UNL     1     -11.471  11.946  64.131  1.00  0.00    -0.370 C  
HETATM    3  C   UNL     1     -10.226  11.434  63.404  1.00  0.00    -0.457 C  
ENDROOT
BRANCH   2   4
HETATM    4  N   UNL     1     -11.152  12.435  65.474  1.00  0.00    -0.290 NA 
HETATM    5  H   UNL     1     -10.277  12.959  65.470  1.00  0.00     0.000 HD 
BRANCH   4   6
HETATM    6  C   UNL     1     -12.231  13.227  66.079  1.00  0.00    -0.424 C  
BRANCH   6   7
HETATM    7  C   UNL     1     -11.628  14.313  66.981  1.00  0.00    -0.386 C  
HETATM    8  O   UNL     1     -12.491  14.547  68.105  1.00  0.00    -0.589 OA 
HETATM    9  H   UNL     1     -12.118  15.219  68.663  1.00  0.00     0.000 HD 
BRANCH   7  10
HETATM   10  C   UNL     1     -10.230  13.928  67.475  1.00  0.00    -0.245 C  
BRANCH  10  11
HETATM   11  O   UNL     1      -9.234  14.769  66.867  1.00  0.00    -0.219 OA 
BRANCH  11  12
HETATM   12  C   UNL     1      -8.348  15.346  67.754  1.00  0.00    -0.147 A  
HETATM   13  C   UNL     1      -7.510  14.580  68.575  1.00  0.00    -0.123 A  
HETATM   14  C   UNL     1      -6.626  15.188  69.458  1.00  0.00    -0.163 A  
HETATM   15  C   UNL     1      -6.549  16.575  69.514  1.00  0.00    -0.217 A  
HETATM   16  C   UNL     1      -7.343  17.370  68.678  1.00  0.00    -0.244 A  
HETATM   17  C   UNL     1      -8.261  16.764  67.780  1.00  0.00    -0.190 A  
HETATM   18  C   UNL     1      -9.039  17.621  66.967  1.00  0.00    -0.256 A  
HETATM   19  C   UNL     1      -8.907  19.013  67.030  1.00  0.00    -0.309 A  
HETATM   20  C   UNL     1      -7.996  19.587  67.911  1.00  0.00    -0.336 A  
HETATM   21  C   UNL     1      -7.223  18.769  68.731  1.00  0.00    -0.336 A  
ENDBRANCH  11  12
ENDBRANCH  10  11
ENDBRANCH   7  10
ENDBRANCH   6   7
ENDBRANCH   4   6
ENDBRANCH   2   4
TORSDOF 6
ENDMDL
MODEL      144
REMARK 921   NORMALIZED FREE ENERGY PREDICTED BY IDOCK:   -4.25 KCAL/MOL
REMARK 922        TOTAL FREE ENERGY PREDICTED BY IDOCK:   -6.42 KCAL/MOL
REMARK 923 INTER-LIGAND FREE ENERGY PREDICTED BY IDOCK:   -5.57 KCAL/MOL
REMARK 924 INTRA-LIGAND FREE ENERGY PREDICTED BY IDOCK:   -0.86 KCAL/MOL
REMARK 927      BINDING AFFINITY PREDICTED BY RF-SCORE:    0.00 PKD
ROOT
HETATM    1  C   UNL     1     -13.127  11.941  63.305  1.00  0.00     0.005 C  
HETATM    2  C   UNL     1     -12.086  12.993  63.689  1.00  0.00    -0.531 C  
HETATM    3  C   UNL     1     -12.507  13.684  64.989  1.00  0.00    -0.454 C  
ENDROOT
BRANCH   2   4
HETATM    4  N   UNL     1     -10.791  12.325  63.826  1.00  0.00    -0.402 NA 
HETATM    5  H   UNL     1     -10.127  12.920  64.321  1.00  0.00     0.000 HD 
BRANCH   4   6
HETATM    6  C   UNL     1     -10.881  11.003  64.462  1.00  0.00    -0.187 C  
BRANCH   6   7
HETATM    7  C   UNL     1      -9.667  10.790  65.377  1.00  0.00    -0.245 C  
HETATM    8  O   UNL     1      -8.814  11.945  65.332  1.00  0.00    -0.401 OA 
HETATM    9  H   UNL     1      -8.063  11.813  65.898  1.00  0.00     0.000 HD 
BRANCH   7  10
HETATM   10  C   UNL     1     -10.089  10.517  66.825  1.00  0.00    -0.219 C  
BRANCH  10  11
HETATM   11  O   UNL     1      -9.554  11.524  67.701  1.00  0.00    -0.167 OA 
BRANCH  11  12
HETATM   12  C   UNL     1     -10.496  12.173  68.474  1.00  0.00    -0.233 A  
HETATM   13  C   UNL     1     -11.232  11.510  69.465  1.00  0.00    -0.305 A  
HETATM   14  C   UNL     1     -12.173  12.189  70.229  1.00  0.00    -0.344 A  
HETATM   15  C   UNL     1     -12.373  13.550  70.032  1.00  0.00    -0.315 A  
HETATM   16  C   UNL     1     -11.624  14.253  69.078  1.00  0.00    -0.342 A  
HETATM   17  C   UNL     1     -10.669  13.570  68.280  1.00  0.00    -0.271 A  
HETATM   18  C   UNL     1      -9.949  14.333  67.331  1.00  0.00    -0.242 A  
HETATM   19  C   UNL     1     -10.156  15.710  67.186  1.00  0.00    -0.256 A  
HETATM   20  C   UNL     1     -11.091  16.361  67.985  1.00  0.00    -0.292 A  
HETATM   21  C   UNL     1     -11.822  15.634  68.921  1.00  0.00    -0.368 A  
ENDBRANCH  11  12
ENDBRANCH  10  11
ENDBRANCH   7  10
ENDBRANCH   6   7
ENDBRANCH   4   6
ENDBRANCH   2   4
TORSDOF 6
ENDMDL
MODEL      145
REMARK 921   NORMALIZED FREE ENERGY PREDICTED BY IDOCK:   -4.24 KCAL/MOL
REMARK 922        TOTAL FREE ENERGY PREDICTED BY IDOCK:   -6.41 KCAL/MOL
REMARK 923 INTER-LIGAND FREE ENERGY PREDICTED BY IDOCK:   -5.69 KCAL/MOL
REMARK 924 INTRA-LIGAND FREE ENERGY PREDICTED BY IDOCK:   -0.72 KCAL/MOL
REMARK 927      BINDING AFFINITY PREDICTED BY RF-SCORE:    0.00 PKD
ROOT
HETATM    1  C   UNL     1      -5.516  15.668  68.995  1.00  0.00    -0.103 C  
HETATM    2  C   UNL     1      -6.873  15.539  69.689  1.00  0.00    -0.178 C  
HETATM    3  C   UNL     1      -7.942  16.267  68.870  1.00  0.00    -0.230 C  
ENDROOT
BRANCH   2   4
HETATM    4  N   UNL     1      -7.178  14.114  69.832  1.00  0.00    -0.366 NA 
HETATM    5  H   UNL     1      -8.181  13.950  69.760  1.00  0.00     0.000 HD 
BRANCH   4   6
HETATM    6  C   UNL     1      -6.440  13.263  68.889  1.00  0.00    -0.100 C  
BRANCH   6   7
HETATM    7  C   UNL     1      -6.979  11.827  68.964  1.00  0.00    -0.107 C  
HETATM    8  O   UNL     1      -6.902  11.348  70.316  1.00  0.00    -0.475 OA 
HETATM    9  H   UNL     1      -7.235  10.460  70.362  1.00  0.00     0.000 HD 
BRANCH   7  10
HETATM   10  C   UNL     1      -8.426  11.737  68.467  1.00  0.00    -0.125 C  
BRANCH  10  11
HETATM   11  O   UNL     1      -8.576  12.452  67.229  1.00  0.00    -0.170 OA 
BRANCH  11  12
HETATM   12  C   UNL     1      -9.844  12.946  66.998  1.00  0.00    -0.233 A  
HETATM   13  C   UNL     1     -10.470  13.834  67.883  1.00  0.00    -0.247 A  
HETATM   14  C   UNL     1     -11.747  14.316  67.625  1.00  0.00    -0.421 A  
HETATM   15  C   UNL     1     -12.408  13.937  66.463  1.00  0.00    -0.447 A  
HETATM   16  C   UNL     1     -11.795  13.083  65.537  1.00  0.00    -0.438 A  
HETATM   17  C   UNL     1     -10.496  12.571  65.792  1.00  0.00    -0.296 A  
HETATM   18  C   UNL     1      -9.933  11.709  64.822  1.00  0.00    -0.292 A  
HETATM   19  C   UNL     1     -10.619  11.378  63.648  1.00  0.00    -0.476 A  
HETATM   20  C   UNL     1     -11.888  11.897  63.413  1.00  0.00    -0.512 A  
HETATM   21  C   UNL     1     -12.472  12.740  64.355  1.00  0.00    -0.476 A  
ENDBRANCH  11  12
ENDBRANCH  10  11
ENDBRANCH   7  10
ENDBRANCH   6   7
ENDBRANCH   4   6
ENDBRANCH   2   4
TORSDOF 6
ENDMDL
MODEL      146
REMARK 921   NORMALIZED FREE ENERGY PREDICTED BY IDOCK:   -4.23 KCAL/MOL
REMARK 922        TOTAL FREE ENERGY PREDICTED BY IDOCK:   -6.39 KCAL/MOL
REMARK 923 INTER-LIGAND FREE ENERGY PREDICTED BY IDOCK:   -5.92 KCAL/MOL
REMARK 924 INTRA-LIGAND FREE ENERGY PREDICTED BY IDOCK:   -0.47 KCAL/MOL
REMARK 927      BINDING AFFINITY PREDICTED BY RF-SCORE:    0.00 PKD
ROOT
HETATM    1  C   UNL     1     -11.569  10.997  70.136  1.00  0.00    -0.421 C  
HETATM    2  C   UNL     1     -12.013  12.152  69.238  1.00  0.00    -0.262 C  
HETATM    3  C   UNL     1     -12.071  13.447  70.053  1.00  0.00    -0.404 C  
ENDROOT
BRANCH   2   4
HETATM    4  N   UNL     1     -11.067  12.254  68.126  1.00  0.00    -0.224 NA 
HETATM    5  H   UNL     1     -11.541  12.116  67.234  1.00  0.00     0.000 HD 
BRANCH   4   6
HETATM    6  C   UNL     1     -10.305  13.510  68.122  1.00  0.00    -0.247 C  
BRANCH   6   7
HETATM    7  C   UNL     1      -9.222  13.450  67.035  1.00  0.00    -0.242 C  
HETATM    8  O   UNL     1      -9.744  13.963  65.799  1.00  0.00    -0.435 OA 
HETATM    9  H   UNL     1      -9.074  13.926  65.127  1.00  0.00     0.000 HD 
BRANCH   7  10
HETATM   10  C   UNL     1      -7.972  14.241  67.435  1.00  0.00    -0.192 C  
BRANCH  10  11
HETATM   11  O   UNL     1      -8.342  15.502  68.018  1.00  0.00    -0.139 OA 
BRANCH  11  12
HETATM   12  C   UNL     1      -7.851  16.610  67.356  1.00  0.00    -0.165 A  
HETATM   13  C   UNL     1      -6.547  16.656  66.847  1.00  0.00    -0.242 A  
HETATM   14  C   UNL     1      -6.080  17.784  66.184  1.00  0.00    -0.261 A  
HETATM   15  C   UNL     1      -6.920  18.875  65.997  1.00  0.00    -0.294 A  
HETATM   16  C   UNL     1      -8.243  18.846  66.457  1.00  0.00    -0.306 A  
HETATM   17  C   UNL     1      -8.732  17.706  67.148  1.00  0.00    -0.252 A  
HETATM   18  C   UNL     1     -10.074  17.739  67.593  1.00  0.00    -0.342 A  
HETATM   19  C   UNL     1     -10.900  18.845  67.356  1.00  0.00    -0.449 A  
HETATM   20  C   UNL     1     -10.403  19.948  66.669  1.00  0.00    -0.608 A  
HETATM   21  C   UNL     1      -9.083  19.948  66.227  1.00  0.00    -0.436 A  
ENDBRANCH  11  12
ENDBRANCH  10  11
ENDBRANCH   7  10
ENDBRANCH   6   7
ENDBRANCH   4   6
ENDBRANCH   2   4
TORSDOF 6
ENDMDL
MODEL      147
REMARK 921   NORMALIZED FREE ENERGY PREDICTED BY IDOCK:   -4.22 KCAL/MOL
REMARK 922        TOTAL FREE ENERGY PREDICTED BY IDOCK:   -6.38 KCAL/MOL
REMARK 923 INTER-LIGAND FREE ENERGY PREDICTED BY IDOCK:   -6.05 KCAL/MOL
REMARK 924 INTRA-LIGAND FREE ENERGY PREDICTED BY IDOCK:   -0.33 KCAL/MOL
REMARK 927      BINDING AFFINITY PREDICTED BY RF-SCORE:    0.00 PKD
ROOT
HETATM    1  C   UNL     1      -7.176   8.276  64.710  1.00  0.00    -0.082 C  
HETATM    2  C   UNL     1      -7.544   9.188  63.539  1.00  0.00    -0.109 C  
HETATM    3  C   UNL     1      -8.077   8.347  62.377  1.00  0.00    -0.175 C  
ENDROOT
BRANCH   2   4
HETATM    4  N   UNL     1      -8.539  10.154  64.010  1.00  0.00    -0.178 NA 
HETATM    5  H   UNL     1      -8.085  10.984  64.391  1.00  0.00     0.000 HD 
BRANCH   4   6
HETATM    6  C   UNL     1      -9.524  10.523  62.984  1.00  0.00    -0.335 C  
BRANCH   6   7
HETATM    7  C   UNL     1     -10.368  11.704  63.484  1.00  0.00    -0.441 C  
HETATM    8  O   UNL     1     -11.730  11.543  63.058  1.00  0.00    -0.872 OA 
HETATM    9  H   UNL     1     -12.253  12.274  63.367  1.00  0.00     0.000 HD 
BRANCH   7  10
HETATM   10  C   UNL     1     -10.317  11.834  65.010  1.00  0.00    -0.281 C  
BRANCH  10  11
HETATM   11  O   UNL     1     -11.593  12.254  65.520  1.00  0.00    -0.354 OA 
BRANCH  11  12
HETATM   12  C   UNL     1     -11.657  12.360  66.895  1.00  0.00    -0.370 A  
HETATM   13  C   UNL     1     -11.867  11.247  67.720  1.00  0.00    -0.164 A  
HETATM   14  C   UNL     1     -11.926  11.383  69.101  1.00  0.00    -0.395 A  
HETATM   15  C   UNL     1     -11.749  12.633  69.681  1.00  0.00    -0.373 A  
HETATM   16  C   UNL     1     -11.497  13.761  68.888  1.00  0.00    -0.344 A  
HETATM   17  C   UNL     1     -11.447  13.640  67.475  1.00  0.00    -0.360 A  
HETATM   18  C   UNL     1     -11.195  14.816  66.729  1.00  0.00    -0.344 A  
HETATM   19  C   UNL     1     -10.990  16.052  67.354  1.00  0.00    -0.237 A  
HETATM   20  C   UNL     1     -11.034  16.146  68.741  1.00  0.00    -0.330 A  
HETATM   21  C   UNL     1     -11.291  15.008  69.501  1.00  0.00    -0.308 A  
ENDBRANCH  11  12
ENDBRANCH  10  11
ENDBRANCH   7  10
ENDBRANCH   6   7
ENDBRANCH   4   6
ENDBRANCH   2   4
TORSDOF 6
ENDMDL
MODEL      148
REMARK 921   NORMALIZED FREE ENERGY PREDICTED BY IDOCK:   -4.22 KCAL/MOL
REMARK 922        TOTAL FREE ENERGY PREDICTED BY IDOCK:   -6.38 KCAL/MOL
REMARK 923 INTER-LIGAND FREE ENERGY PREDICTED BY IDOCK:   -6.00 KCAL/MOL
REMARK 924 INTRA-LIGAND FREE ENERGY PREDICTED BY IDOCK:   -0.38 KCAL/MOL
REMARK 927      BINDING AFFINITY PREDICTED BY RF-SCORE:    0.00 PKD
ROOT
HETATM    1  C   UNL     1     -10.632  13.805  64.710  1.00  0.00    -0.444 C  
HETATM    2  C   UNL     1     -12.069  13.288  64.767  1.00  0.00    -0.409 C  
HETATM    3  C   UNL     1     -12.230  12.102  63.812  1.00  0.00    -0.630 C  
ENDROOT
BRANCH   2   4
HETATM    4  N   UNL     1     -12.364  12.912  66.152  1.00  0.00    -0.509 NA 
HETATM    5  H   UNL     1     -13.355  12.701  66.266  1.00  0.00     0.000 HD 
BRANCH   4   6
HETATM    6  C   UNL     1     -11.534  11.804  66.644  1.00  0.00    -0.267 C  
BRANCH   6   7
HETATM    7  C   UNL     1     -11.493  11.835  68.178  1.00  0.00    -0.316 C  
HETATM    8  O   UNL     1     -12.596  11.085  68.710  1.00  0.00    -0.637 OA 
HETATM    9  H   UNL     1     -12.571  11.105  69.659  1.00  0.00     0.000 HD 
BRANCH   7  10
HETATM   10  C   UNL     1     -10.176  11.272  68.722  1.00  0.00    -0.202 C  
BRANCH  10  11
HETATM   11  O   UNL     1     -10.424  10.422  69.855  1.00  0.00    -0.255 OA 
BRANCH  11  12
HETATM   12  C   UNL     1     -10.004   9.116  69.699  1.00  0.00    -0.190 A  
HETATM   13  C   UNL     1      -9.335   8.681  68.547  1.00  0.00    -0.138 A  
HETATM   14  C   UNL     1      -8.922   7.361  68.418  1.00  0.00    -0.134 A  
HETATM   15  C   UNL     1      -9.149   6.461  69.452  1.00  0.00    -0.140 A  
HETATM   16  C   UNL     1      -9.779   6.872  70.634  1.00  0.00    -0.180 A  
HETATM   17  C   UNL     1     -10.219   8.214  70.776  1.00  0.00    -0.215 A  
HETATM   18  C   UNL     1     -10.853   8.567  71.990  1.00  0.00    -0.405 A  
HETATM   19  C   UNL     1     -11.033   7.637  73.022  1.00  0.00    -0.457 A  
HETATM   20  C   UNL     1     -10.587   6.329  72.865  1.00  0.00    -0.257 A  
HETATM   21  C   UNL     1      -9.968   5.950  71.677  1.00  0.00    -0.213 A  
ENDBRANCH  11  12
ENDBRANCH  10  11
ENDBRANCH   7  10
ENDBRANCH   6   7
ENDBRANCH   4   6
ENDBRANCH   2   4
TORSDOF 6
ENDMDL
MODEL      149
REMARK 921   NORMALIZED FREE ENERGY PREDICTED BY IDOCK:   -4.21 KCAL/MOL
REMARK 922        TOTAL FREE ENERGY PREDICTED BY IDOCK:   -6.37 KCAL/MOL
REMARK 923 INTER-LIGAND FREE ENERGY PREDICTED BY IDOCK:   -5.95 KCAL/MOL
REMARK 924 INTRA-LIGAND FREE ENERGY PREDICTED BY IDOCK:   -0.42 KCAL/MOL
REMARK 927      BINDING AFFINITY PREDICTED BY RF-SCORE:    0.00 PKD
ROOT
HETATM    1  C   UNL     1     -10.395   4.961  66.276  1.00  0.00    -0.336 C  
HETATM    2  C   UNL     1     -10.658   5.789  67.534  1.00  0.00    -0.253 C  
HETATM    3  C   UNL     1      -9.418   5.774  68.430  1.00  0.00    -0.137 C  
ENDROOT
BRANCH   2   4
HETATM    4  N   UNL     1     -11.011   7.148  67.120  1.00  0.00    -0.549 NA 
HETATM    5  H   UNL     1     -11.427   7.666  67.894  1.00  0.00     0.000 HD 
BRANCH   4   6
HETATM    6  C   UNL     1      -9.884   7.892  66.541  1.00  0.00    -0.202 C  
BRANCH   6   7
HETATM    7  C   UNL     1      -9.743   9.246  67.252  1.00  0.00    -0.167 C  
HETATM    8  O   UNL     1      -9.167  10.209  66.355  1.00  0.00    -0.152 OA 
HETATM    9  H   UNL     1      -9.079  11.046  66.795  1.00  0.00     0.000 HD 
BRANCH   7  10
HETATM   10  C   UNL     1     -11.092   9.761  67.765  1.00  0.00    -0.075 C  
BRANCH  10  11
HETATM   11  O   UNL     1     -10.895  10.836  68.699  1.00  0.00    -0.189 OA 
BRANCH  11  12
HETATM   12  C   UNL     1     -11.731  10.806  69.797  1.00  0.00    -0.324 A  
HETATM   13  C   UNL     1     -12.093   9.606  70.425  1.00  0.00    -0.115 A  
HETATM   14  C   UNL     1     -12.936   9.606  71.529  1.00  0.00    -0.486 A  
HETATM   15  C   UNL     1     -13.409  10.808  72.040  1.00  0.00    -0.403 A  
HETATM   16  C   UNL     1     -13.034  12.028  71.461  1.00  0.00    -0.407 A  
HETATM   17  C   UNL     1     -12.184  12.045  70.324  1.00  0.00    -0.348 A  
HETATM   18  C   UNL     1     -11.846  13.307  69.782  1.00  0.00    -0.394 A  
HETATM   19  C   UNL     1     -12.317  14.499  70.346  1.00  0.00    -0.400 A  
HETATM   20  C   UNL     1     -13.142  14.460  71.466  1.00  0.00    -0.411 A  
HETATM   21  C   UNL     1     -13.500  13.232  72.015  1.00  0.00    -0.596 A  
ENDBRANCH  11  12
ENDBRANCH  10  11
ENDBRANCH   7  10
ENDBRANCH   6   7
ENDBRANCH   4   6
ENDBRANCH   2   4
TORSDOF 6
ENDMDL
MODEL      150
REMARK 921   NORMALIZED FREE ENERGY PREDICTED BY IDOCK:   -4.21 KCAL/MOL
REMARK 922        TOTAL FREE ENERGY PREDICTED BY IDOCK:   -6.36 KCAL/MOL
REMARK 923 INTER-LIGAND FREE ENERGY PREDICTED BY IDOCK:   -5.78 KCAL/MOL
REMARK 924 INTRA-LIGAND FREE ENERGY PREDICTED BY IDOCK:   -0.58 KCAL/MOL
REMARK 927      BINDING AFFINITY PREDICTED BY RF-SCORE:    0.00 PKD
ROOT
HETATM    1  C   UNL     1     -11.500  14.287  65.238  1.00  0.00    -0.344 C  
HETATM    2  C   UNL     1     -12.425  13.072  65.177  1.00  0.00    -0.496 C  
HETATM    3  C   UNL     1     -12.271  12.374  63.823  1.00  0.00    -0.626 C  
ENDROOT
BRANCH   2   4
HETATM    4  N   UNL     1     -12.082  12.181  66.287  1.00  0.00    -0.589 NA 
HETATM    5  H   UNL     1     -11.345  11.530  66.015  1.00  0.00     0.000 HD 
BRANCH   4   6
HETATM    6  C   UNL     1     -11.716  12.897  67.517  1.00  0.00    -0.367 C  
BRANCH   6   7
HETATM    7  C   UNL     1     -10.345  12.410  68.006  1.00  0.00    -0.216 C  
HETATM    8  O   UNL     1      -9.709  13.441  68.778  1.00  0.00    -0.396 OA 
HETATM    9  H   UNL     1      -8.860  13.140  69.080  1.00  0.00     0.000 HD 
BRANCH   7  10
HETATM   10  C   UNL     1     -10.462  11.135  68.848  1.00  0.00    -0.207 C  
BRANCH  10  11
HETATM   11  O   UNL     1     -11.252  10.151  68.159  1.00  0.00    -0.258 OA 
BRANCH  11  12
HETATM   12  C   UNL     1     -10.524   9.137  67.569  1.00  0.00    -0.270 A  
HETATM   13  C   UNL     1      -9.868   9.307  66.343  1.00  0.00    -0.347 A  
HETATM   14  C   UNL     1      -9.141   8.269  65.773  1.00  0.00    -0.169 A  
HETATM   15  C   UNL     1      -9.038   7.052  66.434  1.00  0.00    -0.189 A  
HETATM   16  C   UNL     1      -9.647   6.861  67.681  1.00  0.00    -0.143 A  
HETATM   17  C   UNL     1     -10.404   7.907  68.271  1.00  0.00    -0.239 A  
HETATM   18  C   UNL     1     -11.000   7.652  69.529  1.00  0.00    -0.108 A  
HETATM   19  C   UNL     1     -10.844   6.422  70.179  1.00  0.00    -0.355 A  
HETATM   20  C   UNL     1     -10.090   5.413  69.587  1.00  0.00    -0.319 A  
HETATM   21  C   UNL     1      -9.501   5.632  68.345  1.00  0.00    -0.142 A  
ENDBRANCH  11  12
ENDBRANCH  10  11
ENDBRANCH   7  10
ENDBRANCH   6   7
ENDBRANCH   4   6
ENDBRANCH   2   4
TORSDOF 6
ENDMDL
MODEL      151
REMARK 921   NORMALIZED FREE ENERGY PREDICTED BY IDOCK:   -4.20 KCAL/MOL
REMARK 922        TOTAL FREE ENERGY PREDICTED BY IDOCK:   -6.35 KCAL/MOL
REMARK 923 INTER-LIGAND FREE ENERGY PREDICTED BY IDOCK:   -5.81 KCAL/MOL
REMARK 924 INTRA-LIGAND FREE ENERGY PREDICTED BY IDOCK:   -0.53 KCAL/MOL
REMARK 927      BINDING AFFINITY PREDICTED BY RF-SCORE:    0.00 PKD
ROOT
HETATM    1  C   UNL     1     -10.835   6.205  71.010  1.00  0.00    -0.338 C  
HETATM    2  C   UNL     1     -12.137   6.952  70.716  1.00  0.00    -0.349 C  
HETATM    3  C   UNL     1     -13.077   6.843  71.920  1.00  0.00    -0.239 C  
ENDROOT
BRANCH   2   4
HETATM    4  N   UNL     1     -11.804   8.345  70.413  1.00  0.00    -0.476 NA 
HETATM    5  H   UNL     1     -12.371   8.982  70.971  1.00  0.00     0.000 HD 
BRANCH   4   6
HETATM    6  C   UNL     1     -10.375   8.649  70.564  1.00  0.00    -0.202 C  
BRANCH   6   7
HETATM    7  C   UNL     1      -9.841   9.268  69.264  1.00  0.00    -0.172 C  
HETATM    8  O   UNL     1     -10.512   8.685  68.136  1.00  0.00    -0.246 OA 
HETATM    9  H   UNL     1     -10.181   9.067  67.332  1.00  0.00     0.000 HD 
BRANCH   7  10
HETATM   10  C   UNL     1     -10.023  10.789  69.243  1.00  0.00    -0.159 C  
BRANCH  10  11
HETATM   11  O   UNL     1     -11.389  11.126  68.947  1.00  0.00    -0.227 OA 
BRANCH  11  12
HETATM   12  C   UNL     1     -11.855  12.258  69.586  1.00  0.00    -0.324 A  
HETATM   13  C   UNL     1     -12.531  12.196  70.813  1.00  0.00    -0.362 A  
HETATM   14  C   UNL     1     -12.988  13.352  71.434  1.00  0.00    -0.412 A  
HETATM   15  C   UNL     1     -12.753  14.590  70.850  1.00  0.00    -0.411 A  
HETATM   16  C   UNL     1     -12.045  14.691  69.645  1.00  0.00    -0.355 A  
HETATM   17  C   UNL     1     -11.583  13.519  68.991  1.00  0.00    -0.356 A  
HETATM   18  C   UNL     1     -10.880  13.685  67.775  1.00  0.00    -0.266 A  
HETATM   19  C   UNL     1     -10.634  14.954  67.236  1.00  0.00    -0.272 A  
HETATM   20  C   UNL     1     -11.089  16.091  67.898  1.00  0.00    -0.307 A  
HETATM   21  C   UNL     1     -11.793  15.957  69.092  1.00  0.00    -0.340 A  
ENDBRANCH  11  12
ENDBRANCH  10  11
ENDBRANCH   7  10
ENDBRANCH   6   7
ENDBRANCH   4   6
ENDBRANCH   2   4
TORSDOF 6
ENDMDL
MODEL      152
REMARK 921   NORMALIZED FREE ENERGY PREDICTED BY IDOCK:   -4.19 KCAL/MOL
REMARK 922        TOTAL FREE ENERGY PREDICTED BY IDOCK:   -6.34 KCAL/MOL
REMARK 923 INTER-LIGAND FREE ENERGY PREDICTED BY IDOCK:   -5.93 KCAL/MOL
REMARK 924 INTRA-LIGAND FREE ENERGY PREDICTED BY IDOCK:   -0.41 KCAL/MOL
REMARK 927      BINDING AFFINITY PREDICTED BY RF-SCORE:    0.00 PKD
ROOT
HETATM    1  C   UNL     1      -6.267  10.126  63.915  1.00  0.00    -0.133 C  
HETATM    2  C   UNL     1      -7.719   9.695  63.704  1.00  0.00    -0.129 C  
HETATM    3  C   UNL     1      -8.161   8.790  64.856  1.00  0.00    -0.160 C  
ENDROOT
BRANCH   2   4
HETATM    4  N   UNL     1      -8.544  10.902  63.615  1.00  0.00    -0.363 NA 
HETATM    5  H   UNL     1      -8.963  10.986  62.689  1.00  0.00     0.000 HD 
BRANCH   4   6
HETATM    6  C   UNL     1      -9.572  10.984  64.662  1.00  0.00    -0.254 C  
BRANCH   6   7
HETATM    7  C   UNL     1     -10.571  12.097  64.315  1.00  0.00    -0.345 C  
HETATM    8  O   UNL     1     -11.587  11.584  63.439  1.00  0.00    -0.731 OA 
HETATM    9  H   UNL     1     -12.205  12.272  63.225  1.00  0.00     0.000 HD 
BRANCH   7  10
HETATM   10  C   UNL     1     -11.221  12.688  65.570  1.00  0.00    -0.302 C  
BRANCH  10  11
HETATM   11  O   UNL     1     -10.644  12.109  66.753  1.00  0.00    -0.219 OA 
BRANCH  11  12
HETATM   12  C   UNL     1     -11.171  12.578  67.940  1.00  0.00    -0.264 A  
HETATM   13  C   UNL     1     -11.529  13.921  68.117  1.00  0.00    -0.346 A  
HETATM   14  C   UNL     1     -12.058  14.366  69.322  1.00  0.00    -0.336 A  
HETATM   15  C   UNL     1     -12.261  13.467  70.362  1.00  0.00    -0.415 A  
HETATM   16  C   UNL     1     -11.952  12.109  70.205  1.00  0.00    -0.394 A  
HETATM   17  C   UNL     1     -11.399  11.641  68.984  1.00  0.00    -0.337 A  
HETATM   18  C   UNL     1     -11.103  10.261  68.888  1.00  0.00    -0.278 A  
HETATM   19  C   UNL     1     -11.354   9.381  69.948  1.00  0.00    -0.121 A  
HETATM   20  C   UNL     1     -11.905   9.859  71.133  1.00  0.00    -0.472 A  
HETATM   21  C   UNL     1     -12.197  11.214  71.259  1.00  0.00    -0.328 A  
ENDBRANCH  11  12
ENDBRANCH  10  11
ENDBRANCH   7  10
ENDBRANCH   6   7
ENDBRANCH   4   6
ENDBRANCH   2   4
TORSDOF 6
ENDMDL
MODEL      153
REMARK 921   NORMALIZED FREE ENERGY PREDICTED BY IDOCK:   -4.18 KCAL/MOL
REMARK 922        TOTAL FREE ENERGY PREDICTED BY IDOCK:   -6.33 KCAL/MOL
REMARK 923 INTER-LIGAND FREE ENERGY PREDICTED BY IDOCK:   -6.02 KCAL/MOL
REMARK 924 INTRA-LIGAND FREE ENERGY PREDICTED BY IDOCK:   -0.30 KCAL/MOL
REMARK 927      BINDING AFFINITY PREDICTED BY RF-SCORE:    0.00 PKD
ROOT
HETATM    1  C   UNL     1      -9.514   7.938  72.767  1.00  0.00    -0.304 C  
HETATM    2  C   UNL     1     -10.492   6.945  72.138  1.00  0.00    -0.206 C  
HETATM    3  C   UNL     1     -10.329   5.573  72.797  1.00  0.00    -0.230 C  
ENDROOT
BRANCH   2   4
HETATM    4  N   UNL     1     -11.848   7.470  72.308  1.00  0.00    -0.374 NA 
HETATM    5  H   UNL     1     -12.267   7.119  73.169  1.00  0.00     0.000 HD 
BRANCH   4   6
HETATM    6  C   UNL     1     -11.915   8.937  72.255  1.00  0.00    -0.310 C  
BRANCH   6   7
HETATM    7  C   UNL     1     -12.445   9.378  70.883  1.00  0.00    -0.166 C  
HETATM    8  O   UNL     1     -13.879   9.455  70.917  1.00  0.00    -0.558 OA 
HETATM    9  H   UNL     1     -14.207   9.727  70.069  1.00  0.00     0.000 HD 
BRANCH   7  10
HETATM   10  C   UNL     1     -11.866  10.732  70.459  1.00  0.00    -0.356 C  
BRANCH  10  11
HETATM   11  O   UNL     1     -12.544  11.223  69.291  1.00  0.00    -0.289 OA 
BRANCH  11  12
HETATM   12  C   UNL     1     -11.716  11.773  68.332  1.00  0.00    -0.325 A  
HETATM   13  C   UNL     1     -11.117  10.996  67.332  1.00  0.00    -0.370 A  
HETATM   14  C   UNL     1     -10.289  11.576  66.379  1.00  0.00    -0.277 A  
HETATM   15  C   UNL     1     -10.068  12.947  66.397  1.00  0.00    -0.272 A  
HETATM   16  C   UNL     1     -10.683  13.759  67.359  1.00  0.00    -0.279 A  
HETATM   17  C   UNL     1     -11.522  13.180  68.347  1.00  0.00    -0.350 A  
HETATM   18  C   UNL     1     -12.110  14.051  69.295  1.00  0.00    -0.380 A  
HETATM   19  C   UNL     1     -11.888  15.433  69.259  1.00  0.00    -0.365 A  
HETATM   20  C   UNL     1     -11.070  15.981  68.276  1.00  0.00    -0.351 A  
HETATM   21  C   UNL     1     -10.469  15.147  67.337  1.00  0.00    -0.264 A  
ENDBRANCH  11  12
ENDBRANCH  10  11
ENDBRANCH   7  10
ENDBRANCH   6   7
ENDBRANCH   4   6
ENDBRANCH   2   4
TORSDOF 6
ENDMDL
MODEL      154
REMARK 921   NORMALIZED FREE ENERGY PREDICTED BY IDOCK:   -4.18 KCAL/MOL
REMARK 922        TOTAL FREE ENERGY PREDICTED BY IDOCK:   -6.33 KCAL/MOL
REMARK 923 INTER-LIGAND FREE ENERGY PREDICTED BY IDOCK:   -5.92 KCAL/MOL
REMARK 924 INTRA-LIGAND FREE ENERGY PREDICTED BY IDOCK:   -0.41 KCAL/MOL
REMARK 927      BINDING AFFINITY PREDICTED BY RF-SCORE:    0.00 PKD
ROOT
HETATM    1  C   UNL     1      -9.267   7.839  69.474  1.00  0.00    -0.149 C  
HETATM    2  C   UNL     1     -10.747   7.597  69.769  1.00  0.00    -0.240 C  
HETATM    3  C   UNL     1     -11.094   6.131  69.502  1.00  0.00    -0.490 C  
ENDROOT
BRANCH   2   4
HETATM    4  N   UNL     1     -11.001   7.968  71.163  1.00  0.00    -0.239 NA 
HETATM    5  H   UNL     1     -10.276   7.593  71.775  1.00  0.00     0.000 HD 
BRANCH   4   6
HETATM    6  C   UNL     1     -11.154   9.416  71.362  1.00  0.00    -0.380 C  
BRANCH   6   7
HETATM    7  C   UNL     1     -11.837  10.034  70.134  1.00  0.00    -0.173 C  
HETATM    8  O   UNL     1     -13.216  10.306  70.430  1.00  0.00    -0.546 OA 
HETATM    9  H   UNL     1     -13.639  10.688  69.670  1.00  0.00     0.000 HD 
BRANCH   7  10
HETATM   10  C   UNL     1     -11.141  11.323  69.686  1.00  0.00    -0.206 C  
BRANCH  10  11
HETATM   11  O   UNL     1     -10.743  11.225  68.308  1.00  0.00    -0.174 OA 
BRANCH  11  12
HETATM   12  C   UNL     1     -10.192  12.377  67.783  1.00  0.00    -0.211 A  
HETATM   13  C   UNL     1      -9.000  12.924  68.276  1.00  0.00    -0.175 A  
HETATM   14  C   UNL     1      -8.467  14.084  67.728  1.00  0.00    -0.184 A  
HETATM   15  C   UNL     1      -9.107  14.702  66.660  1.00  0.00    -0.285 A  
HETATM   16  C   UNL     1     -10.279  14.159  66.117  1.00  0.00    -0.313 A  
HETATM   17  C   UNL     1     -10.843  12.981  66.674  1.00  0.00    -0.291 A  
HETATM   18  C   UNL     1     -12.030  12.486  66.086  1.00  0.00    -0.432 A  
HETATM   19  C   UNL     1     -12.626  13.119  64.989  1.00  0.00    -0.499 A  
HETATM   20  C   UNL     1     -12.053  14.268  64.453  1.00  0.00    -0.490 A  
HETATM   21  C   UNL     1     -10.890  14.785  65.018  1.00  0.00    -0.440 A  
ENDBRANCH  11  12
ENDBRANCH  10  11
ENDBRANCH   7  10
ENDBRANCH   6   7
ENDBRANCH   4   6
ENDBRANCH   2   4
TORSDOF 6
ENDMDL
MODEL      155
REMARK 921   NORMALIZED FREE ENERGY PREDICTED BY IDOCK:   -4.18 KCAL/MOL
REMARK 922        TOTAL FREE ENERGY PREDICTED BY IDOCK:   -6.32 KCAL/MOL
REMARK 923 INTER-LIGAND FREE ENERGY PREDICTED BY IDOCK:   -6.43 KCAL/MOL
REMARK 924 INTRA-LIGAND FREE ENERGY PREDICTED BY IDOCK:    0.11 KCAL/MOL
REMARK 927      BINDING AFFINITY PREDICTED BY RF-SCORE:    0.00 PKD
ROOT
HETATM    1  C   UNL     1     -10.992   9.892  70.411  1.00  0.00    -0.379 C  
HETATM    2  C   UNL     1     -12.000  11.027  70.231  1.00  0.00    -0.365 C  
HETATM    3  C   UNL     1     -12.802  11.215  71.521  1.00  0.00    -0.542 C  
ENDROOT
BRANCH   2   4
HETATM    4  N   UNL     1     -11.262  12.239  69.870  1.00  0.00    -0.485 NA 
HETATM    5  H   UNL     1     -10.799  12.126  68.969  1.00  0.00     0.000 HD 
BRANCH   4   6
HETATM    6  C   UNL     1     -12.092  13.452  69.881  1.00  0.00    -0.322 C  
BRANCH   6   7
HETATM    7  C   UNL     1     -11.533  14.466  68.872  1.00  0.00    -0.289 C  
HETATM    8  O   UNL     1     -12.298  15.680  68.928  1.00  0.00    -0.602 OA 
HETATM    9  H   UNL     1     -11.953  16.307  68.303  1.00  0.00     0.000 HD 
BRANCH   7  10
HETATM   10  C   UNL     1     -10.056  14.774  69.136  1.00  0.00    -0.197 C  
BRANCH  10  11
HETATM   11  O   UNL     1      -9.292  14.647  67.925  1.00  0.00    -0.192 OA 
BRANCH  11  12
HETATM   12  C   UNL     1     -10.041  14.366  66.799  1.00  0.00    -0.266 A  
HETATM   13  C   UNL     1     -10.709  15.366  66.080  1.00  0.00    -0.316 A  
HETATM   14  C   UNL     1     -11.455  15.054  64.950  1.00  0.00    -0.399 A  
HETATM   15  C   UNL     1     -11.521  13.739  64.506  1.00  0.00    -0.401 A  
HETATM   16  C   UNL     1     -10.831  12.721  65.178  1.00  0.00    -0.318 A  
HETATM   17  C   UNL     1     -10.076  13.021  66.342  1.00  0.00    -0.279 A  
HETATM   18  C   UNL     1      -9.407  11.950  66.978  1.00  0.00    -0.188 A  
HETATM   19  C   UNL     1      -9.472  10.643  66.480  1.00  0.00    -0.199 A  
HETATM   20  C   UNL     1     -10.211  10.372  65.333  1.00  0.00    -0.329 A  
HETATM   21  C   UNL     1     -10.888  11.405  64.690  1.00  0.00    -0.359 A  
ENDBRANCH  11  12
ENDBRANCH  10  11
ENDBRANCH   7  10
ENDBRANCH   6   7
ENDBRANCH   4   6
ENDBRANCH   2   4
TORSDOF 6
ENDMDL
MODEL      156
REMARK 921   NORMALIZED FREE ENERGY PREDICTED BY IDOCK:   -4.17 KCAL/MOL
REMARK 922        TOTAL FREE ENERGY PREDICTED BY IDOCK:   -6.31 KCAL/MOL
REMARK 923 INTER-LIGAND FREE ENERGY PREDICTED BY IDOCK:   -5.87 KCAL/MOL
REMARK 924 INTRA-LIGAND FREE ENERGY PREDICTED BY IDOCK:   -0.43 KCAL/MOL
REMARK 927      BINDING AFFINITY PREDICTED BY RF-SCORE:    0.00 PKD
ROOT
HETATM    1  C   UNL     1     -12.270  12.836  63.466  1.00  0.00    -0.613 C  
HETATM    2  C   UNL     1     -11.635  13.121  64.827  1.00  0.00    -0.333 C  
HETATM    3  C   UNL     1     -12.594  13.955  65.680  1.00  0.00    -0.553 C  
ENDROOT
BRANCH   2   4
HETATM    4  N   UNL     1     -11.322  11.838  65.461  1.00  0.00    -0.269 NA 
HETATM    5  H   UNL     1     -10.550  11.376  64.980  1.00  0.00     0.000 HD 
BRANCH   4   6
HETATM    6  C   UNL     1     -11.048  11.951  66.900  1.00  0.00    -0.305 C  
BRANCH   6   7
HETATM    7  C   UNL     1      -9.535  12.079  67.126  1.00  0.00    -0.187 C  
HETATM    8  O   UNL     1      -8.869  12.266  65.868  1.00  0.00    -0.413 OA 
HETATM    9  H   UNL     1      -7.933  12.346  66.008  1.00  0.00     0.000 HD 
BRANCH   7  10
HETATM   10  C   UNL     1      -9.199  13.242  68.066  1.00  0.00    -0.217 C  
BRANCH  10  11
HETATM   11  O   UNL     1      -8.754  14.383  67.312  1.00  0.00    -0.191 OA 
BRANCH  11  12
HETATM   12  C   UNL     1      -9.240  15.595  67.760  1.00  0.00    -0.193 A  
HETATM   13  C   UNL     1     -10.269  15.681  68.708  1.00  0.00    -0.215 A  
HETATM   14  C   UNL     1     -10.738  16.915  69.142  1.00  0.00    -0.298 A  
HETATM   15  C   UNL     1     -10.166  18.083  68.654  1.00  0.00    -0.385 A  
HETATM   16  C   UNL     1      -9.109  18.033  67.736  1.00  0.00    -0.262 A  
HETATM   17  C   UNL     1      -8.627  16.780  67.273  1.00  0.00    -0.208 A  
HETATM   18  C   UNL     1      -7.561  16.796  66.343  1.00  0.00    -0.325 A  
HETATM   19  C   UNL     1      -6.990  17.995  65.900  1.00  0.00    -0.319 A  
HETATM   20  C   UNL     1      -7.471  19.211  66.374  1.00  0.00    -0.271 A  
HETATM   21  C   UNL     1      -8.526  19.228  67.282  1.00  0.00    -0.314 A  
ENDBRANCH  11  12
ENDBRANCH  10  11
ENDBRANCH   7  10
ENDBRANCH   6   7
ENDBRANCH   4   6
ENDBRANCH   2   4
TORSDOF 6
ENDMDL
MODEL      157
REMARK 921   NORMALIZED FREE ENERGY PREDICTED BY IDOCK:   -4.15 KCAL/MOL
REMARK 922        TOTAL FREE ENERGY PREDICTED BY IDOCK:   -6.29 KCAL/MOL
REMARK 923 INTER-LIGAND FREE ENERGY PREDICTED BY IDOCK:   -5.52 KCAL/MOL
REMARK 924 INTRA-LIGAND FREE ENERGY PREDICTED BY IDOCK:   -0.77 KCAL/MOL
REMARK 927      BINDING AFFINITY PREDICTED BY RF-SCORE:    0.00 PKD
ROOT
HETATM    1  C   UNL     1     -10.381  10.919  63.347  1.00  0.00    -0.299 C  
HETATM    2  C   UNL     1      -9.642  10.248  64.505  1.00  0.00    -0.316 C  
HETATM    3  C   UNL     1      -8.556   9.320  63.955  1.00  0.00    -0.204 C  
ENDROOT
BRANCH   2   4
HETATM    4  N   UNL     1      -9.078  11.299  65.355  1.00  0.00    -0.318 NA 
HETATM    5  H   UNL     1      -8.170  11.601  65.001  1.00  0.00     0.000 HD 
BRANCH   4   6
HETATM    6  C   UNL     1      -9.976  12.447  65.536  1.00  0.00    -0.243 C  
BRANCH   6   7
HETATM    7  C   UNL     1      -9.473  13.314  66.699  1.00  0.00    -0.260 C  
HETATM    8  O   UNL     1      -9.702  14.702  66.407  1.00  0.00    -0.267 OA 
HETATM    9  H   UNL     1      -9.391  15.238  67.126  1.00  0.00     0.000 HD 
BRANCH   7  10
HETATM   10  C   UNL     1     -10.157  12.945  68.020  1.00  0.00    -0.235 C  
BRANCH  10  11
HETATM   11  O   UNL     1     -10.711  11.621  67.944  1.00  0.00    -0.188 OA 
BRANCH  11  12
HETATM   12  C   UNL     1     -10.249  10.747  68.908  1.00  0.00    -0.203 A  
HETATM   13  C   UNL     1      -8.918  10.310  68.943  1.00  0.00    -0.164 A  
HETATM   14  C   UNL     1      -8.481   9.431  69.926  1.00  0.00    -0.186 A  
HETATM   15  C   UNL     1      -9.364   8.995  70.906  1.00  0.00    -0.326 A  
HETATM   16  C   UNL     1     -10.691   9.444  70.925  1.00  0.00    -0.393 A  
HETATM   17  C   UNL     1     -11.156  10.332  69.920  1.00  0.00    -0.362 A  
HETATM   18  C   UNL     1     -12.508  10.745  69.990  1.00  0.00    -0.317 A  
HETATM   19  C   UNL     1     -13.357  10.308  71.014  1.00  0.00    -0.299 A  
HETATM   20  C   UNL     1     -12.878   9.445  71.995  1.00  0.00    -0.496 A  
HETATM   21  C   UNL     1     -11.555   9.014  71.946  1.00  0.00    -0.441 A  
ENDBRANCH  11  12
ENDBRANCH  10  11
ENDBRANCH   7  10
ENDBRANCH   6   7
ENDBRANCH   4   6
ENDBRANCH   2   4
TORSDOF 6
ENDMDL
MODEL      158
REMARK 921   NORMALIZED FREE ENERGY PREDICTED BY IDOCK:   -4.14 KCAL/MOL
REMARK 922        TOTAL FREE ENERGY PREDICTED BY IDOCK:   -6.27 KCAL/MOL
REMARK 923 INTER-LIGAND FREE ENERGY PREDICTED BY IDOCK:   -5.83 KCAL/MOL
REMARK 924 INTRA-LIGAND FREE ENERGY PREDICTED BY IDOCK:   -0.44 KCAL/MOL
REMARK 927      BINDING AFFINITY PREDICTED BY RF-SCORE:    0.00 PKD
ROOT
HETATM    1  C   UNL     1     -14.040  15.366  72.321  1.00  0.00    -0.660 C  
HETATM    2  C   UNL     1     -12.658  15.871  72.736  1.00  0.00    -0.470 C  
HETATM    3  C   UNL     1     -12.406  15.535  74.207  1.00  0.00    -0.815 C  
ENDROOT
BRANCH   2   4
HETATM    4  N   UNL     1     -11.663  15.248  71.860  1.00  0.00    -0.402 NA 
HETATM    5  H   UNL     1     -11.178  14.493  72.343  1.00  0.00     0.000 HD 
BRANCH   4   6
HETATM    6  C   UNL     1     -12.223  14.777  70.585  1.00  0.00    -0.319 C  
BRANCH   6   7
HETATM    7  C   UNL     1     -11.892  15.785  69.475  1.00  0.00    -0.347 C  
HETATM    8  O   UNL     1     -10.601  16.368  69.716  1.00  0.00    -0.309 OA 
HETATM    9  H   UNL     1     -10.397  16.992  69.030  1.00  0.00     0.000 HD 
BRANCH   7  10
HETATM   10  C   UNL     1     -11.911  15.131  68.090  1.00  0.00    -0.228 C  
BRANCH  10  11
HETATM   11  O   UNL     1     -10.589  15.112  67.526  1.00  0.00    -0.259 OA 
BRANCH  11  12
HETATM   12  C   UNL     1     -10.158  13.869  67.107  1.00  0.00    -0.252 A  
HETATM   13  C   UNL     1     -11.018  12.953  66.487  1.00  0.00    -0.300 A  
HETATM   14  C   UNL     1     -10.557  11.709  66.074  1.00  0.00    -0.303 A  
HETATM   15  C   UNL     1      -9.221  11.372  66.253  1.00  0.00    -0.220 A  
HETATM   16  C   UNL     1      -8.325  12.280  66.833  1.00  0.00    -0.137 A  
HETATM   17  C   UNL     1      -8.783  13.550  67.271  1.00  0.00    -0.228 A  
HETATM   18  C   UNL     1      -7.832  14.420  67.854  1.00  0.00    -0.155 A  
HETATM   19  C   UNL     1      -6.487  14.056  67.986  1.00  0.00    -0.152 A  
HETATM   20  C   UNL     1      -6.057  12.810  67.541  1.00  0.00    -0.152 A  
HETATM   21  C   UNL     1      -6.972  11.928  66.973  1.00  0.00    -0.116 A  
ENDBRANCH  11  12
ENDBRANCH  10  11
ENDBRANCH   7  10
ENDBRANCH   6   7
ENDBRANCH   4   6
ENDBRANCH   2   4
TORSDOF 6
ENDMDL
MODEL      159
REMARK 921   NORMALIZED FREE ENERGY PREDICTED BY IDOCK:   -4.14 KCAL/MOL
REMARK 922        TOTAL FREE ENERGY PREDICTED BY IDOCK:   -6.27 KCAL/MOL
REMARK 923 INTER-LIGAND FREE ENERGY PREDICTED BY IDOCK:   -6.05 KCAL/MOL
REMARK 924 INTRA-LIGAND FREE ENERGY PREDICTED BY IDOCK:   -0.22 KCAL/MOL
REMARK 927      BINDING AFFINITY PREDICTED BY RF-SCORE:    0.00 PKD
ROOT
HETATM    1  C   UNL     1     -11.538  14.999  71.603  1.00  0.00    -0.416 C  
HETATM    2  C   UNL     1     -12.722  14.784  70.661  1.00  0.00    -0.358 C  
HETATM    3  C   UNL     1     -14.022  15.172  71.370  1.00  0.00    -0.595 C  
ENDROOT
BRANCH   2   4
HETATM    4  N   UNL     1     -12.500  15.588  69.458  1.00  0.00    -0.594 NA 
HETATM    5  H   UNL     1     -12.366  16.570  69.699  1.00  0.00     0.000 HD 
BRANCH   4   6
HETATM    6  C   UNL     1     -11.391  15.099  68.627  1.00  0.00    -0.310 C  
BRANCH   6   7
HETATM    7  C   UNL     1     -10.568  16.290  68.116  1.00  0.00    -0.307 C  
HETATM    8  O   UNL     1     -11.246  17.518  68.424  1.00  0.00    -0.129 OA 
HETATM    9  H   UNL     1     -10.737  18.255  68.107  1.00  0.00     0.000 HD 
BRANCH   7  10
HETATM   10  C   UNL     1      -9.162  16.311  68.725  1.00  0.00    -0.240 C  
BRANCH  10  11
HETATM   11  O   UNL     1      -8.181  16.585  67.711  1.00  0.00    -0.162 OA 
BRANCH  11  12
HETATM   12  C   UNL     1      -7.912  17.925  67.517  1.00  0.00    -0.213 A  
HETATM   13  C   UNL     1      -8.547  18.676  66.518  1.00  0.00    -0.307 A  
HETATM   14  C   UNL     1      -8.258  20.024  66.346  1.00  0.00    -0.338 A  
HETATM   15  C   UNL     1      -7.347  20.649  67.188  1.00  0.00    -0.389 A  
HETATM   16  C   UNL     1      -6.724  19.938  68.223  1.00  0.00    -0.323 A  
HETATM   17  C   UNL     1      -6.999  18.557  68.404  1.00  0.00    -0.278 A  
HETATM   18  C   UNL     1      -6.335  17.894  69.462  1.00  0.00    -0.212 A  
HETATM   19  C   UNL     1      -5.449  18.568  70.310  1.00  0.00    -0.238 A  
HETATM   20  C   UNL     1      -5.200  19.924  70.121  1.00  0.00    -0.245 A  
HETATM   21  C   UNL     1      -5.832  20.601  69.081  1.00  0.00    -0.395 A  
ENDBRANCH  11  12
ENDBRANCH  10  11
ENDBRANCH   7  10
ENDBRANCH   6   7
ENDBRANCH   4   6
ENDBRANCH   2   4
TORSDOF 6
ENDMDL
MODEL      160
REMARK 921   NORMALIZED FREE ENERGY PREDICTED BY IDOCK:   -4.12 KCAL/MOL
REMARK 922        TOTAL FREE ENERGY PREDICTED BY IDOCK:   -6.25 KCAL/MOL
REMARK 923 INTER-LIGAND FREE ENERGY PREDICTED BY IDOCK:   -5.43 KCAL/MOL
REMARK 924 INTRA-LIGAND FREE ENERGY PREDICTED BY IDOCK:   -0.82 KCAL/MOL
REMARK 927      BINDING AFFINITY PREDICTED BY RF-SCORE:    0.00 PKD
ROOT
HETATM    1  C   UNL     1      -7.109  12.462  68.997  1.00  0.00    -0.041 C  
HETATM    2  C   UNL     1      -7.126  12.881  67.527  1.00  0.00    -0.152 C  
HETATM    3  C   UNL     1      -7.168  14.408  67.426  1.00  0.00    -0.148 C  
ENDROOT
BRANCH   2   4
HETATM    4  N   UNL     1      -5.933  12.328  66.881  1.00  0.00    -0.455 NA 
HETATM    5  H   UNL     1      -5.107  12.476  67.460  1.00  0.00     0.000 HD 
BRANCH   4   6
HETATM    6  C   UNL     1      -6.070  10.911  66.520  1.00  0.00    -0.122 C  
BRANCH   6   7
HETATM    7  C   UNL     1      -7.401  10.694  65.786  1.00  0.00    -0.110 C  
HETATM    8  O   UNL     1      -7.161  10.536  64.379  1.00  0.00    -0.332 OA 
HETATM    9  H   UNL     1      -7.984  10.402  63.925  1.00  0.00     0.000 HD 
BRANCH   7  10
HETATM   10  C   UNL     1      -8.153   9.471  66.322  1.00  0.00    -0.111 C  
BRANCH  10  11
HETATM   11  O   UNL     1      -9.521   9.490  65.881  1.00  0.00    -0.203 OA 
BRANCH  11  12
HETATM   12  C   UNL     1     -10.279  10.520  66.401  1.00  0.00    -0.237 A  
HETATM   13  C   UNL     1     -10.455  10.692  67.781  1.00  0.00    -0.258 A  
HETATM   14  C   UNL     1     -11.223  11.739  68.276  1.00  0.00    -0.313 A  
HETATM   15  C   UNL     1     -11.807  12.645  67.399  1.00  0.00    -0.393 A  
HETATM   16  C   UNL     1     -11.617  12.525  66.016  1.00  0.00    -0.456 A  
HETATM   17  C   UNL     1     -10.846  11.454  65.493  1.00  0.00    -0.282 A  
HETATM   18  C   UNL     1     -10.696  11.384  64.088  1.00  0.00    -0.434 A  
HETATM   19  C   UNL     1     -11.273  12.336  63.240  1.00  0.00    -0.399 A  
HETATM   20  C   UNL     1     -12.018  13.383  63.774  1.00  0.00    -0.517 A  
HETATM   21  C   UNL     1     -12.191  13.472  65.152  1.00  0.00    -0.462 A  
ENDBRANCH  11  12
ENDBRANCH  10  11
ENDBRANCH   7  10
ENDBRANCH   6   7
ENDBRANCH   4   6
ENDBRANCH   2   4
TORSDOF 6
ENDMDL
MODEL      161
REMARK 921   NORMALIZED FREE ENERGY PREDICTED BY IDOCK:   -4.11 KCAL/MOL
REMARK 922        TOTAL FREE ENERGY PREDICTED BY IDOCK:   -6.23 KCAL/MOL
REMARK 923 INTER-LIGAND FREE ENERGY PREDICTED BY IDOCK:   -5.44 KCAL/MOL
REMARK 924 INTRA-LIGAND FREE ENERGY PREDICTED BY IDOCK:   -0.79 KCAL/MOL
REMARK 927      BINDING AFFINITY PREDICTED BY RF-SCORE:    0.00 PKD
ROOT
HETATM    1  C   UNL     1     -12.406  14.398  66.913  1.00  0.00    -0.165 C  
HETATM    2  C   UNL     1     -12.827  13.836  65.554  1.00  0.00    -0.419 C  
HETATM    3  C   UNL     1     -12.233  14.694  64.435  1.00  0.00    -0.473 C  
ENDROOT
BRANCH   2   4
HETATM    4  N   UNL     1     -12.368  12.447  65.474  1.00  0.00    -0.624 NA 
HETATM    5  H   UNL     1     -13.132  11.802  65.671  1.00  0.00     0.000 HD 
BRANCH   4   6
HETATM    6  C   UNL     1     -11.724  12.119  64.195  1.00  0.00    -0.396 C  
BRANCH   6   7
HETATM    7  C   UNL     1     -10.264  11.714  64.444  1.00  0.00    -0.300 C  
HETATM    8  O   UNL     1      -9.439  12.181  63.365  1.00  0.00    -0.654 OA 
HETATM    9  H   UNL     1      -8.536  11.931  63.518  1.00  0.00     0.000 HD 
BRANCH   7  10
HETATM   10  C   UNL     1      -9.739  12.270  65.772  1.00  0.00    -0.216 C  
BRANCH  10  11
HETATM   11  O   UNL     1      -9.360  13.649  65.623  1.00  0.00     0.030 OA 
BRANCH  11  12
HETATM   12  C   UNL     1      -8.726  14.194  66.722  1.00  0.00    -0.123 A  
HETATM   13  C   UNL     1      -7.898  13.433  67.558  1.00  0.00    -0.181 A  
HETATM   14  C   UNL     1      -7.272  14.008  68.657  1.00  0.00    -0.114 A  
HETATM   15  C   UNL     1      -7.445  15.361  68.922  1.00  0.00    -0.152 A  
HETATM   16  C   UNL     1      -8.234  16.159  68.084  1.00  0.00    -0.157 A  
HETATM   17  C   UNL     1      -8.891  15.584  66.965  1.00  0.00    -0.255 A  
HETATM   18  C   UNL     1      -9.678  16.441  66.160  1.00  0.00    -0.355 A  
HETATM   19  C   UNL     1      -9.801  17.807  66.442  1.00  0.00    -0.328 A  
HETATM   20  C   UNL     1      -9.141  18.352  67.539  1.00  0.00    -0.278 A  
HETATM   21  C   UNL     1      -8.368  17.531  68.355  1.00  0.00    -0.278 A  
ENDBRANCH  11  12
ENDBRANCH  10  11
ENDBRANCH   7  10
ENDBRANCH   6   7
ENDBRANCH   4   6
ENDBRANCH   2   4
TORSDOF 6
ENDMDL
MODEL      162
REMARK 921   NORMALIZED FREE ENERGY PREDICTED BY IDOCK:   -4.11 KCAL/MOL
REMARK 922        TOTAL FREE ENERGY PREDICTED BY IDOCK:   -6.23 KCAL/MOL
REMARK 923 INTER-LIGAND FREE ENERGY PREDICTED BY IDOCK:   -5.81 KCAL/MOL
REMARK 924 INTRA-LIGAND FREE ENERGY PREDICTED BY IDOCK:   -0.42 KCAL/MOL
REMARK 927      BINDING AFFINITY PREDICTED BY RF-SCORE:    0.00 PKD
ROOT
HETATM    1  C   UNL     1      -8.027  15.785  68.890  1.00  0.00    -0.197 C  
HETATM    2  C   UNL     1      -9.458  16.105  69.321  1.00  0.00    -0.224 C  
HETATM    3  C   UNL     1     -10.127  16.993  68.268  1.00  0.00    -0.306 C  
ENDROOT
BRANCH   2   4
HETATM    4  N   UNL     1     -10.175  14.841  69.498  1.00  0.00    -0.394 NA 
HETATM    5  H   UNL     1      -9.923  14.403  70.384  1.00  0.00     0.000 HD 
BRANCH   4   6
HETATM    6  C   UNL     1     -11.633  14.975  69.379  1.00  0.00    -0.315 C  
BRANCH   6   7
HETATM    7  C   UNL     1     -12.189  13.820  68.534  1.00  0.00    -0.159 C  
HETATM    8  O   UNL     1     -12.409  14.265  67.186  1.00  0.00    -0.590 OA 
HETATM    9  H   UNL     1     -12.753  13.550  66.664  1.00  0.00     0.000 HD 
BRANCH   7  10
HETATM   10  C   UNL     1     -11.244  12.614  68.531  1.00  0.00    -0.279 C  
BRANCH  10  11
HETATM   11  O   UNL     1     -11.995  11.389  68.481  1.00  0.00    -0.498 OA 
BRANCH  11  12
HETATM   12  C   UNL     1     -12.046  10.695  69.674  1.00  0.00    -0.240 A  
HETATM   13  C   UNL     1     -13.032  10.943  70.638  1.00  0.00    -0.266 A  
HETATM   14  C   UNL     1     -13.059  10.229  71.830  1.00  0.00    -0.570 A  
HETATM   15  C   UNL     1     -12.115   9.236  72.064  1.00  0.00    -0.406 A  
HETATM   16  C   UNL     1     -11.141   8.935  71.103  1.00  0.00    -0.354 A  
HETATM   17  C   UNL     1     -11.091   9.665  69.887  1.00  0.00    -0.268 A  
HETATM   18  C   UNL     1     -10.080   9.317  68.959  1.00  0.00    -0.207 A  
HETATM   19  C   UNL     1      -9.168   8.288  69.219  1.00  0.00    -0.151 A  
HETATM   20  C   UNL     1      -9.240   7.579  70.414  1.00  0.00    -0.157 A  
HETATM   21  C   UNL     1     -10.218   7.905  71.350  1.00  0.00    -0.226 A  
ENDBRANCH  11  12
ENDBRANCH  10  11
ENDBRANCH   7  10
ENDBRANCH   6   7
ENDBRANCH   4   6
ENDBRANCH   2   4
TORSDOF 6
ENDMDL
MODEL      163
REMARK 921   NORMALIZED FREE ENERGY PREDICTED BY IDOCK:   -4.07 KCAL/MOL
REMARK 922        TOTAL FREE ENERGY PREDICTED BY IDOCK:   -6.18 KCAL/MOL
REMARK 923 INTER-LIGAND FREE ENERGY PREDICTED BY IDOCK:   -5.95 KCAL/MOL
REMARK 924 INTRA-LIGAND FREE ENERGY PREDICTED BY IDOCK:   -0.23 KCAL/MOL
REMARK 927      BINDING AFFINITY PREDICTED BY RF-SCORE:    0.00 PKD
ROOT
HETATM    1  C   UNL     1     -10.652  19.034  67.448  1.00  0.00    -0.559 C  
HETATM    2  C   UNL     1     -10.198  17.575  67.426  1.00  0.00    -0.337 C  
HETATM    3  C   UNL     1      -8.669  17.510  67.468  1.00  0.00    -0.225 C  
ENDROOT
BRANCH   2   4
HETATM    4  N   UNL     1     -10.801  16.892  68.572  1.00  0.00    -0.354 NA 
HETATM    5  H   UNL     1     -11.814  17.011  68.572  1.00  0.00     0.000 HD 
BRANCH   4   6
HETATM    6  C   UNL     1     -10.442  15.470  68.658  1.00  0.00    -0.237 C  
BRANCH   6   7
HETATM    7  C   UNL     1     -11.718  14.626  68.796  1.00  0.00    -0.324 C  
HETATM    8  O   UNL     1     -12.523  14.765  67.614  1.00  0.00    -0.511 OA 
HETATM    9  H   UNL     1     -13.312  14.243  67.699  1.00  0.00     0.000 HD 
BRANCH   7  10
HETATM   10  C   UNL     1     -11.397  13.146  69.030  1.00  0.00    -0.282 C  
BRANCH  10  11
HETATM   11  O   UNL     1     -12.107  12.324  68.088  1.00  0.00    -0.407 OA 
BRANCH  11  12
HETATM   12  C   UNL     1     -11.307  11.695  67.155  1.00  0.00    -0.306 A  
HETATM   13  C   UNL     1     -10.985  12.289  65.927  1.00  0.00    -0.338 A  
HETATM   14  C   UNL     1     -10.176  11.632  65.008  1.00  0.00    -0.321 A  
HETATM   15  C   UNL     1      -9.656  10.381  65.313  1.00  0.00    -0.316 A  
HETATM   16  C   UNL     1      -9.924   9.776  66.549  1.00  0.00    -0.304 A  
HETATM   17  C   UNL     1     -10.759  10.428  67.494  1.00  0.00    -0.339 A  
HETATM   18  C   UNL     1     -10.998   9.764  68.720  1.00  0.00    -0.185 A  
HETATM   19  C   UNL     1     -10.427   8.517  69.003  1.00  0.00    -0.216 A  
HETATM   20  C   UNL     1      -9.605   7.899  68.066  1.00  0.00    -0.168 A  
HETATM   21  C   UNL     1      -9.360   8.525  66.846  1.00  0.00    -0.219 A  
ENDBRANCH  11  12
ENDBRANCH  10  11
ENDBRANCH   7  10
ENDBRANCH   6   7
ENDBRANCH   4   6
ENDBRANCH   2   4
TORSDOF 6
ENDMDL
MODEL      164
REMARK 921   NORMALIZED FREE ENERGY PREDICTED BY IDOCK:   -4.07 KCAL/MOL
REMARK 922        TOTAL FREE ENERGY PREDICTED BY IDOCK:   -6.18 KCAL/MOL
REMARK 923 INTER-LIGAND FREE ENERGY PREDICTED BY IDOCK:   -5.77 KCAL/MOL
REMARK 924 INTRA-LIGAND FREE ENERGY PREDICTED BY IDOCK:   -0.40 KCAL/MOL
REMARK 927      BINDING AFFINITY PREDICTED BY RF-SCORE:    0.00 PKD
ROOT
HETATM    1  C   UNL     1      -6.878  18.605  65.854  1.00  0.00    -0.312 C  
HETATM    2  C   UNL     1      -6.392  19.848  66.600  1.00  0.00    -0.190 C  
HETATM    3  C   UNL     1      -6.150  20.985  65.604  1.00  0.00    -0.264 C  
ENDROOT
BRANCH   2   4
HETATM    4  N   UNL     1      -7.403  20.206  67.597  1.00  0.00    -0.283 NA 
HETATM    5  H   UNL     1      -7.463  21.219  67.703  1.00  0.00     0.000 HD 
BRANCH   4   6
HETATM    6  C   UNL     1      -8.726  19.631  67.318  1.00  0.00    -0.312 C  
BRANCH   6   7
HETATM    7  C   UNL     1      -9.320  19.060  68.613  1.00  0.00    -0.380 C  
HETATM    8  O   UNL     1     -10.655  19.557  68.796  1.00  0.00    -0.470 OA 
HETATM    9  H   UNL     1     -11.023  19.204  69.597  1.00  0.00     0.000 HD 
BRANCH   7  10
HETATM   10  C   UNL     1      -9.338  17.527  68.602  1.00  0.00    -0.277 C  
BRANCH  10  11
HETATM   11  O   UNL     1     -10.087  17.026  69.722  1.00  0.00    -0.022 OA 
BRANCH  11  12
HETATM   12  C   UNL     1     -10.826  15.891  69.459  1.00  0.00    -0.305 A  
HETATM   13  C   UNL     1     -10.928  15.349  68.171  1.00  0.00    -0.297 A  
HETATM   14  C   UNL     1     -11.678  14.204  67.936  1.00  0.00    -0.402 A  
HETATM   15  C   UNL     1     -12.319  13.567  68.992  1.00  0.00    -0.049 A  
HETATM   16  C   UNL     1     -12.206  14.060  70.299  1.00  0.00    -0.430 A  
HETATM   17  C   UNL     1     -11.453  15.236  70.554  1.00  0.00    -0.342 A  
HETATM   18  C   UNL     1     -11.380  15.686  71.893  1.00  0.00    -0.421 A  
HETATM   19  C   UNL     1     -12.014  14.997  72.935  1.00  0.00    -0.403 A  
HETATM   20  C   UNL     1     -12.739  13.841  72.664  1.00  0.00    -0.196 A  
HETATM   21  C   UNL     1     -12.836  13.380  71.354  1.00  0.00    -0.420 A  
ENDBRANCH  11  12
ENDBRANCH  10  11
ENDBRANCH   7  10
ENDBRANCH   6   7
ENDBRANCH   4   6
ENDBRANCH   2   4
TORSDOF 6
ENDMDL
MODEL      165
REMARK 921   NORMALIZED FREE ENERGY PREDICTED BY IDOCK:   -4.06 KCAL/MOL
REMARK 922        TOTAL FREE ENERGY PREDICTED BY IDOCK:   -6.16 KCAL/MOL
REMARK 923 INTER-LIGAND FREE ENERGY PREDICTED BY IDOCK:   -5.99 KCAL/MOL
REMARK 924 INTRA-LIGAND FREE ENERGY PREDICTED BY IDOCK:   -0.17 KCAL/MOL
REMARK 927      BINDING AFFINITY PREDICTED BY RF-SCORE:    0.00 PKD
ROOT
HETATM    1  C   UNL     1      -8.917   5.191  66.538  1.00  0.00    -0.118 C  
HETATM    2  C   UNL     1      -8.528   6.607  66.112  1.00  0.00    -0.135 C  
HETATM    3  C   UNL     1      -7.777   6.558  64.780  1.00  0.00    -0.106 C  
ENDROOT
BRANCH   2   4
HETATM    4  N   UNL     1      -9.752   7.406  66.015  1.00  0.00    -0.419 NA 
HETATM    5  H   UNL     1     -10.536   6.920  66.449  1.00  0.00     0.000 HD 
BRANCH   4   6
HETATM    6  C   UNL     1      -9.609   8.761  66.565  1.00  0.00    -0.237 C  
BRANCH   6   7
HETATM    7  C   UNL     1     -10.783   9.057  67.510  1.00  0.00    -0.169 C  
HETATM    8  O   UNL     1     -10.699   8.214  68.670  1.00  0.00    -0.376 OA 
HETATM    9  H   UNL     1     -11.425   8.397  69.254  1.00  0.00     0.000 HD 
BRANCH   7  10
HETATM   10  C   UNL     1     -10.807  10.527  67.942  1.00  0.00    -0.282 C  
BRANCH  10  11
HETATM   11  O   UNL     1     -11.927  11.205  67.350  1.00  0.00    -0.532 OA 
BRANCH  11  12
HETATM   12  C   UNL     1     -11.635  12.445  66.817  1.00  0.00    -0.379 A  
HETATM   13  C   UNL     1     -11.424  12.636  65.445  1.00  0.00    -0.373 A  
HETATM   14  C   UNL     1     -11.132  13.895  64.937  1.00  0.00    -0.370 A  
HETATM   15  C   UNL     1     -11.073  14.990  65.791  1.00  0.00    -0.346 A  
HETATM   16  C   UNL     1     -11.318  14.841  67.162  1.00  0.00    -0.363 A  
HETATM   17  C   UNL     1     -11.605  13.559  67.700  1.00  0.00    -0.374 A  
HETATM   18  C   UNL     1     -11.838  13.473  69.092  1.00  0.00    -0.386 A  
HETATM   19  C   UNL     1     -11.801  14.605  69.915  1.00  0.00    -0.372 A  
HETATM   20  C   UNL     1     -11.527  15.854  69.366  1.00  0.00    -0.351 A  
HETATM   21  C   UNL     1     -11.284  15.968  68.000  1.00  0.00    -0.303 A  
ENDBRANCH  11  12
ENDBRANCH  10  11
ENDBRANCH   7  10
ENDBRANCH   6   7
ENDBRANCH   4   6
ENDBRANCH   2   4
TORSDOF 6
ENDMDL
MODEL      166
REMARK 921   NORMALIZED FREE ENERGY PREDICTED BY IDOCK:   -4.04 KCAL/MOL
REMARK 922        TOTAL FREE ENERGY PREDICTED BY IDOCK:   -6.14 KCAL/MOL
REMARK 923 INTER-LIGAND FREE ENERGY PREDICTED BY IDOCK:   -5.36 KCAL/MOL
REMARK 924 INTRA-LIGAND FREE ENERGY PREDICTED BY IDOCK:   -0.79 KCAL/MOL
REMARK 927      BINDING AFFINITY PREDICTED BY RF-SCORE:    0.00 PKD
ROOT
HETATM    1  C   UNL     1     -11.712  11.070  70.510  1.00  0.00    -0.416 C  
HETATM    2  C   UNL     1     -12.285  12.358  69.919  1.00  0.00    -0.157 C  
HETATM    3  C   UNL     1     -12.183  13.487  70.947  1.00  0.00    -0.387 C  
ENDROOT
BRANCH   2   4
HETATM    4  N   UNL     1     -11.540  12.670  68.697  1.00  0.00    -0.294 NA 
HETATM    5  H   UNL     1     -11.900  12.134  67.908  1.00  0.00     0.000 HD 
BRANCH   4   6
HETATM    6  C   UNL     1     -11.509  14.105  68.383  1.00  0.00    -0.302 C  
BRANCH   6   7
HETATM    7  C   UNL     1     -10.377  14.388  67.386  1.00  0.00    -0.252 C  
HETATM    8  O   UNL     1      -9.176  13.723  67.811  1.00  0.00    -0.190 OA 
HETATM    9  H   UNL     1      -8.476  13.899  67.194  1.00  0.00     0.000 HD 
BRANCH   7  10
HETATM   10  C   UNL     1     -10.742  13.936  65.968  1.00  0.00    -0.287 C  
BRANCH  10  11
HETATM   11  O   UNL     1     -11.159  12.560  65.973  1.00  0.00    -0.274 OA 
BRANCH  11  12
HETATM   12  C   UNL     1     -10.480  11.749  65.086  1.00  0.00    -0.283 A  
HETATM   13  C   UNL     1     -10.155  12.169  63.790  1.00  0.00    -0.404 A  
HETATM   14  C   UNL     1      -9.469  11.332  62.919  1.00  0.00    -0.385 A  
HETATM   15  C   UNL     1      -9.074  10.068  63.342  1.00  0.00    -0.301 A  
HETATM   16  C   UNL     1      -9.347   9.632  64.645  1.00  0.00    -0.271 A  
HETATM   17  C   UNL     1     -10.058  10.471  65.542  1.00  0.00    -0.349 A  
HETATM   18  C   UNL     1     -10.308   9.971  66.842  1.00  0.00    -0.297 A  
HETATM   19  C   UNL     1      -9.865   8.704  67.240  1.00  0.00    -0.256 A  
HETATM   20  C   UNL     1      -9.161   7.902  66.348  1.00  0.00    -0.221 A  
HETATM   21  C   UNL     1      -8.909   8.363  65.058  1.00  0.00    -0.028 A  
ENDBRANCH  11  12
ENDBRANCH  10  11
ENDBRANCH   7  10
ENDBRANCH   6   7
ENDBRANCH   4   6
ENDBRANCH   2   4
TORSDOF 6
ENDMDL
MODEL      167
REMARK 921   NORMALIZED FREE ENERGY PREDICTED BY IDOCK:   -4.04 KCAL/MOL
REMARK 922        TOTAL FREE ENERGY PREDICTED BY IDOCK:   -6.14 KCAL/MOL
REMARK 923 INTER-LIGAND FREE ENERGY PREDICTED BY IDOCK:   -5.26 KCAL/MOL
REMARK 924 INTRA-LIGAND FREE ENERGY PREDICTED BY IDOCK:   -0.88 KCAL/MOL
REMARK 927      BINDING AFFINITY PREDICTED BY RF-SCORE:    0.00 PKD
ROOT
HETATM    1  C   UNL     1     -11.493  12.201  67.085  1.00  0.00    -0.413 C  
HETATM    2  C   UNL     1     -11.093  11.220  68.188  1.00  0.00    -0.259 C  
HETATM    3  C   UNL     1     -11.864  11.544  69.470  1.00  0.00    -0.419 C  
ENDROOT
BRANCH   2   4
HETATM    4  N   UNL     1     -11.374   9.863  67.715  1.00  0.00    -0.527 NA 
HETATM    5  H   UNL     1     -12.273   9.827  67.234  1.00  0.00     0.000 HD 
BRANCH   4   6
HETATM    6  C   UNL     1     -10.308   9.308  66.870  1.00  0.00    -0.246 C  
BRANCH   6   7
HETATM    7  C   UNL     1     -10.467   7.784  66.777  1.00  0.00    -0.248 C  
HETATM    8  O   UNL     1      -9.386   7.227  66.013  1.00  0.00    -0.355 OA 
HETATM    9  H   UNL     1      -9.485   6.284  65.956  1.00  0.00     0.000 HD 
BRANCH   7  10
HETATM   10  C   UNL     1     -10.509   7.132  68.164  1.00  0.00    -0.200 C  
BRANCH  10  11
HETATM   11  O   UNL     1      -9.750   7.909  69.106  1.00  0.00    -0.159 OA 
BRANCH  11  12
HETATM   12  C   UNL     1     -10.205   7.842  70.407  1.00  0.00    -0.197 A  
HETATM   13  C   UNL     1     -11.560   7.658  70.714  1.00  0.00    -0.284 A  
HETATM   14  C   UNL     1     -11.991   7.593  72.033  1.00  0.00    -0.341 A  
HETATM   15  C   UNL     1     -11.067   7.686  73.068  1.00  0.00    -0.437 A  
HETATM   16  C   UNL     1      -9.700   7.830  72.796  1.00  0.00    -0.292 A  
HETATM   17  C   UNL     1      -9.246   7.911  71.453  1.00  0.00    -0.165 A  
HETATM   18  C   UNL     1      -7.855   8.062  71.244  1.00  0.00    -0.094 A  
HETATM   19  C   UNL     1      -6.953   8.119  72.313  1.00  0.00    -0.097 A  
HETATM   20  C   UNL     1      -7.419   8.029  73.621  1.00  0.00    -0.195 A  
HETATM   21  C   UNL     1      -8.784   7.890  73.858  1.00  0.00    -0.332 A  
ENDBRANCH  11  12
ENDBRANCH  10  11
ENDBRANCH   7  10
ENDBRANCH   6   7
ENDBRANCH   4   6
ENDBRANCH   2   4
TORSDOF 6
ENDMDL
MODEL      168
REMARK 921   NORMALIZED FREE ENERGY PREDICTED BY IDOCK:   -4.04 KCAL/MOL
REMARK 922        TOTAL FREE ENERGY PREDICTED BY IDOCK:   -6.13 KCAL/MOL
REMARK 923 INTER-LIGAND FREE ENERGY PREDICTED BY IDOCK:   -5.50 KCAL/MOL
REMARK 924 INTRA-LIGAND FREE ENERGY PREDICTED BY IDOCK:   -0.64 KCAL/MOL
REMARK 927      BINDING AFFINITY PREDICTED BY RF-SCORE:    0.00 PKD
ROOT
HETATM    1  C   UNL     1      -7.701   6.536  67.130  1.00  0.00    -0.100 C  
HETATM    2  C   UNL     1      -7.425   6.915  65.675  1.00  0.00    -0.085 C  
HETATM    3  C   UNL     1      -8.308   6.076  64.748  1.00  0.00    -0.086 C  
ENDROOT
BRANCH   2   4
HETATM    4  N   UNL     1      -7.685   8.348  65.521  1.00  0.00    -0.093 NA 
HETATM    5  H   UNL     1      -7.410   8.858  66.360  1.00  0.00     0.000 HD 
BRANCH   4   6
HETATM    6  C   UNL     1      -7.055   8.929  64.328  1.00  0.00    -0.090 C  
BRANCH   6   7
HETATM    7  C   UNL     1      -7.740  10.259  63.981  1.00  0.00    -0.100 C  
HETATM    8  O   UNL     1      -6.988  10.944  62.967  1.00  0.00    -0.352 OA 
HETATM    9  H   UNL     1      -7.412  11.767  62.753  1.00  0.00     0.000 HD 
BRANCH   7  10
HETATM   10  C   UNL     1      -9.180  10.048  63.502  1.00  0.00    -0.277 C  
BRANCH  10  11
HETATM   11  O   UNL     1     -10.101  10.219  64.592  1.00  0.00    -0.345 OA 
BRANCH  11  12
HETATM   12  C   UNL     1     -10.808  11.405  64.568  1.00  0.00    -0.309 A  
HETATM   13  C   UNL     1     -11.217  12.005  63.370  1.00  0.00    -0.481 A  
HETATM   14  C   UNL     1     -11.927  13.199  63.377  1.00  0.00    -0.552 A  
HETATM   15  C   UNL     1     -12.263  13.798  64.585  1.00  0.00    -0.440 A  
HETATM   16  C   UNL     1     -11.904  13.204  65.802  1.00  0.00    -0.442 A  
HETATM   17  C   UNL     1     -11.167  11.991  65.812  1.00  0.00    -0.383 A  
HETATM   18  C   UNL     1     -10.830  11.443  67.072  1.00  0.00    -0.331 A  
HETATM   19  C   UNL     1     -11.215  12.061  68.268  1.00  0.00    -0.315 A  
HETATM   20  C   UNL     1     -11.946  13.245  68.236  1.00  0.00    -0.338 A  
HETATM   21  C   UNL     1     -12.283  13.812  67.010  1.00  0.00    -0.381 A  
ENDBRANCH  11  12
ENDBRANCH  10  11
ENDBRANCH   7  10
ENDBRANCH   6   7
ENDBRANCH   4   6
ENDBRANCH   2   4
TORSDOF 6
ENDMDL
MODEL      169
REMARK 921   NORMALIZED FREE ENERGY PREDICTED BY IDOCK:   -4.03 KCAL/MOL
REMARK 922        TOTAL FREE ENERGY PREDICTED BY IDOCK:   -6.13 KCAL/MOL
REMARK 923 INTER-LIGAND FREE ENERGY PREDICTED BY IDOCK:   -5.80 KCAL/MOL
REMARK 924 INTRA-LIGAND FREE ENERGY PREDICTED BY IDOCK:   -0.33 KCAL/MOL
REMARK 927      BINDING AFFINITY PREDICTED BY RF-SCORE:    0.00 PKD
ROOT
HETATM    1  C   UNL     1     -11.565  14.735  65.276  1.00  0.00    -0.338 C  
HETATM    2  C   UNL     1     -10.892  13.364  65.348  1.00  0.00    -0.294 C  
HETATM    3  C   UNL     1     -10.735  12.792  63.937  1.00  0.00    -0.443 C  
ENDROOT
BRANCH   2   4
HETATM    4  N   UNL     1      -9.598  13.526  66.014  1.00  0.00    -0.462 NA 
HETATM    5  H   UNL     1      -9.081  14.308  65.614  1.00  0.00     0.000 HD 
BRANCH   4   6
HETATM    6  C   UNL     1      -9.706  13.664  67.473  1.00  0.00    -0.227 C  
BRANCH   6   7
HETATM    7  C   UNL     1      -9.055  14.983  67.914  1.00  0.00    -0.180 C  
HETATM    8  O   UNL     1      -8.724  14.919  69.310  1.00  0.00    -0.315 OA 
HETATM    9  H   UNL     1      -8.322  15.735  69.583  1.00  0.00     0.000 HD 
BRANCH   7  10
HETATM   10  C   UNL     1      -7.795  15.294  67.099  1.00  0.00    -0.214 C  
BRANCH  10  11
HETATM   11  O   UNL     1      -8.110  16.173  66.006  1.00  0.00    -0.168 OA 
BRANCH  11  12
HETATM   12  C   UNL     1      -8.623  17.398  66.380  1.00  0.00    -0.247 A  
HETATM   13  C   UNL     1     -10.002  17.638  66.454  1.00  0.00    -0.337 A  
HETATM   14  C   UNL     1     -10.491  18.881  66.836  1.00  0.00    -0.496 A  
HETATM   15  C   UNL     1      -9.606  19.898  67.175  1.00  0.00    -0.508 A  
HETATM   16  C   UNL     1      -8.222  19.680  67.150  1.00  0.00    -0.323 A  
HETATM   17  C   UNL     1      -7.707  18.419  66.750  1.00  0.00    -0.248 A  
HETATM   18  C   UNL     1      -6.301  18.263  66.741  1.00  0.00    -0.207 A  
HETATM   19  C   UNL     1      -5.444  19.303  67.122  1.00  0.00    -0.164 A  
HETATM   20  C   UNL     1      -5.970  20.528  67.519  1.00  0.00    -0.262 A  
HETATM   21  C   UNL     1      -7.350  20.714  67.528  1.00  0.00    -0.364 A  
ENDBRANCH  11  12
ENDBRANCH  10  11
ENDBRANCH   7  10
ENDBRANCH   6   7
ENDBRANCH   4   6
ENDBRANCH   2   4
TORSDOF 6
ENDMDL
MODEL      170
REMARK 921   NORMALIZED FREE ENERGY PREDICTED BY IDOCK:   -4.02 KCAL/MOL
REMARK 922        TOTAL FREE ENERGY PREDICTED BY IDOCK:   -6.10 KCAL/MOL
REMARK 923 INTER-LIGAND FREE ENERGY PREDICTED BY IDOCK:   -5.18 KCAL/MOL
REMARK 924 INTRA-LIGAND FREE ENERGY PREDICTED BY IDOCK:   -0.92 KCAL/MOL
REMARK 927      BINDING AFFINITY PREDICTED BY RF-SCORE:    0.00 PKD
ROOT
HETATM    1  C   UNL     1     -13.012  11.691  71.913  1.00  0.00    -0.442 C  
HETATM    2  C   UNL     1     -12.985  11.017  70.541  1.00  0.00    -0.085 C  
HETATM    3  C   UNL     1     -11.572  11.091  69.958  1.00  0.00    -0.427 C  
ENDROOT
BRANCH   2   4
HETATM    4  N   UNL     1     -13.431   9.632  70.705  1.00  0.00    -0.596 NA 
HETATM    5  H   UNL     1     -13.264   9.095  69.855  1.00  0.00     0.000 HD 
BRANCH   4   6
HETATM    6  C   UNL     1     -12.838   8.962  71.870  1.00  0.00    -0.380 C  
BRANCH   6   7
HETATM    7  C   UNL     1     -13.065   7.447  71.763  1.00  0.00    -0.317 C  
HETATM    8  O   UNL     1     -14.232   7.185  70.967  1.00  0.00    -0.493 OA 
HETATM    9  H   UNL     1     -14.373   6.249  70.901  1.00  0.00     0.000 HD 
BRANCH   7  10
HETATM   10  C   UNL     1     -11.854   6.733  71.154  1.00  0.00    -0.360 C  
BRANCH  10  11
HETATM   11  O   UNL     1     -10.950   7.687  70.573  1.00  0.00    -0.242 OA 
BRANCH  11  12
HETATM   12  C   UNL     1     -10.484   7.350  69.318  1.00  0.00    -0.220 A  
HETATM   13  C   UNL     1     -11.093   6.356  68.539  1.00  0.00    -0.385 A  
HETATM   14  C   UNL     1     -10.603   6.038  67.278  1.00  0.00    -0.367 A  
HETATM   15  C   UNL     1      -9.513   6.729  66.765  1.00  0.00    -0.199 A  
HETATM   16  C   UNL     1      -8.906   7.756  67.500  1.00  0.00    -0.124 A  
HETATM   17  C   UNL     1      -9.385   8.084  68.795  1.00  0.00    -0.147 A  
HETATM   18  C   UNL     1      -8.728   9.127  69.489  1.00  0.00    -0.140 A  
HETATM   19  C   UNL     1      -7.652   9.821  68.923  1.00  0.00    -0.081 A  
HETATM   20  C   UNL     1      -7.203   9.490  67.649  1.00  0.00    -0.082 A  
HETATM   21  C   UNL     1      -7.825   8.461  66.946  1.00  0.00    -0.095 A  
ENDBRANCH  11  12
ENDBRANCH  10  11
ENDBRANCH   7  10
ENDBRANCH   6   7
ENDBRANCH   4   6
ENDBRANCH   2   4
TORSDOF 6
ENDMDL
MODEL      171
REMARK 921   NORMALIZED FREE ENERGY PREDICTED BY IDOCK:   -4.01 KCAL/MOL
REMARK 922        TOTAL FREE ENERGY PREDICTED BY IDOCK:   -6.10 KCAL/MOL
REMARK 923 INTER-LIGAND FREE ENERGY PREDICTED BY IDOCK:   -5.35 KCAL/MOL
REMARK 924 INTRA-LIGAND FREE ENERGY PREDICTED BY IDOCK:   -0.74 KCAL/MOL
REMARK 927      BINDING AFFINITY PREDICTED BY RF-SCORE:    0.00 PKD
ROOT
HETATM    1  C   UNL     1     -11.025   6.712  67.378  1.00  0.00    -0.434 C  
HETATM    2  C   UNL     1      -9.882   6.014  66.639  1.00  0.00    -0.164 C  
HETATM    3  C   UNL     1     -10.381   4.692  66.050  1.00  0.00    -0.318 C  
ENDROOT
BRANCH   2   4
HETATM    4  N   UNL     1      -9.391   6.919  65.599  1.00  0.00    -0.364 NA 
HETATM    5  H   UNL     1      -9.888   7.809  65.630  1.00  0.00     0.000 HD 
BRANCH   4   6
HETATM    6  C   UNL     1      -7.938   7.131  65.649  1.00  0.00    -0.126 C  
BRANCH   6   7
HETATM    7  C   UNL     1      -7.460   7.728  64.317  1.00  0.00    -0.100 C  
HETATM    8  O   UNL     1      -7.470   6.716  63.298  1.00  0.00    -0.065 OA 
HETATM    9  H   UNL     1      -7.175   7.085  62.475  1.00  0.00     0.000 HD 
BRANCH   7  10
HETATM   10  C   UNL     1      -8.332   8.910  63.879  1.00  0.00    -0.159 C  
BRANCH  10  11
HETATM   11  O   UNL     1      -8.608   9.770  64.997  1.00  0.00    -0.142 OA 
BRANCH  11  12
HETATM   12  C   UNL     1      -9.651  10.653  64.801  1.00  0.00    -0.280 A  
HETATM   13  C   UNL     1     -10.153  10.943  63.525  1.00  0.00    -0.406 A  
HETATM   14  C   UNL     1     -11.204  11.835  63.357  1.00  0.00    -0.440 A  
HETATM   15  C   UNL     1     -11.788  12.433  64.467  1.00  0.00    -0.452 A  
HETATM   16  C   UNL     1     -11.338  12.135  65.760  1.00  0.00    -0.402 A  
HETATM   17  C   UNL     1     -10.256  11.235  65.948  1.00  0.00    -0.298 A  
HETATM   18  C   UNL     1      -9.844  10.979  67.277  1.00  0.00    -0.204 A  
HETATM   19  C   UNL     1     -10.481  11.577  68.371  1.00  0.00    -0.226 A  
HETATM   20  C   UNL     1     -11.545  12.449  68.165  1.00  0.00    -0.395 A  
HETATM   21  C   UNL     1     -11.966  12.728  66.868  1.00  0.00    -0.380 A  
ENDBRANCH  11  12
ENDBRANCH  10  11
ENDBRANCH   7  10
ENDBRANCH   6   7
ENDBRANCH   4   6
ENDBRANCH   2   4
TORSDOF 6
ENDMDL
MODEL      172
REMARK 921   NORMALIZED FREE ENERGY PREDICTED BY IDOCK:   -4.00 KCAL/MOL
REMARK 922        TOTAL FREE ENERGY PREDICTED BY IDOCK:   -6.08 KCAL/MOL
REMARK 923 INTER-LIGAND FREE ENERGY PREDICTED BY IDOCK:   -5.14 KCAL/MOL
REMARK 924 INTRA-LIGAND FREE ENERGY PREDICTED BY IDOCK:   -0.94 KCAL/MOL
REMARK 927      BINDING AFFINITY PREDICTED BY RF-SCORE:    0.00 PKD
ROOT
HETATM    1  C   UNL     1     -12.081  14.044  68.285  1.00  0.00    -0.312 C  
HETATM    2  C   UNL     1     -10.824  14.217  67.433  1.00  0.00    -0.285 C  
HETATM    3  C   UNL     1      -9.583  14.159  68.326  1.00  0.00    -0.226 C  
ENDROOT
BRANCH   2   4
HETATM    4  N   UNL     1     -10.812  13.162  66.418  1.00  0.00    -0.285 NA 
HETATM    5  H   UNL     1     -10.714  12.244  66.852  1.00  0.00     0.000 HD 
BRANCH   4   6
HETATM    6  C   UNL     1     -11.980  13.196  65.527  1.00  0.00    -0.412 C  
BRANCH   6   7
HETATM    7  C   UNL     1     -11.721  12.300  64.307  1.00  0.00    -0.381 C  
HETATM    8  O   UNL     1     -11.711  13.097  63.112  1.00  0.00    -0.778 OA 
HETATM    9  H   UNL     1     -11.551  12.543  62.357  1.00  0.00     0.000 HD 
BRANCH   7  10
HETATM   10  C   UNL     1     -10.397  11.540  64.431  1.00  0.00    -0.312 C  
BRANCH  10  11
HETATM   11  O   UNL     1     -10.606  10.270  65.073  1.00  0.00    -0.126 OA 
BRANCH  11  12
HETATM   12  C   UNL     1      -9.593   9.882  65.927  1.00  0.00    -0.239 A  
HETATM   13  C   UNL     1      -8.322   9.522  65.461  1.00  0.00    -0.137 A  
HETATM   14  C   UNL     1      -7.321   9.137  66.344  1.00  0.00    -0.092 A  
HETATM   15  C   UNL     1      -7.569   9.130  67.711  1.00  0.00    -0.085 A  
HETATM   16  C   UNL     1      -8.817   9.524  68.214  1.00  0.00    -0.124 A  
HETATM   17  C   UNL     1      -9.854   9.907  67.324  1.00  0.00    -0.228 A  
HETATM   18  C   UNL     1     -11.092  10.288  67.892  1.00  0.00    -0.341 A  
HETATM   19  C   UNL     1     -11.292  10.300  69.278  1.00  0.00    -0.253 A  
HETATM   20  C   UNL     1     -10.259   9.929  70.133  1.00  0.00    -0.326 A  
HETATM   21  C   UNL     1      -9.032   9.539  69.602  1.00  0.00    -0.198 A  
ENDBRANCH  11  12
ENDBRANCH  10  11
ENDBRANCH   7  10
ENDBRANCH   6   7
ENDBRANCH   4   6
ENDBRANCH   2   4
TORSDOF 6
ENDMDL
MODEL      173
REMARK 921   NORMALIZED FREE ENERGY PREDICTED BY IDOCK:   -3.98 KCAL/MOL
REMARK 922        TOTAL FREE ENERGY PREDICTED BY IDOCK:   -6.05 KCAL/MOL
REMARK 923 INTER-LIGAND FREE ENERGY PREDICTED BY IDOCK:   -5.64 KCAL/MOL
REMARK 924 INTRA-LIGAND FREE ENERGY PREDICTED BY IDOCK:   -0.42 KCAL/MOL
REMARK 927      BINDING AFFINITY PREDICTED BY RF-SCORE:    0.00 PKD
ROOT
HETATM    1  C   UNL     1      -9.155   7.569  72.583  1.00  0.00    -0.196 C  
HETATM    2  C   UNL     1     -10.209   8.074  71.597  1.00  0.00    -0.202 C  
HETATM    3  C   UNL     1     -11.555   8.218  72.310  1.00  0.00    -0.449 C  
ENDROOT
BRANCH   2   4
HETATM    4  N   UNL     1      -9.746   9.351  71.050  1.00  0.00    -0.262 NA 
HETATM    5  H   UNL     1      -9.981  10.120  71.678  1.00  0.00     0.000 HD 
BRANCH   4   6
HETATM    6  C   UNL     1      -8.313   9.361  70.726  1.00  0.00    -0.131 C  
BRANCH   6   7
HETATM    7  C   UNL     1      -8.059  10.318  69.552  1.00  0.00    -0.162 C  
HETATM    8  O   UNL     1      -6.809   9.994  68.922  1.00  0.00    -0.052 OA 
HETATM    9  H   UNL     1      -6.652  10.586  68.196  1.00  0.00     0.000 HD 
BRANCH   7  10
HETATM   10  C   UNL     1      -9.188  10.260  68.518  1.00  0.00    -0.144 C  
BRANCH  10  11
HETATM   11  O   UNL     1      -9.042  11.318  67.556  1.00  0.00    -0.149 OA 
BRANCH  11  12
HETATM   12  C   UNL     1     -10.151  12.128  67.417  1.00  0.00    -0.199 A  
HETATM   13  C   UNL     1     -10.619  12.936  68.462  1.00  0.00    -0.270 A  
HETATM   14  C   UNL     1     -11.738  13.742  68.293  1.00  0.00    -0.394 A  
HETATM   15  C   UNL     1     -12.391  13.773  67.067  1.00  0.00    -0.289 A  
HETATM   16  C   UNL     1     -11.925  13.008  65.989  1.00  0.00    -0.498 A  
HETATM   17  C   UNL     1     -10.791  12.169  66.149  1.00  0.00    -0.317 A  
HETATM   18  C   UNL     1     -10.373  11.419  65.025  1.00  0.00    -0.342 A  
HETATM   19  C   UNL     1     -11.038  11.502  63.796  1.00  0.00    -0.471 A  
HETATM   20  C   UNL     1     -12.143  12.338  63.659  1.00  0.00    -0.648 A  
HETATM   21  C   UNL     1     -12.583  13.081  64.751  1.00  0.00    -0.460 A  
ENDBRANCH  11  12
ENDBRANCH  10  11
ENDBRANCH   7  10
ENDBRANCH   6   7
ENDBRANCH   4   6
ENDBRANCH   2   4
TORSDOF 6
ENDMDL
MODEL      174
REMARK 921   NORMALIZED FREE ENERGY PREDICTED BY IDOCK:   -3.97 KCAL/MOL
REMARK 922        TOTAL FREE ENERGY PREDICTED BY IDOCK:   -6.04 KCAL/MOL
REMARK 923 INTER-LIGAND FREE ENERGY PREDICTED BY IDOCK:   -5.50 KCAL/MOL
REMARK 924 INTRA-LIGAND FREE ENERGY PREDICTED BY IDOCK:   -0.54 KCAL/MOL
REMARK 927      BINDING AFFINITY PREDICTED BY RF-SCORE:    0.00 PKD
ROOT
HETATM    1  C   UNL     1      -8.468   6.392  67.929  1.00  0.00    -0.118 C  
HETATM    2  C   UNL     1      -9.954   6.187  68.224  1.00  0.00    -0.143 C  
HETATM    3  C   UNL     1     -10.123   5.561  69.611  1.00  0.00    -0.309 C  
ENDROOT
BRANCH   2   4
HETATM    4  N   UNL     1     -10.621   7.487  68.131  1.00  0.00    -0.341 NA 
HETATM    5  H   UNL     1     -11.633   7.372  68.083  1.00  0.00     0.000 HD 
BRANCH   4   6
HETATM    6  C   UNL     1     -10.251   8.410  69.212  1.00  0.00    -0.208 C  
BRANCH   6   7
HETATM    7  C   UNL     1     -10.175   9.842  68.662  1.00  0.00    -0.190 C  
HETATM    8  O   UNL     1     -10.067  10.776  69.747  1.00  0.00    -0.438 OA 
HETATM    9  H   UNL     1     -10.020  11.661  69.407  1.00  0.00     0.000 HD 
BRANCH   7  10
HETATM   10  C   UNL     1      -8.990  10.020  67.707  1.00  0.00    -0.131 C  
BRANCH  10  11
HETATM   11  O   UNL     1      -9.027  11.323  67.100  1.00  0.00    -0.151 OA 
BRANCH  11  12
HETATM   12  C   UNL     1      -9.549  11.348  65.822  1.00  0.00    -0.233 A  
HETATM   13  C   UNL     1      -9.055  10.527  64.799  1.00  0.00    -0.242 A  
HETATM   14  C   UNL     1      -9.600  10.573  63.522  1.00  0.00    -0.374 A  
HETATM   15  C   UNL     1     -10.666  11.423  63.255  1.00  0.00    -0.332 A  
HETATM   16  C   UNL     1     -11.210  12.228  64.264  1.00  0.00    -0.409 A  
HETATM   17  C   UNL     1     -10.656  12.202  65.571  1.00  0.00    -0.314 A  
HETATM   18  C   UNL     1     -11.246  13.041  66.545  1.00  0.00    -0.335 A  
HETATM   19  C   UNL     1     -12.342  13.860  66.244  1.00  0.00    -0.489 A  
HETATM   20  C   UNL     1     -12.875  13.863  64.959  1.00  0.00    -0.309 A  
HETATM   21  C   UNL     1     -12.308  13.055  63.977  1.00  0.00    -0.437 A  
ENDBRANCH  11  12
ENDBRANCH  10  11
ENDBRANCH   7  10
ENDBRANCH   6   7
ENDBRANCH   4   6
ENDBRANCH   2   4
TORSDOF 6
ENDMDL
MODEL      175
REMARK 921   NORMALIZED FREE ENERGY PREDICTED BY IDOCK:   -3.97 KCAL/MOL
REMARK 922        TOTAL FREE ENERGY PREDICTED BY IDOCK:   -6.03 KCAL/MOL
REMARK 923 INTER-LIGAND FREE ENERGY PREDICTED BY IDOCK:   -5.25 KCAL/MOL
REMARK 924 INTRA-LIGAND FREE ENERGY PREDICTED BY IDOCK:   -0.79 KCAL/MOL
REMARK 927      BINDING AFFINITY PREDICTED BY RF-SCORE:    0.00 PKD
ROOT
HETATM    1  C   UNL     1      -9.135   4.554  67.129  1.00  0.00    -0.136 C  
HETATM    2  C   UNL     1      -9.506   5.984  67.524  1.00  0.00    -0.112 C  
HETATM    3  C   UNL     1     -10.930   6.295  67.056  1.00  0.00    -0.442 C  
ENDROOT
BRANCH   2   4
HETATM    4  N   UNL     1      -9.374   6.104  68.977  1.00  0.00    -0.128 NA 
HETATM    5  H   UNL     1      -8.657   6.788  69.220  1.00  0.00     0.000 HD 
BRANCH   4   6
HETATM    6  C   UNL     1     -10.641   6.413  69.654  1.00  0.00    -0.254 C  
BRANCH   6   7
HETATM    7  C   UNL     1     -10.399   7.475  70.737  1.00  0.00    -0.203 C  
HETATM    8  O   UNL     1      -8.987   7.662  70.928  1.00  0.00    -0.145 OA 
HETATM    9  H   UNL     1      -8.838   8.318  71.598  1.00  0.00     0.000 HD 
BRANCH   7  10
HETATM   10  C   UNL     1     -11.052   8.813  70.376  1.00  0.00    -0.236 C  
BRANCH  10  11
HETATM   11  O   UNL     1     -10.651   9.228  69.059  1.00  0.00    -0.218 OA 
BRANCH  11  12
HETATM   12  C   UNL     1     -11.001  10.522  68.730  1.00  0.00    -0.251 A  
HETATM   13  C   UNL     1     -11.490  11.426  69.683  1.00  0.00    -0.380 A  
HETATM   14  C   UNL     1     -11.834  12.724  69.323  1.00  0.00    -0.358 A  
HETATM   15  C   UNL     1     -11.670  13.144  68.009  1.00  0.00    -0.394 A  
HETATM   16  C   UNL     1     -11.147  12.278  67.040  1.00  0.00    -0.339 A  
HETATM   17  C   UNL     1     -10.803  10.946  67.388  1.00  0.00    -0.333 A  
HETATM   18  C   UNL     1     -10.284  10.118  66.365  1.00  0.00    -0.288 A  
HETATM   19  C   UNL     1     -10.103  10.590  65.059  1.00  0.00    -0.390 A  
HETATM   20  C   UNL     1     -10.439  11.903  64.742  1.00  0.00    -0.333 A  
HETATM   21  C   UNL     1     -10.961  12.737  65.726  1.00  0.00    -0.306 A  
ENDBRANCH  11  12
ENDBRANCH  10  11
ENDBRANCH   7  10
ENDBRANCH   6   7
ENDBRANCH   4   6
ENDBRANCH   2   4
TORSDOF 6
ENDMDL
MODEL      176
REMARK 921   NORMALIZED FREE ENERGY PREDICTED BY IDOCK:   -3.95 KCAL/MOL
REMARK 922        TOTAL FREE ENERGY PREDICTED BY IDOCK:   -6.02 KCAL/MOL
REMARK 923 INTER-LIGAND FREE ENERGY PREDICTED BY IDOCK:   -5.58 KCAL/MOL
REMARK 924 INTRA-LIGAND FREE ENERGY PREDICTED BY IDOCK:   -0.44 KCAL/MOL
REMARK 927      BINDING AFFINITY PREDICTED BY RF-SCORE:    0.00 PKD
ROOT
HETATM    1  C   UNL     1      -8.607   4.632  67.536  1.00  0.00    -0.103 C  
HETATM    2  C   UNL     1      -9.533   5.811  67.839  1.00  0.00    -0.110 C  
HETATM    3  C   UNL     1     -10.748   5.764  66.910  1.00  0.00    -0.381 C  
ENDROOT
BRANCH   2   4
HETATM    4  N   UNL     1      -9.924   5.733  69.248  1.00  0.00    -0.168 NA 
HETATM    5  H   UNL     1      -9.288   6.277  69.830  1.00  0.00     0.000 HD 
BRANCH   4   6
HETATM    6  C   UNL     1     -11.319   6.127  69.488  1.00  0.00    -0.356 C  
BRANCH   6   7
HETATM    7  C   UNL     1     -11.475   6.603  70.939  1.00  0.00    -0.347 C  
HETATM    8  O   UNL     1     -10.181   6.772  71.538  1.00  0.00    -0.193 OA 
HETATM    9  H   UNL     1     -10.278   7.066  72.436  1.00  0.00     0.000 HD 
BRANCH   7  10
HETATM   10  C   UNL     1     -12.259   7.917  71.025  1.00  0.00    -0.198 C  
BRANCH  10  11
HETATM   11  O   UNL     1     -11.570   8.958  70.313  1.00  0.00    -0.178 OA 
BRANCH  11  12
HETATM   12  C   UNL     1     -11.995  10.238  70.610  1.00  0.00    -0.342 A  
HETATM   13  C   UNL     1     -12.798  10.517  71.724  1.00  0.00    -0.559 A  
HETATM   14  C   UNL     1     -13.210  11.815  71.999  1.00  0.00    -0.460 A  
HETATM   15  C   UNL     1     -12.804  12.859  71.177  1.00  0.00    -0.326 A  
HETATM   16  C   UNL     1     -11.967  12.621  70.078  1.00  0.00    -0.377 A  
HETATM   17  C   UNL     1     -11.548  11.299  69.776  1.00  0.00    -0.408 A  
HETATM   18  C   UNL     1     -10.709  11.122  68.651  1.00  0.00    -0.234 A  
HETATM   19  C   UNL     1     -10.294  12.205  67.867  1.00  0.00    -0.216 A  
HETATM   20  C   UNL     1     -10.710  13.494  68.186  1.00  0.00    -0.265 A  
HETATM   21  C   UNL     1     -11.544  13.697  69.282  1.00  0.00    -0.363 A  
ENDBRANCH  11  12
ENDBRANCH  10  11
ENDBRANCH   7  10
ENDBRANCH   6   7
ENDBRANCH   4   6
ENDBRANCH   2   4
TORSDOF 6
ENDMDL
MODEL      177
REMARK 921   NORMALIZED FREE ENERGY PREDICTED BY IDOCK:   -3.94 KCAL/MOL
REMARK 922        TOTAL FREE ENERGY PREDICTED BY IDOCK:   -6.00 KCAL/MOL
REMARK 923 INTER-LIGAND FREE ENERGY PREDICTED BY IDOCK:   -4.79 KCAL/MOL
REMARK 924 INTRA-LIGAND FREE ENERGY PREDICTED BY IDOCK:   -1.22 KCAL/MOL
REMARK 927      BINDING AFFINITY PREDICTED BY RF-SCORE:    0.00 PKD
ROOT
HETATM    1  C   UNL     1     -10.103  11.072  67.062  1.00  0.00    -0.232 C  
HETATM    2  C   UNL     1     -10.382  10.070  68.183  1.00  0.00    -0.194 C  
HETATM    3  C   UNL     1     -11.265  10.722  69.250  1.00  0.00    -0.333 C  
ENDROOT
BRANCH   2   4
HETATM    4  N   UNL     1     -11.023   8.894  67.594  1.00  0.00    -0.475 NA 
HETATM    5  H   UNL     1     -11.912   9.145  67.162  1.00  0.00     0.000 HD 
BRANCH   4   6
HETATM    6  C   UNL     1     -10.164   8.178  66.641  1.00  0.00    -0.259 C  
BRANCH   6   7
HETATM    7  C   UNL     1     -10.286   6.665  66.875  1.00  0.00    -0.220 C  
HETATM    8  O   UNL     1      -9.524   5.956  65.886  1.00  0.00    -0.310 OA 
HETATM    9  H   UNL     1      -9.600   5.021  66.031  1.00  0.00     0.000 HD 
BRANCH   7  10
HETATM   10  C   UNL     1      -9.808   6.268  68.276  1.00  0.00    -0.126 C  
BRANCH  10  11
HETATM   11  O   UNL     1     -10.910   6.267  69.200  1.00  0.00    -0.268 OA 
BRANCH  11  12
HETATM   12  C   UNL     1     -10.727   7.059  70.315  1.00  0.00    -0.241 A  
HETATM   13  C   UNL     1      -9.453   7.431  70.765  1.00  0.00    -0.167 A  
HETATM   14  C   UNL     1      -9.299   8.230  71.891  1.00  0.00    -0.282 A  
HETATM   15  C   UNL     1     -10.419   8.692  72.570  1.00  0.00    -0.221 A  
HETATM   16  C   UNL     1     -11.709   8.374  72.124  1.00  0.00    -0.442 A  
HETATM   17  C   UNL     1     -11.883   7.547  70.983  1.00  0.00    -0.319 A  
HETATM   18  C   UNL     1     -13.209   7.256  70.585  1.00  0.00     0.287 A  
HETATM   19  C   UNL     1     -14.313   7.769  71.278  1.00  0.00    -0.425 A  
HETATM   20  C   UNL     1     -14.119   8.585  72.388  1.00  0.00    -0.391 A  
HETATM   21  C   UNL     1     -12.825   8.880  72.809  1.00  0.00    -0.169 A  
ENDBRANCH  11  12
ENDBRANCH  10  11
ENDBRANCH   7  10
ENDBRANCH   6   7
ENDBRANCH   4   6
ENDBRANCH   2   4
TORSDOF 6
ENDMDL
MODEL      178
REMARK 921   NORMALIZED FREE ENERGY PREDICTED BY IDOCK:   -3.93 KCAL/MOL
REMARK 922        TOTAL FREE ENERGY PREDICTED BY IDOCK:   -5.99 KCAL/MOL
REMARK 923 INTER-LIGAND FREE ENERGY PREDICTED BY IDOCK:   -4.71 KCAL/MOL
REMARK 924 INTRA-LIGAND FREE ENERGY PREDICTED BY IDOCK:   -1.28 KCAL/MOL
REMARK 927      BINDING AFFINITY PREDICTED BY RF-SCORE:    0.00 PKD
ROOT
HETATM    1  C   UNL     1     -11.739  12.314  68.598  1.00  0.00    -0.377 C  
HETATM    2  C   UNL     1     -12.055  13.774  68.924  1.00  0.00    -0.313 C  
HETATM    3  C   UNL     1     -10.877  14.402  69.673  1.00  0.00    -0.144 C  
ENDROOT
BRANCH   2   4
HETATM    4  N   UNL     1     -12.332  14.472  67.667  1.00  0.00    -0.585 NA 
HETATM    5  H   UNL     1     -11.643  15.204  67.500  1.00  0.00     0.000 HD 
BRANCH   4   6
HETATM    6  C   UNL     1     -12.427  13.572  66.509  1.00  0.00    -0.253 C  
BRANCH   6   7
HETATM    7  C   UNL     1     -11.707  14.202  65.309  1.00  0.00    -0.353 C  
HETATM    8  O   UNL     1     -12.672  14.668  64.352  1.00  0.00    -0.636 OA 
HETATM    9  H   UNL     1     -12.226  15.057  63.609  1.00  0.00     0.000 HD 
BRANCH   7  10
HETATM   10  C   UNL     1     -10.801  15.362  65.735  1.00  0.00    -0.343 C  
BRANCH  10  11
HETATM   11  O   UNL     1      -9.418  15.005  65.570  1.00  0.00    -0.252 OA 
BRANCH  11  12
HETATM   12  C   UNL     1      -8.698  14.932  66.745  1.00  0.00    -0.246 A  
HETATM   13  C   UNL     1      -8.274  16.077  67.432  1.00  0.00    -0.189 A  
HETATM   14  C   UNL     1      -7.551  15.974  68.614  1.00  0.00    -0.173 A  
HETATM   15  C   UNL     1      -7.262  14.721  69.141  1.00  0.00    -0.148 A  
HETATM   16  C   UNL     1      -7.706  13.556  68.501  1.00  0.00    -0.125 A  
HETATM   17  C   UNL     1      -8.434  13.644  67.286  1.00  0.00    -0.203 A  
HETATM   18  C   UNL     1      -8.850  12.433  66.686  1.00  0.00    -0.156 A  
HETATM   19  C   UNL     1      -8.567  11.190  67.266  1.00  0.00    -0.140 A  
HETATM   20  C   UNL     1      -7.859  11.127  68.463  1.00  0.00    -0.136 A  
HETATM   21  C   UNL     1      -7.429  12.303  69.071  1.00  0.00     0.058 A  
ENDBRANCH  11  12
ENDBRANCH  10  11
ENDBRANCH   7  10
ENDBRANCH   6   7
ENDBRANCH   4   6
ENDBRANCH   2   4
TORSDOF 6
ENDMDL
MODEL      179
REMARK 921   NORMALIZED FREE ENERGY PREDICTED BY IDOCK:   -3.93 KCAL/MOL
REMARK 922        TOTAL FREE ENERGY PREDICTED BY IDOCK:   -5.99 KCAL/MOL
REMARK 923 INTER-LIGAND FREE ENERGY PREDICTED BY IDOCK:   -5.30 KCAL/MOL
REMARK 924 INTRA-LIGAND FREE ENERGY PREDICTED BY IDOCK:   -0.69 KCAL/MOL
REMARK 927      BINDING AFFINITY PREDICTED BY RF-SCORE:    0.00 PKD
ROOT
HETATM    1  C   UNL     1      -8.593  10.443  67.209  1.00  0.00    -0.126 C  
HETATM    2  C   UNL     1      -9.922  10.670  66.488  1.00  0.00    -0.215 C  
HETATM    3  C   UNL     1     -11.081  10.270  67.404  1.00  0.00    -0.261 C  
ENDROOT
BRANCH   2   4
HETATM    4  N   UNL     1      -9.997  12.081  66.104  1.00  0.00    -0.225 NA 
HETATM    5  H   UNL     1      -9.777  12.199  65.115  1.00  0.00     0.000 HD 
BRANCH   4   6
HETATM    6  C   UNL     1     -11.285  12.706  66.430  1.00  0.00    -0.305 C  
BRANCH   6   7
HETATM    7  C   UNL     1     -11.569  13.845  65.440  1.00  0.00    -0.325 C  
HETATM    8  O   UNL     1     -12.932  14.277  65.573  1.00  0.00    -0.607 OA 
HETATM    9  H   UNL     1     -13.108  14.981  64.960  1.00  0.00     0.000 HD 
BRANCH   7  10
HETATM   10  C   UNL     1     -10.627  15.034  65.657  1.00  0.00    -0.346 C  
BRANCH  10  11
HETATM   11  O   UNL     1     -10.339  15.196  67.056  1.00  0.00    -0.262 OA 
BRANCH  11  12
HETATM   12  C   UNL     1      -9.082  15.697  67.332  1.00  0.00    -0.194 A  
HETATM   13  C   UNL     1      -7.915  14.964  67.079  1.00  0.00    -0.170 A  
HETATM   14  C   UNL     1      -6.664  15.495  67.365  1.00  0.00    -0.200 A  
HETATM   15  C   UNL     1      -6.559  16.779  67.884  1.00  0.00    -0.153 A  
HETATM   16  C   UNL     1      -7.703  17.555  68.111  1.00  0.00    -0.231 A  
HETATM   17  C   UNL     1      -8.990  17.022  67.837  1.00  0.00    -0.228 A  
HETATM   18  C   UNL     1     -10.107  17.852  68.092  1.00  0.00    -0.368 A  
HETATM   19  C   UNL     1      -9.957  19.154  68.585  1.00  0.00    -0.486 A  
HETATM   20  C   UNL     1      -8.686  19.660  68.839  1.00  0.00    -0.229 A  
HETATM   21  C   UNL     1      -7.569  18.862  68.607  1.00  0.00    -0.366 A  
ENDBRANCH  11  12
ENDBRANCH  10  11
ENDBRANCH   7  10
ENDBRANCH   6   7
ENDBRANCH   4   6
ENDBRANCH   2   4
TORSDOF 6
ENDMDL
MODEL      180
REMARK 921   NORMALIZED FREE ENERGY PREDICTED BY IDOCK:   -3.93 KCAL/MOL
REMARK 922        TOTAL FREE ENERGY PREDICTED BY IDOCK:   -5.98 KCAL/MOL
REMARK 923 INTER-LIGAND FREE ENERGY PREDICTED BY IDOCK:   -5.42 KCAL/MOL
REMARK 924 INTRA-LIGAND FREE ENERGY PREDICTED BY IDOCK:   -0.56 KCAL/MOL
REMARK 927      BINDING AFFINITY PREDICTED BY RF-SCORE:    0.00 PKD
ROOT
HETATM    1  C   UNL     1      -9.056   4.514  65.063  1.00  0.00    -0.152 C  
HETATM    2  C   UNL     1      -9.941   4.900  66.248  1.00  0.00    -0.234 C  
HETATM    3  C   UNL     1      -9.271   4.470  67.554  1.00  0.00    -0.156 C  
ENDROOT
BRANCH   2   4
HETATM    4  N   UNL     1     -10.159   6.347  66.201  1.00  0.00    -0.404 NA 
HETATM    5  H   UNL     1     -10.526   6.686  67.091  1.00  0.00     0.000 HD 
BRANCH   4   6
HETATM    6  C   UNL     1      -8.964   7.105  65.807  1.00  0.00    -0.008 C  
BRANCH   6   7
HETATM    7  C   UNL     1      -8.735   8.255  66.798  1.00  0.00    -0.133 C  
HETATM    8  O   UNL     1      -8.412   9.458  66.082  1.00  0.00    -0.116 OA 
HETATM    9  H   UNL     1      -8.270  10.169  66.695  1.00  0.00     0.000 HD 
BRANCH   7  10
HETATM   10  C   UNL     1      -9.963   8.495  67.683  1.00  0.00    -0.198 C  
BRANCH  10  11
HETATM   11  O   UNL     1      -9.576   8.583  69.065  1.00  0.00    -0.163 OA 
BRANCH  11  12
HETATM   12  C   UNL     1     -10.501   8.077  69.956  1.00  0.00    -0.228 A  
HETATM   13  C   UNL     1     -10.547   6.717  70.290  1.00  0.00    -0.265 A  
HETATM   14  C   UNL     1     -11.489   6.236  71.191  1.00  0.00    -0.362 A  
HETATM   15  C   UNL     1     -12.383   7.113  71.792  1.00  0.00    -0.385 A  
HETATM   16  C   UNL     1     -12.338   8.485  71.511  1.00  0.00    -0.354 A  
HETATM   17  C   UNL     1     -11.391   8.991  70.583  1.00  0.00    -0.311 A  
HETATM   18  C   UNL     1     -11.399  10.384  70.337  1.00  0.00    -0.417 A  
HETATM   19  C   UNL     1     -12.295  11.239  70.988  1.00  0.00    -0.472 A  
HETATM   20  C   UNL     1     -13.210  10.724  71.901  1.00  0.00    -0.524 A  
HETATM   21  C   UNL     1     -13.232   9.355  72.156  1.00  0.00    -0.541 A  
ENDBRANCH  11  12
ENDBRANCH  10  11
ENDBRANCH   7  10
ENDBRANCH   6   7
ENDBRANCH   4   6
ENDBRANCH   2   4
TORSDOF 6
ENDMDL
MODEL      181
REMARK 921   NORMALIZED FREE ENERGY PREDICTED BY IDOCK:   -3.93 KCAL/MOL
REMARK 922        TOTAL FREE ENERGY PREDICTED BY IDOCK:   -5.98 KCAL/MOL
REMARK 923 INTER-LIGAND FREE ENERGY PREDICTED BY IDOCK:   -5.39 KCAL/MOL
REMARK 924 INTRA-LIGAND FREE ENERGY PREDICTED BY IDOCK:   -0.59 KCAL/MOL
REMARK 927      BINDING AFFINITY PREDICTED BY RF-SCORE:    0.00 PKD
ROOT
HETATM    1  C   UNL     1      -9.996  11.215  62.906  1.00  0.00    -0.282 C  
HETATM    2  C   UNL     1     -10.561  12.397  63.694  1.00  0.00    -0.445 C  
HETATM    3  C   UNL     1     -12.087  12.295  63.754  1.00  0.00    -0.624 C  
ENDROOT
BRANCH   2   4
HETATM    4  N   UNL     1      -9.964  12.380  65.031  1.00  0.00    -0.417 NA 
HETATM    5  H   UNL     1     -10.688  12.382  65.750  1.00  0.00     0.000 HD 
BRANCH   4   6
HETATM    6  C   UNL     1      -9.028  11.267  65.237  1.00  0.00    -0.068 C  
BRANCH   6   7
HETATM    7  C   UNL     1      -8.849  11.018  66.742  1.00  0.00    -0.156 C  
HETATM    8  O   UNL     1      -7.550  11.466  67.159  1.00  0.00    -0.129 OA 
HETATM    9  H   UNL     1      -7.439  11.311  68.089  1.00  0.00     0.000 HD 
BRANCH   7  10
HETATM   10  C   UNL     1      -9.928  11.727  67.567  1.00  0.00    -0.192 C  
BRANCH  10  11
HETATM   11  O   UNL     1     -11.040  10.846  67.802  1.00  0.00    -0.265 OA 
BRANCH  11  12
HETATM   12  C   UNL     1     -10.877   9.985  68.869  1.00  0.00    -0.220 A  
HETATM   13  C   UNL     1     -10.879  10.434  70.196  1.00  0.00    -0.333 A  
HETATM   14  C   UNL     1     -10.714   9.544  71.250  1.00  0.00    -0.386 A  
HETATM   15  C   UNL     1     -10.570   8.186  70.994  1.00  0.00    -0.242 A  
HETATM   16  C   UNL     1     -10.605   7.698  69.681  1.00  0.00    -0.243 A  
HETATM   17  C   UNL     1     -10.759   8.596  68.592  1.00  0.00    -0.092 A  
HETATM   18  C   UNL     1     -10.781   8.043  67.290  1.00  0.00    -0.280 A  
HETATM   19  C   UNL     1     -10.667   6.664  67.075  1.00  0.00    -0.437 A  
HETATM   20  C   UNL     1     -10.525   5.801  68.158  1.00  0.00    -0.277 A  
HETATM   21  C   UNL     1     -10.490   6.318  69.450  1.00  0.00    -0.298 A  
ENDBRANCH  11  12
ENDBRANCH  10  11
ENDBRANCH   7  10
ENDBRANCH   6   7
ENDBRANCH   4   6
ENDBRANCH   2   4
TORSDOF 6
ENDMDL
MODEL      182
REMARK 921   NORMALIZED FREE ENERGY PREDICTED BY IDOCK:   -3.93 KCAL/MOL
REMARK 922        TOTAL FREE ENERGY PREDICTED BY IDOCK:   -5.98 KCAL/MOL
REMARK 923 INTER-LIGAND FREE ENERGY PREDICTED BY IDOCK:   -5.43 KCAL/MOL
REMARK 924 INTRA-LIGAND FREE ENERGY PREDICTED BY IDOCK:   -0.55 KCAL/MOL
REMARK 927      BINDING AFFINITY PREDICTED BY RF-SCORE:    0.00 PKD
ROOT
HETATM    1  C   UNL     1     -12.640  11.787  63.338  1.00  0.00    -0.458 C  
HETATM    2  C   UNL     1     -11.320  12.284  63.929  1.00  0.00    -0.429 C  
HETATM    3  C   UNL     1     -10.163  11.897  63.004  1.00  0.00    -0.185 C  
ENDROOT
BRANCH   2   4
HETATM    4  N   UNL     1     -11.415  13.735  64.100  1.00  0.00    -0.572 NA 
HETATM    5  H   UNL     1     -12.386  14.022  64.222  1.00  0.00     0.000 HD 
BRANCH   4   6
HETATM    6  C   UNL     1     -10.578  14.249  65.193  1.00  0.00    -0.406 C  
BRANCH   6   7
HETATM    7  C   UNL     1     -11.460  14.569  66.408  1.00  0.00    -0.360 C  
HETATM    8  O   UNL     1     -12.846  14.460  66.047  1.00  0.00    -0.433 OA 
HETATM    9  H   UNL     1     -13.391  14.659  66.799  1.00  0.00     0.000 HD 
BRANCH   7  10
HETATM   10  C   UNL     1     -11.160  13.638  67.588  1.00  0.00    -0.273 C  
BRANCH  10  11
HETATM   11  O   UNL     1     -11.198  12.264  67.164  1.00  0.00    -0.271 OA 
BRANCH  11  12
HETATM   12  C   UNL     1     -10.938  11.346  68.161  1.00  0.00    -0.232 A  
HETATM   13  C   UNL     1     -11.883  11.028  69.146  1.00  0.00    -0.407 A  
HETATM   14  C   UNL     1     -11.595  10.098  70.138  1.00  0.00    -0.350 A  
HETATM   15  C   UNL     1     -10.364   9.453  70.145  1.00  0.00    -0.273 A  
HETATM   16  C   UNL     1      -9.412   9.718  69.152  1.00  0.00    -0.191 A  
HETATM   17  C   UNL     1      -9.686  10.675  68.139  1.00  0.00    -0.167 A  
HETATM   18  C   UNL     1      -8.683  10.902  67.168  1.00  0.00    -0.132 A  
HETATM   19  C   UNL     1      -7.467  10.207  67.191  1.00  0.00    -0.091 A  
HETATM   20  C   UNL     1      -7.222   9.267  68.188  1.00  0.00    -0.078 A  
HETATM   21  C   UNL     1      -8.188   9.029  69.162  1.00  0.00    -0.121 A  
ENDBRANCH  11  12
ENDBRANCH  10  11
ENDBRANCH   7  10
ENDBRANCH   6   7
ENDBRANCH   4   6
ENDBRANCH   2   4
TORSDOF 6
ENDMDL
MODEL      183
REMARK 921   NORMALIZED FREE ENERGY PREDICTED BY IDOCK:   -3.91 KCAL/MOL
REMARK 922        TOTAL FREE ENERGY PREDICTED BY IDOCK:   -5.96 KCAL/MOL
REMARK 923 INTER-LIGAND FREE ENERGY PREDICTED BY IDOCK:   -5.35 KCAL/MOL
REMARK 924 INTRA-LIGAND FREE ENERGY PREDICTED BY IDOCK:   -0.61 KCAL/MOL
REMARK 927      BINDING AFFINITY PREDICTED BY RF-SCORE:    0.00 PKD
ROOT
HETATM    1  C   UNL     1      -9.539  17.061  66.675  1.00  0.00    -0.279 C  
HETATM    2  C   UNL     1      -9.763  15.566  66.908  1.00  0.00    -0.233 C  
HETATM    3  C   UNL     1      -8.544  14.966  67.613  1.00  0.00    -0.181 C  
ENDROOT
BRANCH   2   4
HETATM    4  N   UNL     1     -10.982  15.407  67.703  1.00  0.00    -0.309 NA 
HETATM    5  H   UNL     1     -11.465  14.544  67.455  1.00  0.00     0.000 HD 
BRANCH   4   6
HETATM    6  C   UNL     1     -10.747  15.476  69.151  1.00  0.00    -0.250 C  
BRANCH   6   7
HETATM    7  C   UNL     1     -11.725  14.539  69.876  1.00  0.00    -0.299 C  
HETATM    8  O   UNL     1     -12.883  15.277  70.298  1.00  0.00    -0.594 OA 
HETATM    9  H   UNL     1     -13.488  14.698  70.746  1.00  0.00     0.000 HD 
BRANCH   7  10
HETATM   10  C   UNL     1     -12.156  13.369  68.985  1.00  0.00    -0.259 C  
BRANCH  10  11
HETATM   11  O   UNL     1     -12.136  12.139  69.729  1.00  0.00    -0.290 OA 
BRANCH  11  12
HETATM   12  C   UNL     1     -11.083  11.299  69.425  1.00  0.00    -0.257 A  
HETATM   13  C   UNL     1     -10.140  11.613  68.437  1.00  0.00    -0.207 A  
HETATM   14  C   UNL     1      -9.090  10.749  68.153  1.00  0.00    -0.151 A  
HETATM   15  C   UNL     1      -8.953   9.567  68.871  1.00  0.00    -0.141 A  
HETATM   16  C   UNL     1      -9.855   9.242  69.893  1.00  0.00    -0.219 A  
HETATM   17  C   UNL     1     -10.940  10.108  70.187  1.00  0.00    -0.376 A  
HETATM   18  C   UNL     1     -11.820   9.722  71.225  1.00  0.00    -0.481 A  
HETATM   19  C   UNL     1     -11.628   8.538  71.948  1.00  0.00    -0.410 A  
HETATM   20  C   UNL     1     -10.552   7.708  71.650  1.00  0.00    -0.233 A  
HETATM   21  C   UNL     1      -9.675   8.057  70.626  1.00  0.00    -0.180 A  
ENDBRANCH  11  12
ENDBRANCH  10  11
ENDBRANCH   7  10
ENDBRANCH   6   7
ENDBRANCH   4   6
ENDBRANCH   2   4
TORSDOF 6
ENDMDL
MODEL      184
REMARK 921   NORMALIZED FREE ENERGY PREDICTED BY IDOCK:   -3.90 KCAL/MOL
REMARK 922        TOTAL FREE ENERGY PREDICTED BY IDOCK:   -5.94 KCAL/MOL
REMARK 923 INTER-LIGAND FREE ENERGY PREDICTED BY IDOCK:   -5.33 KCAL/MOL
REMARK 924 INTRA-LIGAND FREE ENERGY PREDICTED BY IDOCK:   -0.61 KCAL/MOL
REMARK 927      BINDING AFFINITY PREDICTED BY RF-SCORE:    0.00 PKD
ROOT
HETATM    1  C   UNL     1     -10.907  17.117  65.307  1.00  0.00    -0.043 C  
HETATM    2  C   UNL     1     -10.256  18.108  66.271  1.00  0.00    -0.395 C  
HETATM    3  C   UNL     1     -10.541  19.539  65.811  1.00  0.00    -0.522 C  
ENDROOT
BRANCH   2   4
HETATM    4  N   UNL     1     -10.786  17.854  67.613  1.00  0.00    -0.383 NA 
HETATM    5  H   UNL     1     -11.236  16.940  67.657  1.00  0.00     0.000 HD 
BRANCH   4   6
HETATM    6  C   UNL     1      -9.778  17.992  68.673  1.00  0.00    -0.350 C  
BRANCH   6   7
HETATM    7  C   UNL     1      -8.469  17.325  68.227  1.00  0.00    -0.243 C  
HETATM    8  O   UNL     1      -7.356  18.172  68.553  1.00  0.00    -0.259 OA 
HETATM    9  H   UNL     1      -6.546  17.759  68.276  1.00  0.00     0.000 HD 
BRANCH   7  10
HETATM   10  C   UNL     1      -8.280  15.951  68.880  1.00  0.00    -0.213 C  
BRANCH  10  11
HETATM   11  O   UNL     1      -8.684  14.907  67.977  1.00  0.00    -0.157 OA 
BRANCH  11  12
HETATM   12  C   UNL     1      -9.770  14.168  68.400  1.00  0.00    -0.226 A  
HETATM   13  C   UNL     1     -10.721  14.683  69.292  1.00  0.00    -0.254 A  
HETATM   14  C   UNL     1     -11.805  13.916  69.700  1.00  0.00    -0.385 A  
HETATM   15  C   UNL     1     -11.970  12.630  69.202  1.00  0.00    -0.293 A  
HETATM   16  C   UNL     1     -11.060  12.098  68.278  1.00  0.00    -0.288 A  
HETATM   17  C   UNL     1      -9.940  12.864  67.861  1.00  0.00    -0.233 A  
HETATM   18  C   UNL     1      -9.054  12.271  66.931  1.00  0.00    -0.208 A  
HETATM   19  C   UNL     1      -9.273  10.983  66.427  1.00  0.00    -0.192 A  
HETATM   20  C   UNL     1     -10.382  10.253  66.842  1.00  0.00    -0.298 A  
HETATM   21  C   UNL     1     -11.266  10.807  67.765  1.00  0.00    -0.385 A  
ENDBRANCH  11  12
ENDBRANCH  10  11
ENDBRANCH   7  10
ENDBRANCH   6   7
ENDBRANCH   4   6
ENDBRANCH   2   4
TORSDOF 6
ENDMDL
MODEL      185
REMARK 921   NORMALIZED FREE ENERGY PREDICTED BY IDOCK:   -3.89 KCAL/MOL
REMARK 922        TOTAL FREE ENERGY PREDICTED BY IDOCK:   -5.94 KCAL/MOL
REMARK 923 INTER-LIGAND FREE ENERGY PREDICTED BY IDOCK:   -5.78 KCAL/MOL
REMARK 924 INTRA-LIGAND FREE ENERGY PREDICTED BY IDOCK:   -0.16 KCAL/MOL
REMARK 927      BINDING AFFINITY PREDICTED BY RF-SCORE:    0.00 PKD
ROOT
HETATM    1  C   UNL     1      -8.896   4.302  67.293  1.00  0.00    -0.121 C  
HETATM    2  C   UNL     1      -7.647   5.161  67.095  1.00  0.00    -0.092 C  
HETATM    3  C   UNL     1      -6.923   4.732  65.817  1.00  0.00    -0.063 C  
ENDROOT
BRANCH   2   4
HETATM    4  N   UNL     1      -8.064   6.564  67.037  1.00  0.00    -0.112 NA 
HETATM    5  H   UNL     1      -8.152   6.875  66.070  1.00  0.00     0.000 HD 
BRANCH   4   6
HETATM    6  C   UNL     1      -9.297   6.837  67.787  1.00  0.00    -0.116 C  
BRANCH   6   7
HETATM    7  C   UNL     1     -10.301   7.563  66.879  1.00  0.00    -0.309 C  
HETATM    8  O   UNL     1     -11.495   6.775  66.746  1.00  0.00    -0.733 OA 
HETATM    9  H   UNL     1     -12.115   7.223  66.184  1.00  0.00     0.000 HD 
BRANCH   7  10
HETATM   10  C   UNL     1     -10.657   8.951  67.421  1.00  0.00    -0.235 C  
BRANCH  10  11
HETATM   11  O   UNL     1      -9.696   9.924  66.977  1.00  0.00    -0.168 OA 
BRANCH  11  12
HETATM   12  C   UNL     1      -9.977  10.493  65.751  1.00  0.00    -0.258 A  
HETATM   13  C   UNL     1      -9.521   9.935  64.549  1.00  0.00    -0.328 A  
HETATM   14  C   UNL     1      -9.820  10.529  63.328  1.00  0.00    -0.309 A  
HETATM   15  C   UNL     1     -10.601  11.677  63.290  1.00  0.00    -0.420 A  
HETATM   16  C   UNL     1     -11.107  12.238  64.471  1.00  0.00    -0.368 A  
HETATM   17  C   UNL     1     -10.800  11.650  65.726  1.00  0.00    -0.334 A  
HETATM   18  C   UNL     1     -11.335  12.266  66.882  1.00  0.00    -0.392 A  
HETATM   19  C   UNL     1     -12.147  13.404  66.799  1.00  0.00    -0.419 A  
HETATM   20  C   UNL     1     -12.443  13.958  65.557  1.00  0.00    -0.541 A  
HETATM   21  C   UNL     1     -11.922  13.380  64.403  1.00  0.00    -0.460 A  
ENDBRANCH  11  12
ENDBRANCH  10  11
ENDBRANCH   7  10
ENDBRANCH   6   7
ENDBRANCH   4   6
ENDBRANCH   2   4
TORSDOF 6
ENDMDL
MODEL      186
REMARK 921   NORMALIZED FREE ENERGY PREDICTED BY IDOCK:   -3.89 KCAL/MOL
REMARK 922        TOTAL FREE ENERGY PREDICTED BY IDOCK:   -5.94 KCAL/MOL
REMARK 923 INTER-LIGAND FREE ENERGY PREDICTED BY IDOCK:   -5.38 KCAL/MOL
REMARK 924 INTRA-LIGAND FREE ENERGY PREDICTED BY IDOCK:   -0.56 KCAL/MOL
REMARK 927      BINDING AFFINITY PREDICTED BY RF-SCORE:    0.00 PKD
ROOT
HETATM    1  C   UNL     1      -9.587  10.242  62.351  1.00  0.00    -0.172 C  
HETATM    2  C   UNL     1      -9.518  10.526  63.852  1.00  0.00    -0.292 C  
HETATM    3  C   UNL     1      -8.279   9.852  64.448  1.00  0.00    -0.164 C  
ENDROOT
BRANCH   2   4
HETATM    4  N   UNL     1      -9.487  11.978  64.039  1.00  0.00    -0.508 NA 
HETATM    5  H   UNL     1      -9.565  12.460  63.144  1.00  0.00     0.000 HD 
BRANCH   4   6
HETATM    6  C   UNL     1     -10.503  12.466  64.983  1.00  0.00    -0.294 C  
BRANCH   6   7
HETATM    7  C   UNL     1      -9.815  12.992  66.251  1.00  0.00    -0.278 C  
HETATM    8  O   UNL     1      -9.298  14.311  66.012  1.00  0.00    -0.488 OA 
HETATM    9  H   UNL     1      -8.873  14.637  66.796  1.00  0.00     0.000 HD 
BRANCH   7  10
HETATM   10  C   UNL     1     -10.773  13.022  67.446  1.00  0.00    -0.245 C  
BRANCH  10  11
HETATM   11  O   UNL     1     -11.516  11.794  67.523  1.00  0.00    -0.308 OA 
BRANCH  11  12
HETATM   12  C   UNL     1     -11.414  11.134  68.732  1.00  0.00    -0.299 A  
HETATM   13  C   UNL     1     -12.272  11.410  69.805  1.00  0.00    -0.332 A  
HETATM   14  C   UNL     1     -12.148  10.729  71.011  1.00  0.00    -0.452 A  
HETATM   15  C   UNL     1     -11.179   9.744  71.152  1.00  0.00    -0.444 A  
HETATM   16  C   UNL     1     -10.331   9.415  70.085  1.00  0.00    -0.273 A  
HETATM   17  C   UNL     1     -10.437  10.110  68.852  1.00  0.00    -0.230 A  
HETATM   18  C   UNL     1      -9.550   9.736  67.816  1.00  0.00    -0.157 A  
HETATM   19  C   UNL     1      -8.609   8.714  67.987  1.00  0.00    -0.137 A  
HETATM   20  C   UNL     1      -8.528   8.039  69.201  1.00  0.00    -0.136 A  
HETATM   21  C   UNL     1      -9.381   8.392  70.243  1.00  0.00    -0.167 A  
ENDBRANCH  11  12
ENDBRANCH  10  11
ENDBRANCH   7  10
ENDBRANCH   6   7
ENDBRANCH   4   6
ENDBRANCH   2   4
TORSDOF 6
ENDMDL
MODEL      187
REMARK 921   NORMALIZED FREE ENERGY PREDICTED BY IDOCK:   -3.87 KCAL/MOL
REMARK 922        TOTAL FREE ENERGY PREDICTED BY IDOCK:   -5.90 KCAL/MOL
REMARK 923 INTER-LIGAND FREE ENERGY PREDICTED BY IDOCK:   -5.23 KCAL/MOL
REMARK 924 INTRA-LIGAND FREE ENERGY PREDICTED BY IDOCK:   -0.67 KCAL/MOL
REMARK 927      BINDING AFFINITY PREDICTED BY RF-SCORE:    0.00 PKD
ROOT
HETATM    1  C   UNL     1     -11.691  12.504  67.746  1.00  0.00    -0.419 C  
HETATM    2  C   UNL     1     -11.203  11.412  68.698  1.00  0.00    -0.243 C  
HETATM    3  C   UNL     1     -12.009  11.462  69.998  1.00  0.00    -0.442 C  
ENDROOT
BRANCH   2   4
HETATM    4  N   UNL     1     -11.345  10.121  68.021  1.00  0.00    -0.572 NA 
HETATM    5  H   UNL     1     -12.292  10.005  67.660  1.00  0.00     0.000 HD 
BRANCH   4   6
HETATM    6  C   UNL     1     -10.352   9.906  66.960  1.00  0.00    -0.239 C  
BRANCH   6   7
HETATM    7  C   UNL     1     -10.032   8.408  66.851  1.00  0.00    -0.271 C  
HETATM    8  O   UNL     1      -8.617   8.223  66.690  1.00  0.00    -0.121 OA 
HETATM    9  H   UNL     1      -8.420   7.297  66.622  1.00  0.00     0.000 HD 
BRANCH   7  10
HETATM   10  C   UNL     1     -10.517   7.634  68.081  1.00  0.00    -0.181 C  
BRANCH  10  11
HETATM   11  O   UNL     1      -9.498   7.614  69.095  1.00  0.00    -0.154 OA 
BRANCH  11  12
HETATM   12  C   UNL     1      -9.949   7.296  70.360  1.00  0.00    -0.191 A  
HETATM   13  C   UNL     1     -10.483   8.260  71.224  1.00  0.00    -0.262 A  
HETATM   14  C   UNL     1     -10.931   7.912  72.493  1.00  0.00    -0.412 A  
HETATM   15  C   UNL     1     -10.875   6.587  72.906  1.00  0.00    -0.288 A  
HETATM   16  C   UNL     1     -10.384   5.590  72.052  1.00  0.00    -0.265 A  
HETATM   17  C   UNL     1      -9.910   5.932  70.758  1.00  0.00    -0.229 A  
HETATM   18  C   UNL     1      -9.422   4.883  69.945  1.00  0.00    -0.229 A  
HETATM   19  C   UNL     1      -9.412   3.554  70.386  1.00  0.00    -0.254 A  
HETATM   20  C   UNL     1      -9.889   3.240  71.655  1.00  0.00    -0.220 A  
HETATM   21  C   UNL     1     -10.367   4.253  72.482  1.00  0.00    -0.239 A  
ENDBRANCH  11  12
ENDBRANCH  10  11
ENDBRANCH   7  10
ENDBRANCH   6   7
ENDBRANCH   4   6
ENDBRANCH   2   4
TORSDOF 6
ENDMDL
MODEL      188
REMARK 921   NORMALIZED FREE ENERGY PREDICTED BY IDOCK:   -3.86 KCAL/MOL
REMARK 922        TOTAL FREE ENERGY PREDICTED BY IDOCK:   -5.89 KCAL/MOL
REMARK 923 INTER-LIGAND FREE ENERGY PREDICTED BY IDOCK:   -5.38 KCAL/MOL
REMARK 924 INTRA-LIGAND FREE ENERGY PREDICTED BY IDOCK:   -0.51 KCAL/MOL
REMARK 927      BINDING AFFINITY PREDICTED BY RF-SCORE:    0.00 PKD
ROOT
HETATM    1  C   UNL     1     -10.154  18.422  67.609  1.00  0.00    -0.378 C  
HETATM    2  C   UNL     1      -9.801  17.060  68.208  1.00  0.00    -0.278 C  
HETATM    3  C   UNL     1      -8.360  17.082  68.724  1.00  0.00    -0.237 C  
ENDROOT
BRANCH   2   4
HETATM    4  N   UNL     1     -10.756  16.773  69.280  1.00  0.00    -0.340 NA 
HETATM    5  H   UNL     1     -11.705  17.007  68.991  1.00  0.00     0.000 HD 
BRANCH   4   6
HETATM    6  C   UNL     1     -10.686  15.388  69.767  1.00  0.00    -0.291 C  
BRANCH   6   7
HETATM    7  C   UNL     1     -12.051  14.709  69.582  1.00  0.00    -0.311 C  
HETATM    8  O   UNL     1     -12.326  14.543  68.182  1.00  0.00    -0.596 OA 
HETATM    9  H   UNL     1     -13.170  14.123  68.067  1.00  0.00     0.000 HD 
BRANCH   7  10
HETATM   10  C   UNL     1     -12.108  13.348  70.284  1.00  0.00    -0.349 C  
BRANCH  10  11
HETATM   11  O   UNL     1     -12.153  12.286  69.315  1.00  0.00    -0.258 OA 
BRANCH  11  12
HETATM   12  C   UNL     1     -11.371  11.191  69.625  1.00  0.00    -0.294 A  
HETATM   13  C   UNL     1     -11.670  10.342  70.699  1.00  0.00    -0.444 A  
HETATM   14  C   UNL     1     -10.865   9.246  70.986  1.00  0.00    -0.385 A  
HETATM   15  C   UNL     1      -9.763   8.968  70.187  1.00  0.00    -0.213 A  
HETATM   16  C   UNL     1      -9.460   9.773  69.081  1.00  0.00    -0.191 A  
HETATM   17  C   UNL     1     -10.264  10.904  68.782  1.00  0.00    -0.210 A  
HETATM   18  C   UNL     1      -9.903  11.681  67.656  1.00  0.00    -0.195 A  
HETATM   19  C   UNL     1      -8.803  11.347  66.855  1.00  0.00    -0.173 A  
HETATM   20  C   UNL     1      -8.034  10.229  67.161  1.00  0.00    -0.114 A  
HETATM   21  C   UNL     1      -8.359   9.452  68.270  1.00  0.00    -0.119 A  
ENDBRANCH  11  12
ENDBRANCH  10  11
ENDBRANCH   7  10
ENDBRANCH   6   7
ENDBRANCH   4   6
ENDBRANCH   2   4
TORSDOF 6
ENDMDL
MODEL      189
REMARK 921   NORMALIZED FREE ENERGY PREDICTED BY IDOCK:   -3.84 KCAL/MOL
REMARK 922        TOTAL FREE ENERGY PREDICTED BY IDOCK:   -5.86 KCAL/MOL
REMARK 923 INTER-LIGAND FREE ENERGY PREDICTED BY IDOCK:   -5.15 KCAL/MOL
REMARK 924 INTRA-LIGAND FREE ENERGY PREDICTED BY IDOCK:   -0.71 KCAL/MOL
REMARK 927      BINDING AFFINITY PREDICTED BY RF-SCORE:    0.00 PKD
ROOT
HETATM    1  C   UNL     1      -6.656  12.391  67.257  1.00  0.00    -0.136 C  
HETATM    2  C   UNL     1      -6.946  11.101  66.490  1.00  0.00    -0.126 C  
HETATM    3  C   UNL     1      -6.668   9.893  67.388  1.00  0.00    -0.074 C  
ENDROOT
BRANCH   2   4
HETATM    4  N   UNL     1      -8.342  11.138  66.048  1.00  0.00    -0.272 NA 
HETATM    5  H   UNL     1      -8.404  11.422  65.071  1.00  0.00     0.000 HD 
BRANCH   4   6
HETATM    6  C   UNL     1      -9.057   9.874  66.270  1.00  0.00    -0.155 C  
BRANCH   6   7
HETATM    7  C   UNL     1     -10.471  10.168  66.790  1.00  0.00    -0.204 C  
HETATM    8  O   UNL     1     -10.985   9.019  67.481  1.00  0.00    -0.469 OA 
HETATM    9  H   UNL     1     -11.860   9.201  67.803  1.00  0.00     0.000 HD 
BRANCH   7  10
HETATM   10  C   UNL     1     -10.490  11.383  67.725  1.00  0.00    -0.185 C  
BRANCH  10  11
HETATM   11  O   UNL     1     -11.127  12.500  67.081  1.00  0.00    -0.253 OA 
BRANCH  11  12
HETATM   12  C   UNL     1     -11.423  13.556  67.920  1.00  0.00    -0.318 A  
HETATM   13  C   UNL     1     -12.015  13.367  69.176  1.00  0.00    -0.363 A  
HETATM   14  C   UNL     1     -12.301  14.449  69.999  1.00  0.00    -0.391 A  
HETATM   15  C   UNL     1     -11.974  15.736  69.590  1.00  0.00    -0.332 A  
HETATM   16  C   UNL     1     -11.344  15.957  68.358  1.00  0.00    -0.361 A  
HETATM   17  C   UNL     1     -11.057  14.863  67.499  1.00  0.00    -0.319 A  
HETATM   18  C   UNL     1     -10.425  15.151  66.267  1.00  0.00    -0.312 A  
HETATM   19  C   UNL     1     -10.082  16.459  65.905  1.00  0.00    -0.370 A  
HETATM   20  C   UNL     1     -10.364  17.516  66.766  1.00  0.00    -0.314 A  
HETATM   21  C   UNL     1     -10.994  17.264  67.982  1.00  0.00    -0.194 A  
ENDBRANCH  11  12
ENDBRANCH  10  11
ENDBRANCH   7  10
ENDBRANCH   6   7
ENDBRANCH   4   6
ENDBRANCH   2   4
TORSDOF 6
ENDMDL
MODEL      190
REMARK 921   NORMALIZED FREE ENERGY PREDICTED BY IDOCK:   -3.83 KCAL/MOL
REMARK 922        TOTAL FREE ENERGY PREDICTED BY IDOCK:   -5.85 KCAL/MOL
REMARK 923 INTER-LIGAND FREE ENERGY PREDICTED BY IDOCK:   -5.47 KCAL/MOL
REMARK 924 INTRA-LIGAND FREE ENERGY PREDICTED BY IDOCK:   -0.38 KCAL/MOL
REMARK 927      BINDING AFFINITY PREDICTED BY RF-SCORE:    0.00 PKD
ROOT
HETATM    1  C   UNL     1     -11.877  14.274  67.765  1.00  0.00    -0.414 C  
HETATM    2  C   UNL     1     -11.360  13.282  66.723  1.00  0.00    -0.327 C  
HETATM    3  C   UNL     1     -10.235  13.927  65.911  1.00  0.00    -0.326 C  
ENDROOT
BRANCH   2   4
HETATM    4  N   UNL     1     -10.903  12.081  67.424  1.00  0.00    -0.232 NA 
HETATM    5  H   UNL     1     -10.021  12.257  67.905  1.00  0.00     0.000 HD 
BRANCH   4   6
HETATM    6  C   UNL     1     -11.902  11.531  68.351  1.00  0.00    -0.283 C  
BRANCH   6   7
HETATM    7  C   UNL     1     -11.280  11.383  69.747  1.00  0.00    -0.192 C  
HETATM    8  O   UNL     1     -12.317  11.355  70.741  1.00  0.00    -0.365 OA 
HETATM    9  H   UNL     1     -11.932  11.264  71.605  1.00  0.00     0.000 HD 
BRANCH   7  10
HETATM   10  C   UNL     1     -10.426  10.116  69.857  1.00  0.00    -0.275 C  
BRANCH  10  11
HETATM   11  O   UNL     1     -11.261   8.946  69.846  1.00  0.00    -0.189 OA 
BRANCH  11  12
HETATM   12  C   UNL     1     -10.982   8.029  70.839  1.00  0.00    -0.243 A  
HETATM   13  C   UNL     1     -11.178   8.318  72.196  1.00  0.00    -0.413 A  
HETATM   14  C   UNL     1     -10.889   7.375  73.175  1.00  0.00    -0.435 A  
HETATM   15  C   UNL     1     -10.424   6.118  72.809  1.00  0.00    -0.240 A  
HETATM   16  C   UNL     1     -10.256   5.782  71.459  1.00  0.00    -0.255 A  
HETATM   17  C   UNL     1     -10.534   6.739  70.448  1.00  0.00    -0.236 A  
HETATM   18  C   UNL     1     -10.339   6.342  69.104  1.00  0.00    -0.262 A  
HETATM   19  C   UNL     1      -9.900   5.053  68.775  1.00  0.00    -0.236 A  
HETATM   20  C   UNL     1      -9.642   4.128  69.782  1.00  0.00    -0.281 A  
HETATM   21  C   UNL     1      -9.815   4.494  71.114  1.00  0.00    -0.263 A  
ENDBRANCH  11  12
ENDBRANCH  10  11
ENDBRANCH   7  10
ENDBRANCH   6   7
ENDBRANCH   4   6
ENDBRANCH   2   4
TORSDOF 6
ENDMDL
MODEL      191
REMARK 921   NORMALIZED FREE ENERGY PREDICTED BY IDOCK:   -3.83 KCAL/MOL
REMARK 922        TOTAL FREE ENERGY PREDICTED BY IDOCK:   -5.85 KCAL/MOL
REMARK 923 INTER-LIGAND FREE ENERGY PREDICTED BY IDOCK:   -5.22 KCAL/MOL
REMARK 924 INTRA-LIGAND FREE ENERGY PREDICTED BY IDOCK:   -0.63 KCAL/MOL
REMARK 927      BINDING AFFINITY PREDICTED BY RF-SCORE:    0.00 PKD
ROOT
HETATM    1  C   UNL     1      -9.581   4.980  70.049  1.00  0.00    -0.258 C  
HETATM    2  C   UNL     1     -10.742   5.845  69.560  1.00  0.00    -0.343 C  
HETATM    3  C   UNL     1     -11.546   6.356  70.758  1.00  0.00    -0.402 C  
ENDROOT
BRANCH   2   4
HETATM    4  N   UNL     1     -10.189   6.946  68.769  1.00  0.00    -0.167 NA 
HETATM    5  H   UNL     1      -9.970   7.744  69.364  1.00  0.00     0.000 HD 
BRANCH   4   6
HETATM    6  C   UNL     1      -9.022   6.558  67.966  1.00  0.00    -0.116 C  
BRANCH   6   7
HETATM    7  C   UNL     1      -9.416   6.496  66.483  1.00  0.00    -0.154 C  
HETATM    8  O   UNL     1     -10.847   6.498  66.359  1.00  0.00    -0.507 OA 
HETATM    9  H   UNL     1     -11.090   6.460  65.442  1.00  0.00     0.000 HD 
BRANCH   7  10
HETATM   10  C   UNL     1      -8.827   7.668  65.690  1.00  0.00    -0.050 C  
BRANCH  10  11
HETATM   11  O   UNL     1      -8.742   8.840  66.518  1.00  0.00    -0.113 OA 
BRANCH  11  12
HETATM   12  C   UNL     1      -9.566   9.879  66.134  1.00  0.00    -0.218 A  
HETATM   13  C   UNL     1      -9.696  10.270  64.794  1.00  0.00    -0.397 A  
HETATM   14  C   UNL     1     -10.534  11.319  64.436  1.00  0.00    -0.407 A  
HETATM   15  C   UNL     1     -11.277  11.975  65.410  1.00  0.00    -0.374 A  
HETATM   16  C   UNL     1     -11.201  11.583  66.753  1.00  0.00    -0.350 A  
HETATM   17  C   UNL     1     -10.340  10.522  67.137  1.00  0.00    -0.285 A  
HETATM   18  C   UNL     1     -10.303  10.176  68.508  1.00  0.00    -0.203 A  
HETATM   19  C   UNL     1     -11.092  10.841  69.455  1.00  0.00    -0.324 A  
HETATM   20  C   UNL     1     -11.937  11.872  69.055  1.00  0.00    -0.321 A  
HETATM   21  C   UNL     1     -11.986  12.241  67.713  1.00  0.00    -0.229 A  
ENDBRANCH  11  12
ENDBRANCH  10  11
ENDBRANCH   7  10
ENDBRANCH   6   7
ENDBRANCH   4   6
ENDBRANCH   2   4
TORSDOF 6
ENDMDL
MODEL      192
REMARK 921   NORMALIZED FREE ENERGY PREDICTED BY IDOCK:   -3.82 KCAL/MOL
REMARK 922        TOTAL FREE ENERGY PREDICTED BY IDOCK:   -5.83 KCAL/MOL
REMARK 923 INTER-LIGAND FREE ENERGY PREDICTED BY IDOCK:   -5.30 KCAL/MOL
REMARK 924 INTRA-LIGAND FREE ENERGY PREDICTED BY IDOCK:   -0.53 KCAL/MOL
REMARK 927      BINDING AFFINITY PREDICTED BY RF-SCORE:    0.00 PKD
ROOT
HETATM    1  C   UNL     1      -8.255   6.330  65.275  1.00  0.00    -0.138 C  
HETATM    2  C   UNL     1      -7.967   7.311  66.412  1.00  0.00    -0.112 C  
HETATM    3  C   UNL     1      -6.536   7.840  66.287  1.00  0.00    -0.050 C  
ENDROOT
BRANCH   2   4
HETATM    4  N   UNL     1      -8.953   8.391  66.342  1.00  0.00    -0.160 NA 
HETATM    5  H   UNL     1      -9.897   8.029  66.471  1.00  0.00     0.000 HD 
BRANCH   4   6
HETATM    6  C   UNL     1      -8.683   9.488  67.282  1.00  0.00    -0.128 C  
BRANCH   6   7
HETATM    7  C   UNL     1      -8.908  10.834  66.578  1.00  0.00    -0.155 C  
HETATM    8  O   UNL     1      -7.785  11.136  65.734  1.00  0.00    -0.355 OA 
HETATM    9  H   UNL     1      -7.925  11.969  65.299  1.00  0.00     0.000 HD 
BRANCH   7  10
HETATM   10  C   UNL     1     -10.194  10.831  65.745  1.00  0.00    -0.257 C  
BRANCH  10  11
HETATM   11  O   UNL     1     -11.340  11.024  66.591  1.00  0.00    -0.278 OA 
BRANCH  11  12
HETATM   12  C   UNL     1     -11.480  12.304  67.089  1.00  0.00    -0.352 A  
HETATM   13  C   UNL     1     -11.321  13.438  66.282  1.00  0.00    -0.329 A  
HETATM   14  C   UNL     1     -11.470  14.715  66.810  1.00  0.00    -0.371 A  
HETATM   15  C   UNL     1     -11.805  14.876  68.149  1.00  0.00    -0.307 A  
HETATM   16  C   UNL     1     -12.011  13.762  68.974  1.00  0.00    -0.399 A  
HETATM   17  C   UNL     1     -11.850  12.451  68.453  1.00  0.00    -0.361 A  
HETATM   18  C   UNL     1     -12.067  11.368  69.337  1.00  0.00    -0.358 A  
HETATM   19  C   UNL     1     -12.436  11.571  70.672  1.00  0.00    -0.405 A  
HETATM   20  C   UNL     1     -12.597  12.865  71.160  1.00  0.00    -0.373 A  
HETATM   21  C   UNL     1     -12.381  13.951  70.316  1.00  0.00    -0.413 A  
ENDBRANCH  11  12
ENDBRANCH  10  11
ENDBRANCH   7  10
ENDBRANCH   6   7
ENDBRANCH   4   6
ENDBRANCH   2   4
TORSDOF 6
ENDMDL
MODEL      193
REMARK 921   NORMALIZED FREE ENERGY PREDICTED BY IDOCK:   -3.80 KCAL/MOL
REMARK 922        TOTAL FREE ENERGY PREDICTED BY IDOCK:   -5.81 KCAL/MOL
REMARK 923 INTER-LIGAND FREE ENERGY PREDICTED BY IDOCK:   -5.19 KCAL/MOL
REMARK 924 INTRA-LIGAND FREE ENERGY PREDICTED BY IDOCK:   -0.62 KCAL/MOL
REMARK 927      BINDING AFFINITY PREDICTED BY RF-SCORE:    0.00 PKD
ROOT
HETATM    1  C   UNL     1     -12.071  12.807  63.126  1.00  0.00    -0.354 C  
HETATM    2  C   UNL     1     -11.561  12.900  64.565  1.00  0.00    -0.350 C  
HETATM    3  C   UNL     1     -12.745  13.057  65.522  1.00  0.00    -0.291 C  
ENDROOT
BRANCH   2   4
HETATM    4  N   UNL     1     -10.788  11.690  64.853  1.00  0.00    -0.303 NA 
HETATM    5  H   UNL     1      -9.805  11.824  64.615  1.00  0.00     0.000 HD 
BRANCH   4   6
HETATM    6  C   UNL     1     -10.929  11.224  66.240  1.00  0.00    -0.205 C  
BRANCH   6   7
HETATM    7  C   UNL     1      -9.635  11.514  67.013  1.00  0.00    -0.185 C  
HETATM    8  O   UNL     1      -8.768  12.339  66.220  1.00  0.00    -0.391 OA 
HETATM    9  H   UNL     1      -7.967  12.518  66.698  1.00  0.00     0.000 HD 
BRANCH   7  10
HETATM   10  C   UNL     1      -9.916  12.201  68.354  1.00  0.00    -0.206 C  
BRANCH  10  11
HETATM   11  O   UNL     1     -11.094  13.020  68.260  1.00  0.00    -0.238 OA 
BRANCH  11  12
HETATM   12  C   UNL     1     -11.056  14.172  69.019  1.00  0.00    -0.263 A  
HETATM   13  C   UNL     1     -11.342  14.171  70.391  1.00  0.00    -0.048 A  
HETATM   14  C   UNL     1     -11.296  15.346  71.130  1.00  0.00    -0.427 A  
HETATM   15  C   UNL     1     -10.936  16.538  70.513  1.00  0.00    -0.072 A  
HETATM   16  C   UNL     1     -10.605  16.568  69.152  1.00  0.00    -0.319 A  
HETATM   17  C   UNL     1     -10.660  15.378  68.380  1.00  0.00    -0.247 A  
HETATM   18  C   UNL     1     -10.320  15.474  67.010  1.00  0.00    -0.279 A  
HETATM   19  C   UNL     1      -9.931  16.689  66.433  1.00  0.00    -0.316 A  
HETATM   20  C   UNL     1      -9.874  17.841  67.210  1.00  0.00    -0.312 A  
HETATM   21  C   UNL     1     -10.214  17.780  68.559  1.00  0.00    -0.382 A  
ENDBRANCH  11  12
ENDBRANCH  10  11
ENDBRANCH   7  10
ENDBRANCH   6   7
ENDBRANCH   4   6
ENDBRANCH   2   4
TORSDOF 6
ENDMDL
MODEL      194
REMARK 921   NORMALIZED FREE ENERGY PREDICTED BY IDOCK:   -3.78 KCAL/MOL
REMARK 922        TOTAL FREE ENERGY PREDICTED BY IDOCK:   -5.79 KCAL/MOL
REMARK 923 INTER-LIGAND FREE ENERGY PREDICTED BY IDOCK:   -5.29 KCAL/MOL
REMARK 924 INTRA-LIGAND FREE ENERGY PREDICTED BY IDOCK:   -0.50 KCAL/MOL
REMARK 927      BINDING AFFINITY PREDICTED BY RF-SCORE:    0.00 PKD
ROOT
HETATM    1  C   UNL     1      -5.658  12.008  67.944  1.00  0.00    -0.060 C  
HETATM    2  C   UNL     1      -5.700  10.907  66.883  1.00  0.00    -0.067 C  
HETATM    3  C   UNL     1      -5.915   9.550  67.557  1.00  0.00    -0.052 C  
ENDROOT
BRANCH   2   4
HETATM    4  N   UNL     1      -6.778  11.221  65.943  1.00  0.00    -0.362 NA 
HETATM    5  H   UNL     1      -6.430  11.788  65.170  1.00  0.00     0.000 HD 
BRANCH   4   6
HETATM    6  C   UNL     1      -7.480  10.032  65.443  1.00  0.00    -0.139 C  
BRANCH   6   7
HETATM    7  C   UNL     1      -8.996  10.272  65.490  1.00  0.00    -0.173 C  
HETATM    8  O   UNL     1      -9.692   9.070  65.125  1.00  0.00    -0.428 OA 
HETATM    9  H   UNL     1     -10.629   9.219  65.154  1.00  0.00     0.000 HD 
BRANCH   7  10
HETATM   10  C   UNL     1      -9.455  10.733  66.878  1.00  0.00    -0.168 C  
BRANCH  10  11
HETATM   11  O   UNL     1     -10.813  11.202  66.827  1.00  0.00    -0.264 OA 
BRANCH  11  12
HETATM   12  C   UNL     1     -11.296  11.700  68.020  1.00  0.00    -0.296 A  
HETATM   13  C   UNL     1     -11.696  10.862  69.070  1.00  0.00    -0.391 A  
HETATM   14  C   UNL     1     -12.177  11.391  70.261  1.00  0.00    -0.433 A  
HETATM   15  C   UNL     1     -12.242  12.769  70.430  1.00  0.00    -0.371 A  
HETATM   16  C   UNL     1     -11.812  13.635  69.416  1.00  0.00    -0.392 A  
HETATM   17  C   UNL     1     -11.330  13.110  68.188  1.00  0.00    -0.328 A  
HETATM   18  C   UNL     1     -10.916  14.036  67.202  1.00  0.00    -0.303 A  
HETATM   19  C   UNL     1     -10.966  15.418  67.424  1.00  0.00    -0.312 A  
HETATM   20  C   UNL     1     -11.434  15.910  68.638  1.00  0.00    -0.391 A  
HETATM   21  C   UNL     1     -11.857  15.023  69.624  1.00  0.00    -0.358 A  
ENDBRANCH  11  12
ENDBRANCH  10  11
ENDBRANCH   7  10
ENDBRANCH   6   7
ENDBRANCH   4   6
ENDBRANCH   2   4
TORSDOF 6
ENDMDL
MODEL      195
REMARK 921   NORMALIZED FREE ENERGY PREDICTED BY IDOCK:   -3.78 KCAL/MOL
REMARK 922        TOTAL FREE ENERGY PREDICTED BY IDOCK:   -5.78 KCAL/MOL
REMARK 923 INTER-LIGAND FREE ENERGY PREDICTED BY IDOCK:   -5.27 KCAL/MOL
REMARK 924 INTRA-LIGAND FREE ENERGY PREDICTED BY IDOCK:   -0.51 KCAL/MOL
REMARK 927      BINDING AFFINITY PREDICTED BY RF-SCORE:    0.00 PKD
ROOT
HETATM    1  C   UNL     1      -7.539  18.031  65.776  1.00  0.00    -0.070 C  
HETATM    2  C   UNL     1      -6.776  19.286  66.202  1.00  0.00    -0.217 C  
HETATM    3  C   UNL     1      -6.876  20.347  65.104  1.00  0.00    -0.275 C  
ENDROOT
BRANCH   2   4
HETATM    4  N   UNL     1      -7.345  19.758  67.466  1.00  0.00    -0.254 NA 
HETATM    5  H   UNL     1      -6.932  20.650  67.737  1.00  0.00     0.000 HD 
BRANCH   4   6
HETATM    6  C   UNL     1      -8.812  19.846  67.448  1.00  0.00    -0.336 C  
BRANCH   6   7
HETATM    7  C   UNL     1      -9.355  19.655  68.872  1.00  0.00    -0.281 C  
HETATM    8  O   UNL     1     -10.621  20.319  69.003  1.00  0.00    -0.465 OA 
HETATM    9  H   UNL     1     -10.957  20.201  69.883  1.00  0.00     0.000 HD 
BRANCH   7  10
HETATM   10  C   UNL     1      -9.511  18.172  69.225  1.00  0.00     0.118 C  
BRANCH  10  11
HETATM   11  O   UNL     1     -10.625  17.602  68.516  1.00  0.00    -0.346 OA 
BRANCH  11  12
HETATM   12  C   UNL     1     -10.999  16.345  68.946  1.00  0.00    -0.332 A  
HETATM   13  C   UNL     1     -11.067  16.012  70.305  1.00  0.00    -0.380 A  
HETATM   14  C   UNL     1     -11.448  14.738  70.709  1.00  0.00    -0.273 A  
HETATM   15  C   UNL     1     -11.793  13.785  69.759  1.00  0.00    -0.394 A  
HETATM   16  C   UNL     1     -11.776  14.097  68.393  1.00  0.00    -0.380 A  
HETATM   17  C   UNL     1     -11.376  15.390  67.963  1.00  0.00    -0.345 A  
HETATM   18  C   UNL     1     -11.374  15.643  66.572  1.00  0.00     0.062 A  
HETATM   19  C   UNL     1     -11.761  14.665  65.647  1.00  0.00    -0.304 A  
HETATM   20  C   UNL     1     -12.158  13.407  66.090  1.00  0.00    -0.481 A  
HETATM   21  C   UNL     1     -12.160  13.127  67.454  1.00  0.00    -0.316 A  
ENDBRANCH  11  12
ENDBRANCH  10  11
ENDBRANCH   7  10
ENDBRANCH   6   7
ENDBRANCH   4   6
ENDBRANCH   2   4
TORSDOF 6
ENDMDL
MODEL      196
REMARK 921   NORMALIZED FREE ENERGY PREDICTED BY IDOCK:   -3.78 KCAL/MOL
REMARK 922        TOTAL FREE ENERGY PREDICTED BY IDOCK:   -5.78 KCAL/MOL
REMARK 923 INTER-LIGAND FREE ENERGY PREDICTED BY IDOCK:   -5.22 KCAL/MOL
REMARK 924 INTRA-LIGAND FREE ENERGY PREDICTED BY IDOCK:   -0.56 KCAL/MOL
REMARK 927      BINDING AFFINITY PREDICTED BY RF-SCORE:    0.00 PKD
ROOT
HETATM    1  C   UNL     1      -8.193   4.696  64.331  1.00  0.00    -0.112 C  
HETATM    2  C   UNL     1      -8.082   5.612  65.550  1.00  0.00    -0.123 C  
HETATM    3  C   UNL     1      -6.724   6.317  65.543  1.00  0.00    -0.048 C  
ENDROOT
BRANCH   2   4
HETATM    4  N   UNL     1      -9.190   6.568  65.503  1.00  0.00    -0.367 NA 
HETATM    5  H   UNL     1      -9.973   6.190  64.970  1.00  0.00     0.000 HD 
BRANCH   4   6
HETATM    6  C   UNL     1      -9.631   7.015  66.832  1.00  0.00    -0.168 C  
BRANCH   6   7
HETATM    7  C   UNL     1      -9.440   8.533  66.953  1.00  0.00    -0.183 C  
HETATM    8  O   UNL     1      -8.296   8.816  67.774  1.00  0.00    -0.117 OA 
HETATM    9  H   UNL     1      -8.178   9.755  67.849  1.00  0.00     0.000 HD 
BRANCH   7  10
HETATM   10  C   UNL     1      -9.267   9.195  65.582  1.00  0.00    -0.234 C  
BRANCH  10  11
HETATM   11  O   UNL     1      -9.053  10.609  65.731  1.00  0.00    -0.172 OA 
BRANCH  11  12
HETATM   12  C   UNL     1     -10.078  11.401  65.254  1.00  0.00    -0.268 A  
HETATM   13  C   UNL     1     -10.517  11.331  63.925  1.00  0.00    -0.452 A  
HETATM   14  C   UNL     1     -11.552  12.139  63.472  1.00  0.00    -0.562 A  
HETATM   15  C   UNL     1     -12.182  13.013  64.350  1.00  0.00    -0.471 A  
HETATM   16  C   UNL     1     -11.795  13.079  65.695  1.00  0.00    -0.445 A  
HETATM   17  C   UNL     1     -10.730  12.269  66.170  1.00  0.00    -0.296 A  
HETATM   18  C   UNL     1     -10.383  12.385  67.536  1.00  0.00    -0.223 A  
HETATM   19  C   UNL     1     -11.064  13.254  68.397  1.00  0.00    -0.299 A  
HETATM   20  C   UNL     1     -12.111  14.033  67.912  1.00  0.00    -0.314 A  
HETATM   21  C   UNL     1     -12.469  13.948  66.570  1.00  0.00    -0.364 A  
ENDBRANCH  11  12
ENDBRANCH  10  11
ENDBRANCH   7  10
ENDBRANCH   6   7
ENDBRANCH   4   6
ENDBRANCH   2   4
TORSDOF 6
ENDMDL
MODEL      197
REMARK 921   NORMALIZED FREE ENERGY PREDICTED BY IDOCK:   -3.77 KCAL/MOL
REMARK 922        TOTAL FREE ENERGY PREDICTED BY IDOCK:   -5.77 KCAL/MOL
REMARK 923 INTER-LIGAND FREE ENERGY PREDICTED BY IDOCK:   -5.01 KCAL/MOL
REMARK 924 INTRA-LIGAND FREE ENERGY PREDICTED BY IDOCK:   -0.76 KCAL/MOL
REMARK 927      BINDING AFFINITY PREDICTED BY RF-SCORE:    0.00 PKD
ROOT
HETATM    1  C   UNL     1     -10.669  10.610  68.655  1.00  0.00    -0.239 C  
HETATM    2  C   UNL     1     -11.259  10.838  70.047  1.00  0.00    -0.291 C  
HETATM    3  C   UNL     1     -11.969  12.193  70.091  1.00  0.00    -0.394 C  
ENDROOT
BRANCH   2   4
HETATM    4  N   UNL     1     -12.177   9.735  70.339  1.00  0.00    -0.470 NA 
HETATM    5  H   UNL     1     -11.661   8.893  70.593  1.00  0.00     0.000 HD 
BRANCH   4   6
HETATM    6  C   UNL     1     -13.176  10.065  71.365  1.00  0.00    -0.395 C  
BRANCH   6   7
HETATM    7  C   UNL     1     -12.834   9.330  72.669  1.00  0.00    -0.175 C  
HETATM    8  O   UNL     1     -14.040   8.873  73.301  1.00  0.00    -1.211 OA 
HETATM    9  H   UNL     1     -13.829   8.419  74.108  1.00  0.00     0.000 HD 
BRANCH   7  10
HETATM   10  C   UNL     1     -11.899   8.142  72.423  1.00  0.00    -0.388 C  
BRANCH  10  11
HETATM   11  O   UNL     1     -10.526   8.545  72.571  1.00  0.00    -0.317 OA 
BRANCH  11  12
HETATM   12  C   UNL     1      -9.634   7.504  72.730  1.00  0.00    -0.178 A  
HETATM   13  C   UNL     1      -9.977   6.324  73.403  1.00  0.00    -0.194 A  
HETATM   14  C   UNL     1      -9.058   5.292  73.547  1.00  0.00    -0.128 A  
HETATM   15  C   UNL     1      -7.788   5.414  72.996  1.00  0.00    -0.098 A  
HETATM   16  C   UNL     1      -7.426   6.564  72.281  1.00  0.00    -0.095 A  
HETATM   17  C   UNL     1      -8.349   7.633  72.137  1.00  0.00    -0.134 A  
HETATM   18  C   UNL     1      -7.922   8.768  71.410  1.00  0.00    -0.175 A  
HETATM   19  C   UNL     1      -6.644   8.839  70.841  1.00  0.00    -0.055 A  
HETATM   20  C   UNL     1      -5.758   7.776  70.987  1.00  0.00    -0.034 A  
HETATM   21  C   UNL     1      -6.147   6.649  71.706  1.00  0.00    -0.038 A  
ENDBRANCH  11  12
ENDBRANCH  10  11
ENDBRANCH   7  10
ENDBRANCH   6   7
ENDBRANCH   4   6
ENDBRANCH   2   4
TORSDOF 6
ENDMDL
MODEL      198
REMARK 921   NORMALIZED FREE ENERGY PREDICTED BY IDOCK:   -3.77 KCAL/MOL
REMARK 922        TOTAL FREE ENERGY PREDICTED BY IDOCK:   -5.77 KCAL/MOL
REMARK 923 INTER-LIGAND FREE ENERGY PREDICTED BY IDOCK:   -5.39 KCAL/MOL
REMARK 924 INTRA-LIGAND FREE ENERGY PREDICTED BY IDOCK:   -0.38 KCAL/MOL
REMARK 927      BINDING AFFINITY PREDICTED BY RF-SCORE:    0.00 PKD
ROOT
HETATM    1  C   UNL     1      -8.200   5.838  71.131  1.00  0.00    -0.122 C  
HETATM    2  C   UNL     1      -9.537   5.371  70.557  1.00  0.00    -0.175 C  
HETATM    3  C   UNL     1      -9.384   3.965  69.971  1.00  0.00    -0.247 C  
ENDROOT
BRANCH   2   4
HETATM    4  N   UNL     1     -10.532   5.405  71.631  1.00  0.00    -0.225 NA 
HETATM    5  H   UNL     1     -10.194   4.905  72.453  1.00  0.00     0.000 HD 
BRANCH   4   6
HETATM    6  C   UNL     1     -10.957   6.765  71.988  1.00  0.00    -0.238 C  
BRANCH   6   7
HETATM    7  C   UNL     1     -11.781   7.364  70.838  1.00  0.00    -0.296 C  
HETATM    8  O   UNL     1     -13.075   6.743  70.792  1.00  0.00    -0.375 OA 
HETATM    9  H   UNL     1     -13.584   7.113  70.081  1.00  0.00     0.000 HD 
BRANCH   7  10
HETATM   10  C   UNL     1     -11.941   8.881  70.985  1.00  0.00    -0.261 C  
BRANCH  10  11
HETATM   11  O   UNL     1     -11.564   9.545  69.766  1.00  0.00    -0.092 OA 
BRANCH  11  12
HETATM   12  C   UNL     1     -11.712  10.917  69.788  1.00  0.00    -0.338 A  
HETATM   13  C   UNL     1     -12.177  11.598  70.921  1.00  0.00    -0.401 A  
HETATM   14  C   UNL     1     -12.316  12.981  70.914  1.00  0.00    -0.376 A  
HETATM   15  C   UNL     1     -11.965  13.706  69.782  1.00  0.00    -0.404 A  
HETATM   16  C   UNL     1     -11.458  13.060  68.647  1.00  0.00    -0.344 A  
HETATM   17  C   UNL     1     -11.323  11.647  68.633  1.00  0.00    -0.326 A  
HETATM   18  C   UNL     1     -10.811  11.053  67.455  1.00  0.00    -0.314 A  
HETATM   19  C   UNL     1     -10.438  11.823  66.347  1.00  0.00    -0.271 A  
HETATM   20  C   UNL     1     -10.570  13.207  66.385  1.00  0.00    -0.293 A  
HETATM   21  C   UNL     1     -11.081  13.819  67.527  1.00  0.00    -0.295 A  
ENDBRANCH  11  12
ENDBRANCH  10  11
ENDBRANCH   7  10
ENDBRANCH   6   7
ENDBRANCH   4   6
ENDBRANCH   2   4
TORSDOF 6
ENDMDL
MODEL      199
REMARK 921   NORMALIZED FREE ENERGY PREDICTED BY IDOCK:   -3.77 KCAL/MOL
REMARK 922        TOTAL FREE ENERGY PREDICTED BY IDOCK:   -5.76 KCAL/MOL
REMARK 923 INTER-LIGAND FREE ENERGY PREDICTED BY IDOCK:   -4.98 KCAL/MOL
REMARK 924 INTRA-LIGAND FREE ENERGY PREDICTED BY IDOCK:   -0.78 KCAL/MOL
REMARK 927      BINDING AFFINITY PREDICTED BY RF-SCORE:    0.00 PKD
ROOT
HETATM    1  C   UNL     1     -11.070  11.432  66.942  1.00  0.00    -0.356 C  
HETATM    2  C   UNL     1     -10.221  11.303  65.677  1.00  0.00    -0.253 C  
HETATM    3  C   UNL     1     -11.050  11.706  64.456  1.00  0.00    -0.365 C  
ENDROOT
BRANCH   2   4
HETATM    4  N   UNL     1      -9.038  12.151  65.834  1.00  0.00    -0.429 NA 
HETATM    5  H   UNL     1      -9.306  13.102  66.089  1.00  0.00     0.000 HD 
BRANCH   4   6
HETATM    6  C   UNL     1      -8.056  11.613  66.786  1.00  0.00    -0.150 C  
BRANCH   6   7
HETATM    7  C   UNL     1      -7.548  10.253  66.285  1.00  0.00    -0.117 C  
HETATM    8  O   UNL     1      -6.233  10.400  65.726  1.00  0.00    -0.102 OA 
HETATM    9  H   UNL     1      -5.919   9.559  65.416  1.00  0.00     0.000 HD 
BRANCH   7  10
HETATM   10  C   UNL     1      -7.517   9.210  67.408  1.00  0.00    -0.084 C  
BRANCH  10  11
HETATM   11  O   UNL     1      -8.591   9.441  68.335  1.00  0.00    -0.122 OA 
BRANCH  11  12
HETATM   12  C   UNL     1      -9.477   8.389  68.464  1.00  0.00    -0.146 A  
HETATM   13  C   UNL     1      -9.713   7.483  67.423  1.00  0.00    -0.204 A  
HETATM   14  C   UNL     1     -10.610   6.433  67.581  1.00  0.00    -0.340 A  
HETATM   15  C   UNL     1     -11.264   6.258  68.794  1.00  0.00    -0.357 A  
HETATM   16  C   UNL     1     -11.020   7.123  69.870  1.00  0.00    -0.278 A  
HETATM   17  C   UNL     1     -10.117   8.208  69.720  1.00  0.00    -0.197 A  
HETATM   18  C   UNL     1      -9.917   9.049  70.840  1.00  0.00    -0.326 A  
HETATM   19  C   UNL     1     -10.571   8.820  72.056  1.00  0.00    -0.414 A  
HETATM   20  C   UNL     1     -11.446   7.745  72.184  1.00  0.00    -0.361 A  
HETATM   21  C   UNL     1     -11.670   6.907  71.096  1.00  0.00    -0.381 A  
ENDBRANCH  11  12
ENDBRANCH  10  11
ENDBRANCH   7  10
ENDBRANCH   6   7
ENDBRANCH   4   6
ENDBRANCH   2   4
TORSDOF 6
ENDMDL
MODEL      200
REMARK 921   NORMALIZED FREE ENERGY PREDICTED BY IDOCK:   -3.76 KCAL/MOL
REMARK 922        TOTAL FREE ENERGY PREDICTED BY IDOCK:   -5.75 KCAL/MOL
REMARK 923 INTER-LIGAND FREE ENERGY PREDICTED BY IDOCK:   -5.32 KCAL/MOL
REMARK 924 INTRA-LIGAND FREE ENERGY PREDICTED BY IDOCK:   -0.43 KCAL/MOL
REMARK 927      BINDING AFFINITY PREDICTED BY RF-SCORE:    0.00 PKD
ROOT
HETATM    1  C   UNL     1      -5.322  17.644  66.492  1.00  0.00    -0.216 C  
HETATM    2  C   UNL     1      -6.434  18.388  67.231  1.00  0.00    -0.186 C  
HETATM    3  C   UNL     1      -7.371  19.053  66.220  1.00  0.00    -0.281 C  
ENDROOT
BRANCH   2   4
HETATM    4  N   UNL     1      -7.144  17.425  68.076  1.00  0.00    -0.180 NA 
HETATM    5  H   UNL     1      -7.359  17.832  68.986  1.00  0.00     0.000 HD 
BRANCH   4   6
HETATM    6  C   UNL     1      -8.356  16.882  67.449  1.00  0.00    -0.186 C  
BRANCH   6   7
HETATM    7  C   UNL     1      -9.550  17.063  68.396  1.00  0.00    -0.277 C  
HETATM    8  O   UNL     1      -9.864  18.459  68.521  1.00  0.00    -0.340 OA 
HETATM    9  H   UNL     1     -10.603  18.572  69.108  1.00  0.00     0.000 HD 
BRANCH   7  10
HETATM   10  C   UNL     1     -10.785  16.299  67.906  1.00  0.00    -0.329 C  
BRANCH  10  11
HETATM   11  O   UNL     1     -10.391  15.099  67.219  1.00  0.00    -0.254 OA 
BRANCH  11  12
HETATM   12  C   UNL     1     -10.773  13.927  67.841  1.00  0.00    -0.240 A  
HETATM   13  C   UNL     1     -11.424  13.920  69.082  1.00  0.00    -0.345 A  
HETATM   14  C   UNL     1     -11.798  12.725  69.684  1.00  0.00    -0.384 A  
HETATM   15  C   UNL     1     -11.550  11.519  69.041  1.00  0.00    -0.383 A  
HETATM   16  C   UNL     1     -10.938  11.492  67.781  1.00  0.00    -0.291 A  
HETATM   17  C   UNL     1     -10.538  12.703  67.158  1.00  0.00    -0.252 A  
HETATM   18  C   UNL     1      -9.921  12.611  65.888  1.00  0.00    -0.274 A  
HETATM   19  C   UNL     1      -9.718  11.377  65.258  1.00  0.00    -0.276 A  
HETATM   20  C   UNL     1     -10.126  10.202  65.883  1.00  0.00    -0.325 A  
HETATM   21  C   UNL     1     -10.728  10.262  67.137  1.00  0.00    -0.303 A  
ENDBRANCH  11  12
ENDBRANCH  10  11
ENDBRANCH   7  10
ENDBRANCH   6   7
ENDBRANCH   4   6
ENDBRANCH   2   4
TORSDOF 6
ENDMDL
MODEL      201
REMARK 921   NORMALIZED FREE ENERGY PREDICTED BY IDOCK:   -3.75 KCAL/MOL
REMARK 922        TOTAL FREE ENERGY PREDICTED BY IDOCK:   -5.75 KCAL/MOL
REMARK 923 INTER-LIGAND FREE ENERGY PREDICTED BY IDOCK:   -5.06 KCAL/MOL
REMARK 924 INTRA-LIGAND FREE ENERGY PREDICTED BY IDOCK:   -0.69 KCAL/MOL
REMARK 927      BINDING AFFINITY PREDICTED BY RF-SCORE:    0.00 PKD
ROOT
HETATM    1  C   UNL     1     -11.394  16.175  64.649  1.00  0.00    -0.287 C  
HETATM    2  C   UNL     1     -10.338  15.222  65.208  1.00  0.00    -0.401 C  
HETATM    3  C   UNL     1      -9.339  16.003  66.065  1.00  0.00    -0.380 C  
ENDROOT
BRANCH   2   4
HETATM    4  N   UNL     1     -11.023  14.186  65.983  1.00  0.00    -0.301 NA 
HETATM    5  H   UNL     1     -10.959  14.380  66.982  1.00  0.00     0.000 HD 
BRANCH   4   6
HETATM    6  C   UNL     1     -12.421  13.984  65.579  1.00  0.00    -0.509 C  
BRANCH   6   7
HETATM    7  C   UNL     1     -12.551  12.654  64.823  1.00  0.00    -0.454 C  
HETATM    8  O   UNL     1     -12.640  12.903  63.412  1.00  0.00    -0.709 OA 
HETATM    9  H   UNL     1     -12.721  12.080  62.944  1.00  0.00     0.000 HD 
BRANCH   7  10
HETATM   10  C   UNL     1     -11.368  11.722  65.108  1.00  0.00    -0.218 C  
BRANCH  10  11
HETATM   11  O   UNL     1     -11.242  11.490  66.522  1.00  0.00    -0.310 OA 
BRANCH  11  12
HETATM   12  C   UNL     1     -10.368  10.478  66.864  1.00  0.00    -0.239 A  
HETATM   13  C   UNL     1     -10.752   9.130  66.861  1.00  0.00    -0.149 A  
HETATM   14  C   UNL     1      -9.851   8.131  67.209  1.00  0.00    -0.259 A  
HETATM   15  C   UNL     1      -8.543   8.464  67.541  1.00  0.00    -0.129 A  
HETATM   16  C   UNL     1      -8.116   9.798  67.515  1.00  0.00    -0.114 A  
HETATM   17  C   UNL     1      -9.028  10.831  67.174  1.00  0.00    -0.145 A  
HETATM   18  C   UNL     1      -8.538  12.158  67.172  1.00  0.00    -0.185 A  
HETATM   19  C   UNL     1      -7.203  12.449  67.481  1.00  0.00    -0.145 A  
HETATM   20  C   UNL     1      -6.324  11.420  67.803  1.00  0.00    -0.057 A  
HETATM   21  C   UNL     1      -6.781  10.105  67.824  1.00  0.00    -0.071 A  
ENDBRANCH  11  12
ENDBRANCH  10  11
ENDBRANCH   7  10
ENDBRANCH   6   7
ENDBRANCH   4   6
ENDBRANCH   2   4
TORSDOF 6
ENDMDL
MODEL      202
REMARK 921   NORMALIZED FREE ENERGY PREDICTED BY IDOCK:   -3.75 KCAL/MOL
REMARK 922        TOTAL FREE ENERGY PREDICTED BY IDOCK:   -5.75 KCAL/MOL
REMARK 923 INTER-LIGAND FREE ENERGY PREDICTED BY IDOCK:   -5.40 KCAL/MOL
REMARK 924 INTRA-LIGAND FREE ENERGY PREDICTED BY IDOCK:   -0.34 KCAL/MOL
REMARK 927      BINDING AFFINITY PREDICTED BY RF-SCORE:    0.00 PKD
ROOT
HETATM    1  C   UNL     1     -10.707  19.440  65.811  1.00  0.00    -0.458 C  
HETATM    2  C   UNL     1      -9.814  18.640  66.760  1.00  0.00    -0.341 C  
HETATM    3  C   UNL     1     -10.030  19.118  68.198  1.00  0.00    -0.468 C  
ENDROOT
BRANCH   2   4
HETATM    4  N   UNL     1     -10.142  17.221  66.605  1.00  0.00    -0.291 NA 
HETATM    5  H   UNL     1     -10.746  16.905  67.363  1.00  0.00     0.000 HD 
BRANCH   4   6
HETATM    6  C   UNL     1     -10.731  16.898  65.299  1.00  0.00    -0.134 C  
BRANCH   6   7
HETATM    7  C   UNL     1     -11.241  15.449  65.309  1.00  0.00    -0.310 C  
HETATM    8  O   UNL     1     -11.897  15.155  64.066  1.00  0.00    -0.809 OA 
HETATM    9  H   UNL     1     -12.213  14.260  64.073  1.00  0.00     0.000 HD 
BRANCH   7  10
HETATM   10  C   UNL     1     -10.104  14.449  65.542  1.00  0.00    -0.356 C  
BRANCH  10  11
HETATM   11  O   UNL     1     -10.575  13.103  65.359  1.00  0.00    -0.286 OA 
BRANCH  11  12
HETATM   12  C   UNL     1      -9.819  12.137  65.992  1.00  0.00    -0.243 A  
HETATM   13  C   UNL     1      -9.561  12.175  67.369  1.00  0.00    -0.177 A  
HETATM   14  C   UNL     1      -8.797  11.188  67.979  1.00  0.00    -0.142 A  
HETATM   15  C   UNL     1      -8.301  10.132  67.225  1.00  0.00    -0.121 A  
HETATM   16  C   UNL     1      -8.574  10.041  65.853  1.00  0.00    -0.150 A  
HETATM   17  C   UNL     1      -9.342  11.049  65.212  1.00  0.00    -0.245 A  
HETATM   18  C   UNL     1      -9.578  10.904  63.825  1.00  0.00    -0.331 A  
HETATM   19  C   UNL     1      -9.087   9.807  63.106  1.00  0.00    -0.270 A  
HETATM   20  C   UNL     1      -8.344   8.826  63.756  1.00  0.00    -0.140 A  
HETATM   21  C   UNL     1      -8.087   8.947  65.119  1.00  0.00    -0.133 A  
ENDBRANCH  11  12
ENDBRANCH  10  11
ENDBRANCH   7  10
ENDBRANCH   6   7
ENDBRANCH   4   6
ENDBRANCH   2   4
TORSDOF 6
ENDMDL
MODEL      203
REMARK 921   NORMALIZED FREE ENERGY PREDICTED BY IDOCK:   -3.75 KCAL/MOL
REMARK 922        TOTAL FREE ENERGY PREDICTED BY IDOCK:   -5.74 KCAL/MOL
REMARK 923 INTER-LIGAND FREE ENERGY PREDICTED BY IDOCK:   -5.33 KCAL/MOL
REMARK 924 INTRA-LIGAND FREE ENERGY PREDICTED BY IDOCK:   -0.42 KCAL/MOL
REMARK 927      BINDING AFFINITY PREDICTED BY RF-SCORE:    0.00 PKD
ROOT
HETATM    1  C   UNL     1      -7.156  12.473  68.986  1.00  0.00    -0.037 C  
HETATM    2  C   UNL     1      -7.384  12.940  67.548  1.00  0.00    -0.154 C  
HETATM    3  C   UNL     1      -7.374  14.470  67.494  1.00  0.00    -0.212 C  
ENDROOT
BRANCH   2   4
HETATM    4  N   UNL     1      -6.333  12.361  66.709  1.00  0.00    -0.484 NA 
HETATM    5  H   UNL     1      -5.419  12.467  67.149  1.00  0.00     0.000 HD 
BRANCH   4   6
HETATM    6  C   UNL     1      -6.580  10.958  66.350  1.00  0.00    -0.134 C  
BRANCH   6   7
HETATM    7  C   UNL     1      -8.034  10.795  65.885  1.00  0.00    -0.140 C  
HETATM    8  O   UNL     1      -8.074  10.634  64.458  1.00  0.00    -0.326 OA 
HETATM    9  H   UNL     1      -8.973  10.534  64.170  1.00  0.00     0.000 HD 
BRANCH   7  10
HETATM   10  C   UNL     1      -8.715   9.599  66.558  1.00  0.00    -0.134 C  
BRANCH  10  11
HETATM   11  O   UNL     1     -10.141   9.672  66.387  1.00  0.00    -0.240 OA 
BRANCH  11  12
HETATM   12  C   UNL     1     -10.746  10.724  67.044  1.00  0.00    -0.265 A  
HETATM   13  C   UNL     1     -11.092  11.913  66.388  1.00  0.00    -0.359 A  
HETATM   14  C   UNL     1     -11.702  12.956  67.074  1.00  0.00    -0.447 A  
HETATM   15  C   UNL     1     -11.999  12.815  68.424  1.00  0.00    -0.275 A  
HETATM   16  C   UNL     1     -11.705  11.625  69.102  1.00  0.00    -0.390 A  
HETATM   17  C   UNL     1     -11.070  10.555  68.418  1.00  0.00    -0.335 A  
HETATM   18  C   UNL     1     -10.793   9.381  69.157  1.00  0.00    -0.176 A  
HETATM   19  C   UNL     1     -11.140   9.266  70.509  1.00  0.00    -0.317 A  
HETATM   20  C   UNL     1     -11.769  10.324  71.158  1.00  0.00    -0.430 A  
HETATM   21  C   UNL     1     -12.045  11.495  70.458  1.00  0.00    -0.472 A  
ENDBRANCH  11  12
ENDBRANCH  10  11
ENDBRANCH   7  10
ENDBRANCH   6   7
ENDBRANCH   4   6
ENDBRANCH   2   4
TORSDOF 6
ENDMDL
MODEL      204
REMARK 921   NORMALIZED FREE ENERGY PREDICTED BY IDOCK:   -3.75 KCAL/MOL
REMARK 922        TOTAL FREE ENERGY PREDICTED BY IDOCK:   -5.74 KCAL/MOL
REMARK 923 INTER-LIGAND FREE ENERGY PREDICTED BY IDOCK:   -5.29 KCAL/MOL
REMARK 924 INTRA-LIGAND FREE ENERGY PREDICTED BY IDOCK:   -0.45 KCAL/MOL
REMARK 927      BINDING AFFINITY PREDICTED BY RF-SCORE:    0.00 PKD
ROOT
HETATM    1  C   UNL     1     -10.471  19.024  65.815  1.00  0.00    -0.375 C  
HETATM    2  C   UNL     1      -9.626  18.675  67.041  1.00  0.00    -0.304 C  
HETATM    3  C   UNL     1     -10.014  19.582  68.210  1.00  0.00    -0.533 C  
ENDROOT
BRANCH   2   4
HETATM    4  N   UNL     1      -9.843  17.261  67.356  1.00  0.00    -0.265 NA 
HETATM    5  H   UNL     1     -10.436  17.162  68.180  1.00  0.00     0.000 HD 
BRANCH   4   6
HETATM    6  C   UNL     1     -10.381  16.489  66.229  1.00  0.00    -0.320 C  
BRANCH   6   7
HETATM    7  C   UNL     1     -10.910  15.140  66.737  1.00  0.00    -0.322 C  
HETATM    8  O   UNL     1     -12.001  14.702  65.911  1.00  0.00    -0.332 OA 
HETATM    9  H   UNL     1     -12.328  13.868  66.226  1.00  0.00     0.000 HD 
BRANCH   7  10
HETATM   10  C   UNL     1      -9.814  14.069  66.752  1.00  0.00    -0.273 C  
BRANCH  10  11
HETATM   11  O   UNL     1      -9.530  13.661  68.101  1.00  0.00    -0.205 OA 
BRANCH  11  12
HETATM   12  C   UNL     1      -9.781  12.330  68.365  1.00  0.00    -0.191 A  
HETATM   13  C   UNL     1      -8.990  11.303  67.832  1.00  0.00    -0.146 A  
HETATM   14  C   UNL     1      -9.266   9.970  68.116  1.00  0.00    -0.130 A  
HETATM   15  C   UNL     1     -10.321   9.646  68.959  1.00  0.00    -0.218 A  
HETATM   16  C   UNL     1     -11.106  10.650  69.542  1.00  0.00    -0.328 A  
HETATM   17  C   UNL     1     -10.846  12.015  69.251  1.00  0.00    -0.130 A  
HETATM   18  C   UNL     1     -11.677  12.982  69.865  1.00  0.00    -0.326 A  
HETATM   19  C   UNL     1     -12.710  12.616  70.736  1.00  0.00    -0.213 A  
HETATM   20  C   UNL     1     -12.942  11.272  71.014  1.00  0.00    -0.304 A  
HETATM   21  C   UNL     1     -12.147  10.298  70.416  1.00  0.00    -0.373 A  
ENDBRANCH  11  12
ENDBRANCH  10  11
ENDBRANCH   7  10
ENDBRANCH   6   7
ENDBRANCH   4   6
ENDBRANCH   2   4
TORSDOF 6
ENDMDL
MODEL      205
REMARK 921   NORMALIZED FREE ENERGY PREDICTED BY IDOCK:   -3.74 KCAL/MOL
REMARK 922        TOTAL FREE ENERGY PREDICTED BY IDOCK:   -5.73 KCAL/MOL
REMARK 923 INTER-LIGAND FREE ENERGY PREDICTED BY IDOCK:   -5.02 KCAL/MOL
REMARK 924 INTRA-LIGAND FREE ENERGY PREDICTED BY IDOCK:   -0.71 KCAL/MOL
REMARK 927      BINDING AFFINITY PREDICTED BY RF-SCORE:    0.00 PKD
ROOT
HETATM    1  C   UNL     1     -12.466  14.834  64.379  1.00  0.00    -0.274 C  
HETATM    2  C   UNL     1     -10.954  14.832  64.608  1.00  0.00    -0.316 C  
HETATM    3  C   UNL     1     -10.650  15.244  66.050  1.00  0.00    -0.327 C  
ENDROOT
BRANCH   2   4
HETATM    4  N   UNL     1     -10.450  13.490  64.310  1.00  0.00    -0.592 NA 
HETATM    5  H   UNL     1      -9.609  13.291  64.852  1.00  0.00     0.000 HD 
BRANCH   4   6
HETATM    6  C   UNL     1     -11.454  12.435  64.498  1.00  0.00    -0.337 C  
BRANCH   6   7
HETATM    7  C   UNL     1     -10.893  11.096  63.998  1.00  0.00    -0.281 C  
HETATM    8  O   UNL     1     -10.202  11.292  62.754  1.00  0.00    -0.596 OA 
HETATM    9  H   UNL     1      -9.855  10.463  62.445  1.00  0.00     0.000 HD 
BRANCH   7  10
HETATM   10  C   UNL     1      -9.944  10.461  65.021  1.00  0.00    -0.330 C  
BRANCH  10  11
HETATM   11  O   UNL     1      -9.578  11.420  66.028  1.00  0.00    -0.207 OA 
BRANCH  11  12
HETATM   12  C   UNL     1      -9.755  10.988  67.327  1.00  0.00    -0.166 A  
HETATM   13  C   UNL     1     -11.025  10.888  67.912  1.00  0.00    -0.325 A  
HETATM   14  C   UNL     1     -11.173  10.449  69.222  1.00  0.00    -0.304 A  
HETATM   15  C   UNL     1     -10.055  10.078  69.958  1.00  0.00    -0.289 A  
HETATM   16  C   UNL     1      -8.775  10.127  69.390  1.00  0.00    -0.186 A  
HETATM   17  C   UNL     1      -8.605  10.586  68.058  1.00  0.00    -0.121 A  
HETATM   18  C   UNL     1      -7.288  10.618  67.543  1.00  0.00    -0.091 A  
HETATM   19  C   UNL     1      -6.190  10.204  68.307  1.00  0.00    -0.049 A  
HETATM   20  C   UNL     1      -6.380   9.749  69.608  1.00  0.00    -0.047 A  
HETATM   21  C   UNL     1      -7.665   9.716  70.145  1.00  0.00    -0.179 A  
ENDBRANCH  11  12
ENDBRANCH  10  11
ENDBRANCH   7  10
ENDBRANCH   6   7
ENDBRANCH   4   6
ENDBRANCH   2   4
TORSDOF 6
ENDMDL
MODEL      206
REMARK 921   NORMALIZED FREE ENERGY PREDICTED BY IDOCK:   -3.74 KCAL/MOL
REMARK 922        TOTAL FREE ENERGY PREDICTED BY IDOCK:   -5.73 KCAL/MOL
REMARK 923 INTER-LIGAND FREE ENERGY PREDICTED BY IDOCK:   -4.83 KCAL/MOL
REMARK 924 INTRA-LIGAND FREE ENERGY PREDICTED BY IDOCK:   -0.89 KCAL/MOL
REMARK 927      BINDING AFFINITY PREDICTED BY RF-SCORE:    0.00 PKD
ROOT
HETATM    1  C   UNL     1     -12.900  12.840  70.996  1.00  0.00    -0.262 C  
HETATM    2  C   UNL     1     -12.172  11.502  71.132  1.00  0.00    -0.182 C  
HETATM    3  C   UNL     1     -13.163  10.353  70.928  1.00  0.00    -0.321 C  
ENDROOT
BRANCH   2   4
HETATM    4  N   UNL     1     -11.091  11.467  70.145  1.00  0.00    -0.431 NA 
HETATM    5  H   UNL     1     -10.871  10.507  69.883  1.00  0.00     0.000 HD 
BRANCH   4   6
HETATM    6  C   UNL     1     -11.364  12.283  68.954  1.00  0.00    -0.287 C  
BRANCH   6   7
HETATM    7  C   UNL     1     -10.743  11.613  67.720  1.00  0.00    -0.204 C  
HETATM    8  O   UNL     1      -9.340  11.916  67.655  1.00  0.00    -0.175 OA 
HETATM    9  H   UNL     1      -8.956  11.502  66.892  1.00  0.00     0.000 HD 
BRANCH   7  10
HETATM   10  C   UNL     1     -10.942  10.094  67.738  1.00  0.00    -0.277 C  
BRANCH  10  11
HETATM   11  O   UNL     1      -9.815   9.448  68.354  1.00  0.00    -0.153 OA 
BRANCH  11  12
HETATM   12  C   UNL     1     -10.045   8.148  68.758  1.00  0.00    -0.199 A  
HETATM   13  C   UNL     1     -10.429   7.145  67.857  1.00  0.00    -0.268 A  
HETATM   14  C   UNL     1     -10.653   5.845  68.291  1.00  0.00    -0.310 A  
HETATM   15  C   UNL     1     -10.472   5.521  69.630  1.00  0.00    -0.379 A  
HETATM   16  C   UNL     1     -10.050   6.490  70.550  1.00  0.00    -0.213 A  
HETATM   17  C   UNL     1      -9.829   7.827  70.125  1.00  0.00    -0.184 A  
HETATM   18  C   UNL     1      -9.410   8.760  71.101  1.00  0.00    -0.297 A  
HETATM   19  C   UNL     1      -9.206   8.387  72.435  1.00  0.00    -0.345 A  
HETATM   20  C   UNL     1      -9.420   7.069  72.829  1.00  0.00    -0.170 A  
HETATM   21  C   UNL     1      -9.843   6.131  71.892  1.00  0.00    -0.176 A  
ENDBRANCH  11  12
ENDBRANCH  10  11
ENDBRANCH   7  10
ENDBRANCH   6   7
ENDBRANCH   4   6
ENDBRANCH   2   4
TORSDOF 6
ENDMDL
MODEL      207
REMARK 921   NORMALIZED FREE ENERGY PREDICTED BY IDOCK:   -3.73 KCAL/MOL
REMARK 922        TOTAL FREE ENERGY PREDICTED BY IDOCK:   -5.72 KCAL/MOL
REMARK 923 INTER-LIGAND FREE ENERGY PREDICTED BY IDOCK:   -5.12 KCAL/MOL
REMARK 924 INTRA-LIGAND FREE ENERGY PREDICTED BY IDOCK:   -0.60 KCAL/MOL
REMARK 927      BINDING AFFINITY PREDICTED BY RF-SCORE:    0.00 PKD
ROOT
HETATM    1  C   UNL     1      -6.639  18.444  65.455  1.00  0.00    -0.287 C  
HETATM    2  C   UNL     1      -6.375  19.911  65.796  1.00  0.00    -0.214 C  
HETATM    3  C   UNL     1      -5.991  20.675  64.526  1.00  0.00    -0.318 C  
ENDROOT
BRANCH   2   4
HETATM    4  N   UNL     1      -7.584  20.460  66.413  1.00  0.00    -0.458 NA 
HETATM    5  H   UNL     1      -7.609  21.475  66.320  1.00  0.00     0.000 HD 
BRANCH   4   6
HETATM    6  C   UNL     1      -8.824  19.859  65.902  1.00  0.00    -0.130 C  
BRANCH   6   7
HETATM    7  C   UNL     1      -9.797  19.621  67.066  1.00  0.00    -0.374 C  
HETATM    8  O   UNL     1     -11.146  19.592  66.575  1.00  0.00    -0.314 OA 
HETATM    9  H   UNL     1     -11.748  19.445  67.295  1.00  0.00     0.000 HD 
BRANCH   7  10
HETATM   10  C   UNL     1      -9.489  18.315  67.805  1.00  0.00    -0.276 C  
BRANCH  10  11
HETATM   11  O   UNL     1      -9.786  17.184  66.969  1.00  0.00    -0.258 OA 
BRANCH  11  12
HETATM   12  C   UNL     1      -9.254  15.987  67.407  1.00  0.00    -0.208 A  
HETATM   13  C   UNL     1      -7.956  15.895  67.926  1.00  0.00    -0.146 A  
HETATM   14  C   UNL     1      -7.446  14.677  68.360  1.00  0.00    -0.117 A  
HETATM   15  C   UNL     1      -8.238  13.537  68.306  1.00  0.00    -0.157 A  
HETATM   16  C   UNL     1      -9.555  13.602  67.831  1.00  0.00    -0.223 A  
HETATM   17  C   UNL     1     -10.086  14.836  67.371  1.00  0.00    -0.231 A  
HETATM   18  C   UNL     1     -11.419  14.836  66.898  1.00  0.00    -0.354 A  
HETATM   19  C   UNL     1     -12.196  13.671  66.891  1.00  0.00    -0.398 A  
HETATM   20  C   UNL     1     -11.659  12.474  67.355  1.00  0.00    -0.434 A  
HETATM   21  C   UNL     1     -10.346  12.441  67.817  1.00  0.00    -0.222 A  
ENDBRANCH  11  12
ENDBRANCH  10  11
ENDBRANCH   7  10
ENDBRANCH   6   7
ENDBRANCH   4   6
ENDBRANCH   2   4
TORSDOF 6
ENDMDL
MODEL      208
REMARK 921   NORMALIZED FREE ENERGY PREDICTED BY IDOCK:   -3.73 KCAL/MOL
REMARK 922        TOTAL FREE ENERGY PREDICTED BY IDOCK:   -5.71 KCAL/MOL
REMARK 923 INTER-LIGAND FREE ENERGY PREDICTED BY IDOCK:   -5.42 KCAL/MOL
REMARK 924 INTRA-LIGAND FREE ENERGY PREDICTED BY IDOCK:   -0.29 KCAL/MOL
REMARK 927      BINDING AFFINITY PREDICTED BY RF-SCORE:    0.00 PKD
ROOT
HETATM    1  C   UNL     1      -8.505   3.071  67.848  1.00  0.00    -0.102 C  
HETATM    2  C   UNL     1      -8.871   4.234  66.924  1.00  0.00    -0.116 C  
HETATM    3  C   UNL     1      -9.361   3.690  65.580  1.00  0.00    -0.160 C  
ENDROOT
BRANCH   2   4
HETATM    4  N   UNL     1      -9.897   5.039  67.589  1.00  0.00    -0.157 NA 
HETATM    5  H   UNL     1     -10.475   4.459  68.197  1.00  0.00     0.000 HD 
BRANCH   4   6
HETATM    6  C   UNL     1      -9.349   6.185  68.329  1.00  0.00    -0.116 C  
BRANCH   6   7
HETATM    7  C   UNL     1     -10.436   7.258  68.492  1.00  0.00    -0.188 C  
HETATM    8  O   UNL     1     -11.621   6.669  69.049  1.00  0.00    -0.611 OA 
HETATM    9  H   UNL     1     -12.293   7.332  69.149  1.00  0.00     0.000 HD 
BRANCH   7  10
HETATM   10  C   UNL     1      -9.965   8.412  69.383  1.00  0.00    -0.191 C  
BRANCH  10  11
HETATM   11  O   UNL     1     -11.087   9.201  69.815  1.00  0.00    -0.215 OA 
BRANCH  11  12
HETATM   12  C   UNL     1     -11.038  10.528  69.436  1.00  0.00    -0.258 A  
HETATM   13  C   UNL     1     -10.318  10.955  68.312  1.00  0.00    -0.194 A  
HETATM   14  C   UNL     1     -10.287  12.298  67.954  1.00  0.00    -0.216 A  
HETATM   15  C   UNL     1     -10.998  13.230  68.700  1.00  0.00    -0.294 A  
HETATM   16  C   UNL     1     -11.760  12.830  69.806  1.00  0.00    -0.352 A  
HETATM   17  C   UNL     1     -11.791  11.465  70.193  1.00  0.00    -0.440 A  
HETATM   18  C   UNL     1     -12.575  11.125  71.321  1.00  0.00    -0.503 A  
HETATM   19  C   UNL     1     -13.303  12.090  72.027  1.00  0.00    -0.447 A  
HETATM   20  C   UNL     1     -13.265  13.421  71.625  1.00  0.00    -0.449 A  
HETATM   21  C   UNL     1     -12.495  13.787  70.525  1.00  0.00    -0.409 A  
ENDBRANCH  11  12
ENDBRANCH  10  11
ENDBRANCH   7  10
ENDBRANCH   6   7
ENDBRANCH   4   6
ENDBRANCH   2   4
TORSDOF 6
ENDMDL
MODEL      209
REMARK 921   NORMALIZED FREE ENERGY PREDICTED BY IDOCK:   -3.71 KCAL/MOL
REMARK 922        TOTAL FREE ENERGY PREDICTED BY IDOCK:   -5.69 KCAL/MOL
REMARK 923 INTER-LIGAND FREE ENERGY PREDICTED BY IDOCK:   -5.20 KCAL/MOL
REMARK 924 INTRA-LIGAND FREE ENERGY PREDICTED BY IDOCK:   -0.50 KCAL/MOL
REMARK 927      BINDING AFFINITY PREDICTED BY RF-SCORE:    0.00 PKD
ROOT
HETATM    1  C   UNL     1      -9.301   8.809  71.723  1.00  0.00    -0.350 C  
HETATM    2  C   UNL     1      -9.608   8.728  70.228  1.00  0.00    -0.177 C  
HETATM    3  C   UNL     1     -10.776   7.767  69.992  1.00  0.00    -0.245 C  
ENDROOT
BRANCH   2   4
HETATM    4  N   UNL     1      -9.914  10.079  69.752  1.00  0.00    -0.237 NA 
HETATM    5  H   UNL     1      -9.061  10.566  69.476  1.00  0.00     0.000 HD 
BRANCH   4   6
HETATM    6  C   UNL     1     -10.903  10.104  68.666  1.00  0.00    -0.235 C  
BRANCH   6   7
HETATM    7  C   UNL     1     -10.205  10.450  67.343  1.00  0.00    -0.214 C  
HETATM    8  O   UNL     1     -10.484   9.434  66.366  1.00  0.00    -0.204 OA 
HETATM    9  H   UNL     1     -10.052   9.647  65.548  1.00  0.00     0.000 HD 
BRANCH   7  10
HETATM   10  C   UNL     1     -10.648  11.815  66.807  1.00  0.00    -0.238 C  
BRANCH  10  11
HETATM   11  O   UNL     1      -9.801  12.855  67.324  1.00  0.00    -0.212 OA 
BRANCH  11  12
HETATM   12  C   UNL     1     -10.471  13.889  67.947  1.00  0.00    -0.242 A  
HETATM   13  C   UNL     1     -11.422  13.661  68.951  1.00  0.00    -0.344 A  
HETATM   14  C   UNL     1     -12.082  14.721  69.562  1.00  0.00    -0.328 A  
HETATM   15  C   UNL     1     -11.781  16.027  69.195  1.00  0.00    -0.310 A  
HETATM   16  C   UNL     1     -10.806  16.291  68.224  1.00  0.00    -0.340 A  
HETATM   17  C   UNL     1     -10.133  15.219  67.581  1.00  0.00    -0.235 A  
HETATM   18  C   UNL     1      -9.164  15.550  66.605  1.00  0.00    -0.299 A  
HETATM   19  C   UNL     1      -8.865  16.880  66.287  1.00  0.00    -0.314 A  
HETATM   20  C   UNL     1      -9.531  17.916  66.936  1.00  0.00    -0.279 A  
HETATM   21  C   UNL     1     -10.497  17.621  67.894  1.00  0.00    -0.392 A  
ENDBRANCH  11  12
ENDBRANCH  10  11
ENDBRANCH   7  10
ENDBRANCH   6   7
ENDBRANCH   4   6
ENDBRANCH   2   4
TORSDOF 6
ENDMDL
MODEL      210
REMARK 921   NORMALIZED FREE ENERGY PREDICTED BY IDOCK:   -3.68 KCAL/MOL
REMARK 922        TOTAL FREE ENERGY PREDICTED BY IDOCK:   -5.66 KCAL/MOL
REMARK 923 INTER-LIGAND FREE ENERGY PREDICTED BY IDOCK:   -5.09 KCAL/MOL
REMARK 924 INTRA-LIGAND FREE ENERGY PREDICTED BY IDOCK:   -0.57 KCAL/MOL
REMARK 927      BINDING AFFINITY PREDICTED BY RF-SCORE:    0.00 PKD
ROOT
HETATM    1  C   UNL     1     -12.533  11.952  63.445  1.00  0.00    -0.582 C  
HETATM    2  C   UNL     1     -11.549  13.085  63.741  1.00  0.00    -0.457 C  
HETATM    3  C   UNL     1     -12.198  14.098  64.687  1.00  0.00    -0.465 C  
ENDROOT
BRANCH   2   4
HETATM    4  N   UNL     1     -10.340  12.498  64.322  1.00  0.00    -0.387 NA 
HETATM    5  H   UNL     1      -9.509  12.806  63.817  1.00  0.00     0.000 HD 
BRANCH   4   6
HETATM    6  C   UNL     1     -10.201  12.755  65.762  1.00  0.00    -0.289 C  
BRANCH   6   7
HETATM    7  C   UNL     1     -10.438  11.453  66.541  1.00  0.00    -0.249 C  
HETATM    8  O   UNL     1     -11.826  11.346  66.897  1.00  0.00    -0.489 OA 
HETATM    9  H   UNL     1     -11.972  10.541  67.379  1.00  0.00     0.000 HD 
BRANCH   7  10
HETATM   10  C   UNL     1     -10.016  10.222  65.732  1.00  0.00    -0.271 C  
BRANCH  10  11
HETATM   11  O   UNL     1     -10.282   9.020  66.474  1.00  0.00    -0.278 OA 
BRANCH  11  12
HETATM   12  C   UNL     1      -9.157   8.373  66.946  1.00  0.00    -0.148 A  
HETATM   13  C   UNL     1      -7.870   8.685  66.485  1.00  0.00    -0.099 A  
HETATM   14  C   UNL     1      -6.755   8.019  66.979  1.00  0.00    -0.065 A  
HETATM   15  C   UNL     1      -6.908   7.047  67.960  1.00  0.00    -0.074 A  
HETATM   16  C   UNL     1      -8.175   6.740  68.472  1.00  0.00    -0.120 A  
HETATM   17  C   UNL     1      -9.326   7.402  67.969  1.00  0.00    -0.136 A  
HETATM   18  C   UNL     1     -10.578   7.044  68.522  1.00  0.00    -0.235 A  
HETATM   19  C   UNL     1     -10.686   6.083  69.534  1.00  0.00    -0.405 A  
HETATM   20  C   UNL     1      -9.544   5.452  70.019  1.00  0.00    -0.227 A  
HETATM   21  C   UNL     1      -8.299   5.777  69.487  1.00  0.00    -0.112 A  
ENDBRANCH  11  12
ENDBRANCH  10  11
ENDBRANCH   7  10
ENDBRANCH   6   7
ENDBRANCH   4   6
ENDBRANCH   2   4
TORSDOF 6
ENDMDL
MODEL      211
REMARK 921   NORMALIZED FREE ENERGY PREDICTED BY IDOCK:   -3.68 KCAL/MOL
REMARK 922        TOTAL FREE ENERGY PREDICTED BY IDOCK:   -5.65 KCAL/MOL
REMARK 923 INTER-LIGAND FREE ENERGY PREDICTED BY IDOCK:   -5.16 KCAL/MOL
REMARK 924 INTRA-LIGAND FREE ENERGY PREDICTED BY IDOCK:   -0.49 KCAL/MOL
REMARK 927      BINDING AFFINITY PREDICTED BY RF-SCORE:    0.00 PKD
ROOT
HETATM    1  C   UNL     1      -8.137   7.906  64.050  1.00  0.00    -0.078 C  
HETATM    2  C   UNL     1      -7.473   9.221  63.639  1.00  0.00    -0.106 C  
HETATM    3  C   UNL     1      -8.324   9.919  62.575  1.00  0.00    -0.155 C  
ENDROOT
BRANCH   2   4
HETATM    4  N   UNL     1      -7.318  10.047  64.838  1.00  0.00    -0.136 NA 
HETATM    5  H   UNL     1      -7.440  11.034  64.615  1.00  0.00     0.000 HD 
BRANCH   4   6
HETATM    6  C   UNL     1      -8.205   9.648  65.939  1.00  0.00    -0.119 C  
BRANCH   6   7
HETATM    7  C   UNL     1      -9.193  10.785  66.241  1.00  0.00    -0.173 C  
HETATM    8  O   UNL     1     -10.463  10.500  65.634  1.00  0.00    -0.227 OA 
HETATM    9  H   UNL     1     -11.074  11.203  65.821  1.00  0.00     0.000 HD 
BRANCH   7  10
HETATM   10  C   UNL     1      -9.376  10.992  67.748  1.00  0.00    -0.158 C  
BRANCH  10  11
HETATM   11  O   UNL     1     -10.652  11.596  68.019  1.00  0.00    -0.189 OA 
BRANCH  11  12
HETATM   12  C   UNL     1     -11.289  11.115  69.145  1.00  0.00    -0.273 A  
HETATM   13  C   UNL     1     -11.288   9.754  69.478  1.00  0.00    -0.127 A  
HETATM   14  C   UNL     1     -11.937   9.298  70.619  1.00  0.00    -0.206 A  
HETATM   15  C   UNL     1     -12.576  10.201  71.459  1.00  0.00    -0.537 A  
HETATM   16  C   UNL     1     -12.563  11.574  71.177  1.00  0.00    -0.463 A  
HETATM   17  C   UNL     1     -11.915  12.054  70.009  1.00  0.00    -0.400 A  
HETATM   18  C   UNL     1     -11.941  13.449  69.777  1.00  0.00    -0.396 A  
HETATM   19  C   UNL     1     -12.568  14.331  70.666  1.00  0.00    -0.424 A  
HETATM   20  C   UNL     1     -13.189  13.839  71.810  1.00  0.00    -0.467 A  
HETATM   21  C   UNL     1     -13.189  12.470  72.059  1.00  0.00    -0.524 A  
ENDBRANCH  11  12
ENDBRANCH  10  11
ENDBRANCH   7  10
ENDBRANCH   6   7
ENDBRANCH   4   6
ENDBRANCH   2   4
TORSDOF 6
ENDMDL
MODEL      212
REMARK 921   NORMALIZED FREE ENERGY PREDICTED BY IDOCK:   -3.68 KCAL/MOL
REMARK 922        TOTAL FREE ENERGY PREDICTED BY IDOCK:   -5.65 KCAL/MOL
REMARK 923 INTER-LIGAND FREE ENERGY PREDICTED BY IDOCK:   -4.81 KCAL/MOL
REMARK 924 INTRA-LIGAND FREE ENERGY PREDICTED BY IDOCK:   -0.84 KCAL/MOL
REMARK 927      BINDING AFFINITY PREDICTED BY RF-SCORE:    0.00 PKD
ROOT
HETATM    1  C   UNL     1      -6.144  18.559  69.021  1.00  0.00    -0.240 C  
HETATM    2  C   UNL     1      -7.058  19.773  68.846  1.00  0.00    -0.323 C  
HETATM    3  C   UNL     1      -6.715  20.492  67.539  1.00  0.00    -0.342 C  
ENDROOT
BRANCH   2   4
HETATM    4  N   UNL     1      -8.445  19.305  68.859  1.00  0.00    -0.343 NA 
HETATM    5  H   UNL     1      -8.811  19.287  69.811  1.00  0.00     0.000 HD 
BRANCH   4   6
HETATM    6  C   UNL     1      -9.329  20.077  67.975  1.00  0.00    -0.293 C  
BRANCH   6   7
HETATM    7  C   UNL     1     -10.650  19.318  67.781  1.00  0.00    -0.410 C  
HETATM    8  O   UNL     1     -11.107  19.476  66.429  1.00  0.00    -0.281 OA 
HETATM    9  H   UNL     1     -11.925  19.007  66.309  1.00  0.00     0.000 HD 
BRANCH   7  10
HETATM   10  C   UNL     1     -10.502  17.828  68.105  1.00  0.00    -0.377 C  
BRANCH  10  11
HETATM   11  O   UNL     1      -9.679  17.180  67.121  1.00  0.00    -0.249 OA 
BRANCH  11  12
HETATM   12  C   UNL     1      -9.862  15.815  67.025  1.00  0.00    -0.234 A  
HETATM   13  C   UNL     1     -10.966  15.255  66.367  1.00  0.00    -0.299 A  
HETATM   14  C   UNL     1     -11.124  13.877  66.285  1.00  0.00    -0.304 A  
HETATM   15  C   UNL     1     -10.166  13.037  66.838  1.00  0.00    -0.244 A  
HETATM   16  C   UNL     1      -9.029  13.563  67.467  1.00  0.00    -0.210 A  
HETATM   17  C   UNL     1      -8.860  14.969  67.571  1.00  0.00    -0.193 A  
HETATM   18  C   UNL     1      -7.695  15.438  68.222  1.00  0.00    -0.115 A  
HETATM   19  C   UNL     1      -6.736  14.558  68.737  1.00  0.00    -0.091 A  
HETATM   20  C   UNL     1      -6.918  13.184  68.617  1.00  0.00    -0.102 A  
HETATM   21  C   UNL     1      -8.059  12.692  67.990  1.00  0.00    -0.161 A  
ENDBRANCH  11  12
ENDBRANCH  10  11
ENDBRANCH   7  10
ENDBRANCH   6   7
ENDBRANCH   4   6
ENDBRANCH   2   4
TORSDOF 6
ENDMDL
MODEL      213
REMARK 921   NORMALIZED FREE ENERGY PREDICTED BY IDOCK:   -3.68 KCAL/MOL
REMARK 922        TOTAL FREE ENERGY PREDICTED BY IDOCK:   -5.64 KCAL/MOL
REMARK 923 INTER-LIGAND FREE ENERGY PREDICTED BY IDOCK:   -5.35 KCAL/MOL
REMARK 924 INTRA-LIGAND FREE ENERGY PREDICTED BY IDOCK:   -0.29 KCAL/MOL
REMARK 927      BINDING AFFINITY PREDICTED BY RF-SCORE:    0.00 PKD
ROOT
HETATM    1  C   UNL     1      -7.787   7.483  71.542  1.00  0.00    -0.086 C  
HETATM    2  C   UNL     1      -8.688   6.326  71.973  1.00  0.00    -0.134 C  
HETATM    3  C   UNL     1      -7.860   5.044  72.090  1.00  0.00    -0.110 C  
ENDROOT
BRANCH   2   4
HETATM    4  N   UNL     1      -9.313   6.685  73.247  1.00  0.00    -0.131 NA 
HETATM    5  H   UNL     1      -8.608   6.807  73.974  1.00  0.00     0.000 HD 
BRANCH   4   6
HETATM    6  C   UNL     1     -10.181   7.867  73.158  1.00  0.00    -0.291 C  
BRANCH   6   7
HETATM    7  C   UNL     1     -11.070   7.758  71.911  1.00  0.00    -0.257 C  
HETATM    8  O   UNL     1     -12.340   7.189  72.268  1.00  0.00    -0.472 OA 
HETATM    9  H   UNL     1     -12.890   7.121  71.497  1.00  0.00     0.000 HD 
BRANCH   7  10
HETATM   10  C   UNL     1     -11.285   9.122  71.246  1.00  0.00    -0.337 C  
BRANCH  10  11
HETATM   11  O   UNL     1     -10.980   9.048  69.843  1.00  0.00    -0.235 OA 
BRANCH  11  12
HETATM   12  C   UNL     1     -11.168  10.227  69.150  1.00  0.00    -0.215 A  
HETATM   13  C   UNL     1     -11.649  11.388  69.770  1.00  0.00    -0.407 A  
HETATM   14  C   UNL     1     -11.827  12.562  69.048  1.00  0.00    -0.344 A  
HETATM   15  C   UNL     1     -11.502  12.599  67.698  1.00  0.00    -0.390 A  
HETATM   16  C   UNL     1     -10.980  11.468  67.055  1.00  0.00    -0.347 A  
HETATM   17  C   UNL     1     -10.804  10.258  67.776  1.00  0.00    -0.346 A  
HETATM   18  C   UNL     1     -10.279   9.150  67.071  1.00  0.00    -0.333 A  
HETATM   19  C   UNL     1      -9.932   9.238  65.717  1.00  0.00    -0.215 A  
HETATM   20  C   UNL     1     -10.104  10.437  65.032  1.00  0.00    -0.379 A  
HETATM   21  C   UNL     1     -10.629  11.541  65.698  1.00  0.00    -0.326 A  
ENDBRANCH  11  12
ENDBRANCH  10  11
ENDBRANCH   7  10
ENDBRANCH   6   7
ENDBRANCH   4   6
ENDBRANCH   2   4
TORSDOF 6
ENDMDL
MODEL      214
REMARK 921   NORMALIZED FREE ENERGY PREDICTED BY IDOCK:   -3.67 KCAL/MOL
REMARK 922        TOTAL FREE ENERGY PREDICTED BY IDOCK:   -5.64 KCAL/MOL
REMARK 923 INTER-LIGAND FREE ENERGY PREDICTED BY IDOCK:   -5.16 KCAL/MOL
REMARK 924 INTRA-LIGAND FREE ENERGY PREDICTED BY IDOCK:   -0.48 KCAL/MOL
REMARK 927      BINDING AFFINITY PREDICTED BY RF-SCORE:    0.00 PKD
ROOT
HETATM    1  C   UNL     1      -9.924   8.600  71.414  1.00  0.00    -0.324 C  
HETATM    2  C   UNL     1      -9.129   7.294  71.443  1.00  0.00    -0.142 C  
HETATM    3  C   UNL     1      -9.976   6.188  72.077  1.00  0.00    -0.194 C  
ENDROOT
BRANCH   2   4
HETATM    4  N   UNL     1      -8.746   6.963  70.069  1.00  0.00    -0.141 NA 
HETATM    5  H   UNL     1      -8.198   6.103  70.044  1.00  0.00     0.000 HD 
BRANCH   4   6
HETATM    6  C   UNL     1      -9.888   6.880  69.149  1.00  0.00    -0.156 C  
BRANCH   6   7
HETATM    7  C   UNL     1      -9.378   6.717  67.710  1.00  0.00    -0.119 C  
HETATM    8  O   UNL     1      -9.443   5.335  67.325  1.00  0.00    -0.119 OA 
HETATM    9  H   UNL     1      -9.127   5.234  66.435  1.00  0.00     0.000 HD 
BRANCH   7  10
HETATM   10  C   UNL     1     -10.184   7.567  66.722  1.00  0.00    -0.254 C  
BRANCH  10  11
HETATM   11  O   UNL     1      -9.560   8.848  66.538  1.00  0.00    -0.191 OA 
BRANCH  11  12
HETATM   12  C   UNL     1     -10.351   9.928  66.875  1.00  0.00    -0.235 A  
HETATM   13  C   UNL     1     -10.777  10.158  68.190  1.00  0.00    -0.285 A  
HETATM   14  C   UNL     1     -11.572  11.255  68.501  1.00  0.00    -0.384 A  
HETATM   15  C   UNL     1     -11.932  12.153  67.504  1.00  0.00    -0.175 A  
HETATM   16  C   UNL     1     -11.490  11.975  66.186  1.00  0.00    -0.401 A  
HETATM   17  C   UNL     1     -10.687  10.853  65.850  1.00  0.00    -0.193 A  
HETATM   18  C   UNL     1     -10.277  10.726  64.502  1.00  0.00    -0.428 A  
HETATM   19  C   UNL     1     -10.633  11.672  63.533  1.00  0.00    -0.496 A  
HETATM   20  C   UNL     1     -11.413  12.769  63.886  1.00  0.00    -0.505 A  
HETATM   21  C   UNL     1     -11.840  12.915  65.203  1.00  0.00    -0.415 A  
ENDBRANCH  11  12
ENDBRANCH  10  11
ENDBRANCH   7  10
ENDBRANCH   6   7
ENDBRANCH   4   6
ENDBRANCH   2   4
TORSDOF 6
ENDMDL
MODEL      215
REMARK 921   NORMALIZED FREE ENERGY PREDICTED BY IDOCK:   -3.67 KCAL/MOL
REMARK 922        TOTAL FREE ENERGY PREDICTED BY IDOCK:   -5.63 KCAL/MOL
REMARK 923 INTER-LIGAND FREE ENERGY PREDICTED BY IDOCK:   -4.94 KCAL/MOL
REMARK 924 INTRA-LIGAND FREE ENERGY PREDICTED BY IDOCK:   -0.69 KCAL/MOL
REMARK 927      BINDING AFFINITY PREDICTED BY RF-SCORE:    0.00 PKD
ROOT
HETATM    1  C   UNL     1     -10.685  10.103  70.123  1.00  0.00    -0.355 C  
HETATM    2  C   UNL     1     -11.811  11.127  69.979  1.00  0.00    -0.361 C  
HETATM    3  C   UNL     1     -12.724  11.065  71.206  1.00  0.00    -0.537 C  
ENDROOT
BRANCH   2   4
HETATM    4  N   UNL     1     -11.206  12.451  69.821  1.00  0.00    -0.488 NA 
HETATM    5  H   UNL     1     -10.277  12.377  69.405  1.00  0.00     0.000 HD 
BRANCH   4   6
HETATM    6  C   UNL     1     -12.044  13.389  69.061  1.00  0.00    -0.259 C  
BRANCH   6   7
HETATM    7  C   UNL     1     -11.708  13.283  67.567  1.00  0.00    -0.366 C  
HETATM    8  O   UNL     1     -12.445  14.272  66.831  1.00  0.00    -0.581 OA 
HETATM    9  H   UNL     1     -12.237  14.207  65.907  1.00  0.00     0.000 HD 
BRANCH   7  10
HETATM   10  C   UNL     1     -10.208  13.459  67.308  1.00  0.00    -0.241 C  
BRANCH  10  11
HETATM   11  O   UNL     1      -9.795  12.656  66.189  1.00  0.00    -0.253 OA 
BRANCH  11  12
HETATM   12  C   UNL     1      -9.464  11.354  66.505  1.00  0.00    -0.200 A  
HETATM   13  C   UNL     1     -10.368  10.295  66.345  1.00  0.00    -0.262 A  
HETATM   14  C   UNL     1     -10.008   8.993  66.671  1.00  0.00    -0.349 A  
HETATM   15  C   UNL     1      -8.727   8.727  67.137  1.00  0.00    -0.127 A  
HETATM   16  C   UNL     1      -7.785   9.755  67.271  1.00  0.00    -0.095 A  
HETATM   17  C   UNL     1      -8.142  11.093  66.955  1.00  0.00    -0.150 A  
HETATM   18  C   UNL     1      -7.149  12.087  67.115  1.00  0.00    -0.130 A  
HETATM   19  C   UNL     1      -5.858  11.773  67.557  1.00  0.00    -0.088 A  
HETATM   20  C   UNL     1      -5.526  10.454  67.853  1.00  0.00    -0.040 A  
HETATM   21  C   UNL     1      -6.486   9.455  67.714  1.00  0.00    -0.059 A  
ENDBRANCH  11  12
ENDBRANCH  10  11
ENDBRANCH   7  10
ENDBRANCH   6   7
ENDBRANCH   4   6
ENDBRANCH   2   4
TORSDOF 6
ENDMDL
MODEL      216
REMARK 921   NORMALIZED FREE ENERGY PREDICTED BY IDOCK:   -3.67 KCAL/MOL
REMARK 922        TOTAL FREE ENERGY PREDICTED BY IDOCK:   -5.63 KCAL/MOL
REMARK 923 INTER-LIGAND FREE ENERGY PREDICTED BY IDOCK:   -5.16 KCAL/MOL
REMARK 924 INTRA-LIGAND FREE ENERGY PREDICTED BY IDOCK:   -0.47 KCAL/MOL
REMARK 927      BINDING AFFINITY PREDICTED BY RF-SCORE:    0.00 PKD
ROOT
HETATM    1  C   UNL     1      -9.770  16.855  66.022  1.00  0.00    -0.260 C  
HETATM    2  C   UNL     1      -9.327  15.398  66.157  1.00  0.00    -0.332 C  
HETATM    3  C   UNL     1      -9.575  14.914  67.588  1.00  0.00    -0.200 C  
ENDROOT
BRANCH   2   4
HETATM    4  N   UNL     1     -10.073  14.602  65.180  1.00  0.00    -0.443 NA 
HETATM    5  H   UNL     1      -9.996  15.009  64.248  1.00  0.00     0.000 HD 
BRANCH   4   6
HETATM    6  C   UNL     1      -9.686  13.185  65.164  1.00  0.00     0.061 C  
BRANCH   6   7
HETATM    7  C   UNL     1     -10.945  12.310  65.082  1.00  0.00    -0.303 C  
HETATM    8  O   UNL     1     -10.620  11.045  64.485  1.00  0.00    -0.343 OA 
HETATM    9  H   UNL     1     -11.399  10.503  64.434  1.00  0.00     0.000 HD 
BRANCH   7  10
HETATM   10  C   UNL     1     -11.570  12.083  66.463  1.00  0.00    -0.314 C  
BRANCH  10  11
HETATM   11  O   UNL     1     -11.243  10.771  66.952  1.00  0.00    -0.256 OA 
BRANCH  11  12
HETATM   12  C   UNL     1     -11.354  10.622  68.320  1.00  0.00    -0.289 A  
HETATM   13  C   UNL     1     -12.055  11.538  69.115  1.00  0.00    -0.329 A  
HETATM   14  C   UNL     1     -12.151  11.362  70.490  1.00  0.00    -0.487 A  
HETATM   15  C   UNL     1     -11.568  10.252  71.088  1.00  0.00    -0.385 A  
HETATM   16  C   UNL     1     -10.894   9.296  70.317  1.00  0.00    -0.286 A  
HETATM   17  C   UNL     1     -10.775   9.468  68.913  1.00  0.00    -0.220 A  
HETATM   18  C   UNL     1     -10.078   8.471  68.191  1.00  0.00    -0.240 A  
HETATM   19  C   UNL     1      -9.533   7.349  68.827  1.00  0.00    -0.143 A  
HETATM   20  C   UNL     1      -9.668   7.196  70.203  1.00  0.00    -0.171 A  
HETATM   21  C   UNL     1     -10.340   8.166  70.941  1.00  0.00    -0.218 A  
ENDBRANCH  11  12
ENDBRANCH  10  11
ENDBRANCH   7  10
ENDBRANCH   6   7
ENDBRANCH   4   6
ENDBRANCH   2   4
TORSDOF 6
ENDMDL
MODEL      217
REMARK 921   NORMALIZED FREE ENERGY PREDICTED BY IDOCK:   -3.65 KCAL/MOL
REMARK 922        TOTAL FREE ENERGY PREDICTED BY IDOCK:   -5.61 KCAL/MOL
REMARK 923 INTER-LIGAND FREE ENERGY PREDICTED BY IDOCK:   -5.29 KCAL/MOL
REMARK 924 INTRA-LIGAND FREE ENERGY PREDICTED BY IDOCK:   -0.32 KCAL/MOL
REMARK 927      BINDING AFFINITY PREDICTED BY RF-SCORE:    0.00 PKD
ROOT
HETATM    1  C   UNL     1      -9.128   3.092  66.635  1.00  0.00    -0.171 C  
HETATM    2  C   UNL     1      -9.189   4.469  65.975  1.00  0.00    -0.141 C  
HETATM    3  C   UNL     1      -9.454   4.311  64.475  1.00  0.00    -0.156 C  
ENDROOT
BRANCH   2   4
HETATM    4  N   UNL     1     -10.243   5.244  66.633  1.00  0.00    -0.225 NA 
HETATM    5  H   UNL     1     -10.504   4.818  67.522  1.00  0.00     0.000 HD 
BRANCH   4   6
HETATM    6  C   UNL     1      -9.898   6.661  66.814  1.00  0.00    -0.173 C  
BRANCH   6   7
HETATM    7  C   UNL     1     -10.617   7.209  68.055  1.00  0.00    -0.196 C  
HETATM    8  O   UNL     1     -10.290   6.407  69.201  1.00  0.00    -0.179 OA 
HETATM    9  H   UNL     1     -10.734   6.746  69.969  1.00  0.00     0.000 HD 
BRANCH   7  10
HETATM   10  C   UNL     1     -10.246   8.671  68.326  1.00  0.00    -0.198 C  
BRANCH  10  11
HETATM   11  O   UNL     1     -10.794   9.524  67.307  1.00  0.00    -0.251 OA 
BRANCH  11  12
HETATM   12  C   UNL     1     -11.170  10.778  67.746  1.00  0.00    -0.316 A  
HETATM   13  C   UNL     1     -11.617  11.006  69.054  1.00  0.00    -0.392 A  
HETATM   14  C   UNL     1     -11.989  12.279  69.469  1.00  0.00    -0.333 A  
HETATM   15  C   UNL     1     -11.895  13.349  68.588  1.00  0.00    -0.397 A  
HETATM   16  C   UNL     1     -11.414  13.163  67.285  1.00  0.00    -0.375 A  
HETATM   17  C   UNL     1     -11.042  11.866  66.842  1.00  0.00    -0.356 A  
HETATM   18  C   UNL     1     -10.569  11.742  65.514  1.00  0.00    -0.323 A  
HETATM   19  C   UNL     1     -10.458  12.851  64.667  1.00  0.00    -0.385 A  
HETATM   20  C   UNL     1     -10.819  14.115  65.125  1.00  0.00    -0.380 A  
HETATM   21  C   UNL     1     -11.298  14.266  66.423  1.00  0.00    -0.346 A  
ENDBRANCH  11  12
ENDBRANCH  10  11
ENDBRANCH   7  10
ENDBRANCH   6   7
ENDBRANCH   4   6
ENDBRANCH   2   4
TORSDOF 6
ENDMDL
MODEL      218
REMARK 921   NORMALIZED FREE ENERGY PREDICTED BY IDOCK:   -3.65 KCAL/MOL
REMARK 922        TOTAL FREE ENERGY PREDICTED BY IDOCK:   -5.60 KCAL/MOL
REMARK 923 INTER-LIGAND FREE ENERGY PREDICTED BY IDOCK:   -4.87 KCAL/MOL
REMARK 924 INTRA-LIGAND FREE ENERGY PREDICTED BY IDOCK:   -0.73 KCAL/MOL
REMARK 927      BINDING AFFINITY PREDICTED BY RF-SCORE:    0.00 PKD
ROOT
HETATM    1  C   UNL     1      -7.690   3.341  69.599  1.00  0.00    -0.044 C  
HETATM    2  C   UNL     1      -7.875   4.469  70.614  1.00  0.00    -0.057 C  
HETATM    3  C   UNL     1      -7.292   5.768  70.054  1.00  0.00    -0.074 C  
ENDROOT
BRANCH   2   4
HETATM    4  N   UNL     1      -9.307   4.596  70.897  1.00  0.00    -0.140 NA 
HETATM    5  H   UNL     1      -9.761   3.683  70.878  1.00  0.00     0.000 HD 
BRANCH   4   6
HETATM    6  C   UNL     1      -9.592   5.295  72.158  1.00  0.00    -0.151 C  
BRANCH   6   7
HETATM    7  C   UNL     1     -11.110   5.361  72.376  1.00  0.00    -0.229 C  
HETATM    8  O   UNL     1     -11.398   5.403  73.782  1.00  0.00    -0.407 OA 
HETATM    9  H   UNL     1     -12.337   5.444  73.917  1.00  0.00     0.000 HD 
BRANCH   7  10
HETATM   10  C   UNL     1     -11.730   6.581  71.686  1.00  0.00    -0.324 C  
BRANCH  10  11
HETATM   11  O   UNL     1     -10.700   7.462  71.206  1.00  0.00    -0.221 OA 
BRANCH  11  12
HETATM   12  C   UNL     1     -11.155   8.681  70.743  1.00  0.00    -0.255 A  
HETATM   13  C   UNL     1     -11.864   9.571  71.560  1.00  0.00    -0.478 A  
HETATM   14  C   UNL     1     -12.308  10.792  71.068  1.00  0.00    -0.509 A  
HETATM   15  C   UNL     1     -12.027  11.153  69.756  1.00  0.00    -0.428 A  
HETATM   16  C   UNL     1     -11.285  10.304  68.924  1.00  0.00    -0.259 A  
HETATM   17  C   UNL     1     -10.836   9.047  69.408  1.00  0.00    -0.152 A  
HETATM   18  C   UNL     1     -10.097   8.233  68.518  1.00  0.00    -0.217 A  
HETATM   19  C   UNL     1      -9.806   8.647  67.212  1.00  0.00    -0.256 A  
HETATM   20  C   UNL     1     -10.249   9.886  66.761  1.00  0.00    -0.301 A  
HETATM   21  C   UNL     1     -10.987  10.705  67.611  1.00  0.00    -0.370 A  
ENDBRANCH  11  12
ENDBRANCH  10  11
ENDBRANCH   7  10
ENDBRANCH   6   7
ENDBRANCH   4   6
ENDBRANCH   2   4
TORSDOF 6
ENDMDL
MODEL      219
REMARK 921   NORMALIZED FREE ENERGY PREDICTED BY IDOCK:   -3.63 KCAL/MOL
REMARK 922        TOTAL FREE ENERGY PREDICTED BY IDOCK:   -5.59 KCAL/MOL
REMARK 923 INTER-LIGAND FREE ENERGY PREDICTED BY IDOCK:   -4.32 KCAL/MOL
REMARK 924 INTRA-LIGAND FREE ENERGY PREDICTED BY IDOCK:   -1.27 KCAL/MOL
REMARK 927      BINDING AFFINITY PREDICTED BY RF-SCORE:    0.00 PKD
ROOT
HETATM    1  C   UNL     1     -11.808  12.469  68.742  1.00  0.00    -0.347 C  
HETATM    2  C   UNL     1     -12.023  13.975  68.896  1.00  0.00    -0.352 C  
HETATM    3  C   UNL     1     -10.832  14.593  69.633  1.00  0.00    -0.211 C  
ENDROOT
BRANCH   2   4
HETATM    4  N   UNL     1     -12.191  14.550  67.559  1.00  0.00    -0.608 NA 
HETATM    5  H   UNL     1     -11.316  14.957  67.228  1.00  0.00     0.000 HD 
BRANCH   4   6
HETATM    6  C   UNL     1     -12.727  13.597  66.578  1.00  0.00     0.011 C  
BRANCH   6   7
HETATM    7  C   UNL     1     -11.983  13.760  65.245  1.00  0.00    -0.374 C  
HETATM    8  O   UNL     1     -12.754  14.580  64.353  1.00  0.00    -0.655 OA 
HETATM    9  H   UNL     1     -12.294  14.681  63.529  1.00  0.00     0.000 HD 
BRANCH   7  10
HETATM   10  C   UNL     1     -10.594  14.377  65.441  1.00  0.00    -0.365 C  
BRANCH  10  11
HETATM   11  O   UNL     1      -9.570  13.401  65.182  1.00  0.00     0.008 OA 
BRANCH  11  12
HETATM   12  C   UNL     1      -8.969  12.883  66.312  1.00  0.00     0.083 A  
HETATM   13  C   UNL     1      -8.107  13.645  67.112  1.00  0.00    -0.094 A  
HETATM   14  C   UNL     1      -7.516  13.097  68.245  1.00  0.00    -0.129 A  
HETATM   15  C   UNL     1      -7.799  11.787  68.608  1.00  0.00    -0.117 A  
HETATM   16  C   UNL     1      -8.689  11.011  67.853  1.00  0.00    -0.133 A  
HETATM   17  C   UNL     1      -9.290  11.551  66.686  1.00  0.00    -0.201 A  
HETATM   18  C   UNL     1     -10.175  10.717  65.963  1.00  0.00    -0.309 A  
HETATM   19  C   UNL     1     -10.460   9.411  66.382  1.00  0.00    -0.165 A  
HETATM   20  C   UNL     1      -9.866   8.904  67.533  1.00  0.00    -0.237 A  
HETATM   21  C   UNL     1      -8.984   9.699  68.260  1.00  0.00    -0.123 A  
ENDBRANCH  11  12
ENDBRANCH  10  11
ENDBRANCH   7  10
ENDBRANCH   6   7
ENDBRANCH   4   6
ENDBRANCH   2   4
TORSDOF 6
ENDMDL
MODEL      220
REMARK 921   NORMALIZED FREE ENERGY PREDICTED BY IDOCK:   -3.62 KCAL/MOL
REMARK 922        TOTAL FREE ENERGY PREDICTED BY IDOCK:   -5.57 KCAL/MOL
REMARK 923 INTER-LIGAND FREE ENERGY PREDICTED BY IDOCK:   -5.13 KCAL/MOL
REMARK 924 INTRA-LIGAND FREE ENERGY PREDICTED BY IDOCK:   -0.45 KCAL/MOL
REMARK 927      BINDING AFFINITY PREDICTED BY RF-SCORE:    0.00 PKD
ROOT
HETATM    1  C   UNL     1     -10.146   7.291  72.300  1.00  0.00    -0.219 C  
HETATM    2  C   UNL     1     -11.070   7.897  71.244  1.00  0.00    -0.250 C  
HETATM    3  C   UNL     1     -11.976   8.946  71.892  1.00  0.00    -0.441 C  
ENDROOT
BRANCH   2   4
HETATM    4  N   UNL     1     -10.237   8.478  70.188  1.00  0.00    -0.191 NA 
HETATM    5  H   UNL     1      -9.336   8.774  70.562  1.00  0.00     0.000 HD 
BRANCH   4   6
HETATM    6  C   UNL     1     -10.056   7.588  69.033  1.00  0.00    -0.192 C  
BRANCH   6   7
HETATM    7  C   UNL     1     -10.011   8.423  67.745  1.00  0.00    -0.186 C  
HETATM    8  O   UNL     1     -10.705   7.734  66.693  1.00  0.00    -0.443 OA 
HETATM    9  H   UNL     1     -10.677   8.250  65.897  1.00  0.00     0.000 HD 
BRANCH   7  10
HETATM   10  C   UNL     1     -10.627   9.811  67.946  1.00  0.00    -0.259 C  
BRANCH  10  11
HETATM   11  O   UNL     1      -9.798  10.820  67.345  1.00  0.00    -0.172 OA 
BRANCH  11  12
HETATM   12  C   UNL     1     -10.476  11.944  66.916  1.00  0.00    -0.222 A  
HETATM   13  C   UNL     1     -11.580  11.865  66.057  1.00  0.00    -0.296 A  
HETATM   14  C   UNL     1     -12.244  13.013  65.643  1.00  0.00    -0.521 A  
HETATM   15  C   UNL     1     -11.830  14.257  66.103  1.00  0.00    -0.413 A  
HETATM   16  C   UNL     1     -10.754  14.368  66.995  1.00  0.00    -0.285 A  
HETATM   17  C   UNL     1     -10.057  13.206  67.417  1.00  0.00    -0.229 A  
HETATM   18  C   UNL     1      -8.978  13.384  68.314  1.00  0.00    -0.176 A  
HETATM   19  C   UNL     1      -8.611  14.652  68.780  1.00  0.00    -0.160 A  
HETATM   20  C   UNL     1      -9.314  15.777  68.360  1.00  0.00    -0.196 A  
HETATM   21  C   UNL     1     -10.375  15.634  67.470  1.00  0.00    -0.277 A  
ENDBRANCH  11  12
ENDBRANCH  10  11
ENDBRANCH   7  10
ENDBRANCH   6   7
ENDBRANCH   4   6
ENDBRANCH   2   4
TORSDOF 6
ENDMDL
MODEL      221
REMARK 921   NORMALIZED FREE ENERGY PREDICTED BY IDOCK:   -3.61 KCAL/MOL
REMARK 922        TOTAL FREE ENERGY PREDICTED BY IDOCK:   -5.56 KCAL/MOL
REMARK 923 INTER-LIGAND FREE ENERGY PREDICTED BY IDOCK:   -5.01 KCAL/MOL
REMARK 924 INTRA-LIGAND FREE ENERGY PREDICTED BY IDOCK:   -0.55 KCAL/MOL
REMARK 927      BINDING AFFINITY PREDICTED BY RF-SCORE:    0.00 PKD
ROOT
HETATM    1  C   UNL     1      -9.923  19.515  66.211  1.00  0.00    -0.538 C  
HETATM    2  C   UNL     1      -8.728  19.217  67.117  1.00  0.00    -0.290 C  
HETATM    3  C   UNL     1      -9.167  19.268  68.583  1.00  0.00    -0.436 C  
ENDROOT
BRANCH   2   4
HETATM    4  N   UNL     1      -8.199  17.901  66.755  1.00  0.00    -0.241 NA 
HETATM    5  H   UNL     1      -7.963  17.364  67.589  1.00  0.00     0.000 HD 
BRANCH   4   6
HETATM    6  C   UNL     1      -9.093  17.134  65.877  1.00  0.00     0.008 C  
BRANCH   6   7
HETATM    7  C   UNL     1      -9.506  15.831  66.576  1.00  0.00    -0.272 C  
HETATM    8  O   UNL     1      -9.892  14.854  65.596  1.00  0.00    -0.328 OA 
HETATM    9  H   UNL     1     -10.147  14.048  66.029  1.00  0.00     0.000 HD 
BRANCH   7  10
HETATM   10  C   UNL     1      -8.375  15.270  67.445  1.00  0.00    -0.181 C  
BRANCH  10  11
HETATM   11  O   UNL     1      -8.824  15.094  68.800  1.00  0.00    -0.176 OA 
BRANCH  11  12
HETATM   12  C   UNL     1      -9.884  14.221  68.946  1.00  0.00    -0.137 A  
HETATM   13  C   UNL     1      -9.869  12.932  68.396  1.00  0.00    -0.197 A  
HETATM   14  C   UNL     1     -10.950  12.074  68.560  1.00  0.00    -0.280 A  
HETATM   15  C   UNL     1     -12.053  12.484  69.299  1.00  0.00    -0.214 A  
HETATM   16  C   UNL     1     -12.083  13.752  69.896  1.00  0.00    -0.412 A  
HETATM   17  C   UNL     1     -10.993  14.645  69.727  1.00  0.00    -0.232 A  
HETATM   18  C   UNL     1     -11.085  15.911  70.350  1.00  0.00    -0.382 A  
HETATM   19  C   UNL     1     -12.201  16.275  71.114  1.00  0.00     0.005 A  
HETATM   20  C   UNL     1     -13.255  15.381  71.275  1.00  0.00    -0.585 A  
HETATM   21  C   UNL     1     -13.196  14.130  70.665  1.00  0.00    -0.120 A  
ENDBRANCH  11  12
ENDBRANCH  10  11
ENDBRANCH   7  10
ENDBRANCH   6   7
ENDBRANCH   4   6
ENDBRANCH   2   4
TORSDOF 6
ENDMDL
MODEL      222
REMARK 921   NORMALIZED FREE ENERGY PREDICTED BY IDOCK:   -3.60 KCAL/MOL
REMARK 922        TOTAL FREE ENERGY PREDICTED BY IDOCK:   -5.55 KCAL/MOL
REMARK 923 INTER-LIGAND FREE ENERGY PREDICTED BY IDOCK:   -5.10 KCAL/MOL
REMARK 924 INTRA-LIGAND FREE ENERGY PREDICTED BY IDOCK:   -0.44 KCAL/MOL
REMARK 927      BINDING AFFINITY PREDICTED BY RF-SCORE:    0.00 PKD
ROOT
HETATM    1  C   UNL     1      -7.381   3.088  69.243  1.00  0.00    -0.045 C  
HETATM    2  C   UNL     1      -7.674   4.568  69.490  1.00  0.00    -0.055 C  
HETATM    3  C   UNL     1      -7.118   5.404  68.335  1.00  0.00    -0.062 C  
ENDROOT
BRANCH   2   4
HETATM    4  N   UNL     1      -9.123   4.729  69.627  1.00  0.00    -0.106 NA 
HETATM    5  H   UNL     1      -9.475   4.184  70.413  1.00  0.00     0.000 HD 
BRANCH   4   6
HETATM    6  C   UNL     1      -9.545   6.132  69.735  1.00  0.00    -0.150 C  
BRANCH   6   7
HETATM    7  C   UNL     1     -10.815   6.352  68.899  1.00  0.00    -0.325 C  
HETATM    8  O   UNL     1     -11.822   6.989  69.701  1.00  0.00    -0.573 OA 
HETATM    9  H   UNL     1     -12.607   7.125  69.184  1.00  0.00     0.000 HD 
BRANCH   7  10
HETATM   10  C   UNL     1     -10.534   7.200  67.654  1.00  0.00    -0.239 C  
BRANCH  10  11
HETATM   11  O   UNL     1     -10.037   8.496  68.032  1.00  0.00    -0.182 OA 
BRANCH  11  12
HETATM   12  C   UNL     1     -10.180   9.472  67.066  1.00  0.00    -0.255 A  
HETATM   13  C   UNL     1      -9.775   9.272  65.739  1.00  0.00    -0.339 A  
HETATM   14  C   UNL     1      -9.932  10.272  64.787  1.00  0.00    -0.392 A  
HETATM   15  C   UNL     1     -10.521  11.479  65.143  1.00  0.00    -0.340 A  
HETATM   16  C   UNL     1     -10.974  11.697  66.451  1.00  0.00    -0.345 A  
HETATM   17  C   UNL     1     -10.809  10.690  67.438  1.00  0.00    -0.353 A  
HETATM   18  C   UNL     1     -11.282  10.972  68.741  1.00  0.00    -0.327 A  
HETATM   19  C   UNL     1     -11.900  12.189  69.051  1.00  0.00    -0.361 A  
HETATM   20  C   UNL     1     -12.060  13.159  68.066  1.00  0.00    -0.240 A  
HETATM   21  C   UNL     1     -11.595  12.914  66.777  1.00  0.00    -0.416 A  
ENDBRANCH  11  12
ENDBRANCH  10  11
ENDBRANCH   7  10
ENDBRANCH   6   7
ENDBRANCH   4   6
ENDBRANCH   2   4
TORSDOF 6
ENDMDL
MODEL      223
REMARK 921   NORMALIZED FREE ENERGY PREDICTED BY IDOCK:   -3.60 KCAL/MOL
REMARK 922        TOTAL FREE ENERGY PREDICTED BY IDOCK:   -5.54 KCAL/MOL
REMARK 923 INTER-LIGAND FREE ENERGY PREDICTED BY IDOCK:   -4.70 KCAL/MOL
REMARK 924 INTRA-LIGAND FREE ENERGY PREDICTED BY IDOCK:   -0.84 KCAL/MOL
REMARK 927      BINDING AFFINITY PREDICTED BY RF-SCORE:    0.00 PKD
ROOT
HETATM    1  C   UNL     1     -10.389   8.396  68.534  1.00  0.00    -0.232 C  
HETATM    2  C   UNL     1     -10.255   9.764  69.204  1.00  0.00    -0.199 C  
HETATM    3  C   UNL     1     -10.755   9.682  70.648  1.00  0.00    -0.388 C  
ENDROOT
BRANCH   2   4
HETATM    4  N   UNL     1      -8.849  10.168  69.138  1.00  0.00    -0.164 NA 
HETATM    5  H   UNL     1      -8.461  10.277  70.075  1.00  0.00     0.000 HD 
BRANCH   4   6
HETATM    6  C   UNL     1      -8.020   9.262  68.332  1.00  0.00    -0.102 C  
BRANCH   6   7
HETATM    7  C   UNL     1      -7.248  10.072  67.280  1.00  0.00    -0.086 C  
HETATM    8  O   UNL     1      -6.414   9.196  66.506  1.00  0.00    -0.065 OA 
HETATM    9  H   UNL     1      -5.937   9.697  65.856  1.00  0.00     0.000 HD 
BRANCH   7  10
HETATM   10  C   UNL     1      -8.193  10.840  66.350  1.00  0.00    -0.155 C  
BRANCH  10  11
HETATM   11  O   UNL     1      -8.351  12.195  66.803  1.00  0.00    -0.175 OA 
BRANCH  11  12
HETATM   12  C   UNL     1      -9.624  12.708  66.653  1.00  0.00    -0.249 A  
HETATM   13  C   UNL     1     -10.535  12.181  65.728  1.00  0.00    -0.287 A  
HETATM   14  C   UNL     1     -11.811  12.717  65.599  1.00  0.00    -0.472 A  
HETATM   15  C   UNL     1     -12.203  13.773  66.412  1.00  0.00    -0.480 A  
HETATM   16  C   UNL     1     -11.331  14.298  67.375  1.00  0.00    -0.349 A  
HETATM   17  C   UNL     1     -10.020  13.770  67.510  1.00  0.00    -0.233 A  
HETATM   18  C   UNL     1      -9.185  14.345  68.497  1.00  0.00    -0.198 A  
HETATM   19  C   UNL     1      -9.629  15.387  69.319  1.00  0.00    -0.268 A  
HETATM   20  C   UNL     1     -10.921  15.884  69.176  1.00  0.00    -0.284 A  
HETATM   21  C   UNL     1     -11.763  15.344  68.207  1.00  0.00    -0.313 A  
ENDBRANCH  11  12
ENDBRANCH  10  11
ENDBRANCH   7  10
ENDBRANCH   6   7
ENDBRANCH   4   6
ENDBRANCH   2   4
TORSDOF 6
ENDMDL
MODEL      224
REMARK 921   NORMALIZED FREE ENERGY PREDICTED BY IDOCK:   -3.60 KCAL/MOL
REMARK 922        TOTAL FREE ENERGY PREDICTED BY IDOCK:   -5.53 KCAL/MOL
REMARK 923 INTER-LIGAND FREE ENERGY PREDICTED BY IDOCK:   -5.13 KCAL/MOL
REMARK 924 INTRA-LIGAND FREE ENERGY PREDICTED BY IDOCK:   -0.41 KCAL/MOL
REMARK 927      BINDING AFFINITY PREDICTED BY RF-SCORE:    0.00 PKD
ROOT
HETATM    1  C   UNL     1     -11.982  14.226  66.973  1.00  0.00    -0.463 C  
HETATM    2  C   UNL     1     -12.630  13.902  65.627  1.00  0.00    -0.517 C  
HETATM    3  C   UNL     1     -12.105  14.861  64.556  1.00  0.00    -0.420 C  
ENDROOT
BRANCH   2   4
HETATM    4  N   UNL     1     -12.327  12.507  65.300  1.00  0.00    -0.612 NA 
HETATM    5  H   UNL     1     -13.000  11.878  65.739  1.00  0.00     0.000 HD 
BRANCH   4   6
HETATM    6  C   UNL     1     -12.240  12.252  63.856  1.00  0.00    -0.515 C  
BRANCH   6   7
HETATM    7  C   UNL     1     -10.877  11.628  63.525  1.00  0.00    -0.425 C  
HETATM    8  O   UNL     1      -9.906  12.665  63.313  1.00  0.00    -0.584 OA 
HETATM    9  H   UNL     1      -9.062  12.279  63.109  1.00  0.00     0.000 HD 
BRANCH   7  10
HETATM   10  C   UNL     1     -10.397  10.691  64.638  1.00  0.00    -0.283 C  
BRANCH  10  11
HETATM   11  O   UNL     1      -8.973  10.508  64.560  1.00  0.00    -0.189 OA 
BRANCH  11  12
HETATM   12  C   UNL     1      -8.350  10.303  65.775  1.00  0.00    -0.152 A  
HETATM   13  C   UNL     1      -8.050  11.360  66.645  1.00  0.00    -0.155 A  
HETATM   14  C   UNL     1      -7.423  11.125  67.863  1.00  0.00    -0.094 A  
HETATM   15  C   UNL     1      -7.110   9.825  68.240  1.00  0.00    -0.077 A  
HETATM   16  C   UNL     1      -7.433   8.742  67.412  1.00  0.00    -0.089 A  
HETATM   17  C   UNL     1      -8.061   8.966  66.159  1.00  0.00    -0.114 A  
HETATM   18  C   UNL     1      -8.356   7.833  65.366  1.00  0.00    -0.141 A  
HETATM   19  C   UNL     1      -8.055   6.535  65.797  1.00  0.00    -0.128 A  
HETATM   20  C   UNL     1      -7.446   6.337  67.033  1.00  0.00    -0.084 A  
HETATM   21  C   UNL     1      -7.135   7.435  67.831  1.00  0.00    -0.085 A  
ENDBRANCH  11  12
ENDBRANCH  10  11
ENDBRANCH   7  10
ENDBRANCH   6   7
ENDBRANCH   4   6
ENDBRANCH   2   4
TORSDOF 6
ENDMDL
MODEL      225
REMARK 921   NORMALIZED FREE ENERGY PREDICTED BY IDOCK:   -3.59 KCAL/MOL
REMARK 922        TOTAL FREE ENERGY PREDICTED BY IDOCK:   -5.53 KCAL/MOL
REMARK 923 INTER-LIGAND FREE ENERGY PREDICTED BY IDOCK:   -4.69 KCAL/MOL
REMARK 924 INTRA-LIGAND FREE ENERGY PREDICTED BY IDOCK:   -0.85 KCAL/MOL
REMARK 927      BINDING AFFINITY PREDICTED BY RF-SCORE:    0.00 PKD
ROOT
HETATM    1  C   UNL     1     -11.102   6.975  67.367  1.00  0.00    -0.265 C  
HETATM    2  C   UNL     1      -9.847   6.280  66.839  1.00  0.00    -0.156 C  
HETATM    3  C   UNL     1     -10.245   5.138  65.900  1.00  0.00    -0.157 C  
ENDROOT
BRANCH   2   4
HETATM    4  N   UNL     1      -9.025   7.281  66.156  1.00  0.00    -0.220 NA 
HETATM    5  H   UNL     1      -9.552   8.142  66.009  1.00  0.00     0.000 HD 
BRANCH   4   6
HETATM    6  C   UNL     1      -7.754   7.557  66.839  1.00  0.00    -0.110 C  
BRANCH   6   7
HETATM    7  C   UNL     1      -7.392   9.040  66.672  1.00  0.00    -0.086 C  
HETATM    8  O   UNL     1      -7.085   9.314  65.296  1.00  0.00    -0.086 OA 
HETATM    9  H   UNL     1      -6.861  10.231  65.192  1.00  0.00     0.000 HD 
BRANCH   7  10
HETATM   10  C   UNL     1      -8.527   9.957  67.140  1.00  0.00    -0.121 C  
BRANCH  10  11
HETATM   11  O   UNL     1      -8.797   9.748  68.537  1.00  0.00    -0.118 OA 
BRANCH  11  12
HETATM   12  C   UNL     1      -9.980  10.301  68.984  1.00  0.00    -0.213 A  
HETATM   13  C   UNL     1     -10.605  11.364  68.318  1.00  0.00    -0.224 A  
HETATM   14  C   UNL     1     -11.797  11.899  68.791  1.00  0.00    -0.371 A  
HETATM   15  C   UNL     1     -12.396  11.362  69.923  1.00  0.00    -0.280 A  
HETATM   16  C   UNL     1     -11.819  10.273  70.589  1.00  0.00    -0.439 A  
HETATM   17  C   UNL     1     -10.595   9.722  70.127  1.00  0.00    -0.337 A  
HETATM   18  C   UNL     1     -10.060   8.627  70.845  1.00  0.00    -0.262 A  
HETATM   19  C   UNL     1     -10.712   8.093  71.963  1.00  0.00    -0.343 A  
HETATM   20  C   UNL     1     -11.916   8.642  72.394  1.00  0.00    -0.410 A  
HETATM   21  C   UNL     1     -12.461   9.727  71.713  1.00  0.00    -0.485 A  
ENDBRANCH  11  12
ENDBRANCH  10  11
ENDBRANCH   7  10
ENDBRANCH   6   7
ENDBRANCH   4   6
ENDBRANCH   2   4
TORSDOF 6
ENDMDL
MODEL      226
REMARK 921   NORMALIZED FREE ENERGY PREDICTED BY IDOCK:   -3.59 KCAL/MOL
REMARK 922        TOTAL FREE ENERGY PREDICTED BY IDOCK:   -5.52 KCAL/MOL
REMARK 923 INTER-LIGAND FREE ENERGY PREDICTED BY IDOCK:   -4.90 KCAL/MOL
REMARK 924 INTRA-LIGAND FREE ENERGY PREDICTED BY IDOCK:   -0.62 KCAL/MOL
REMARK 927      BINDING AFFINITY PREDICTED BY RF-SCORE:    0.00 PKD
ROOT
HETATM    1  C   UNL     1     -10.765  16.465  65.622  1.00  0.00    -0.280 C  
HETATM    2  C   UNL     1     -10.331  15.255  66.450  1.00  0.00    -0.289 C  
HETATM    3  C   UNL     1      -9.963  14.097  65.519  1.00  0.00    -0.323 C  
ENDROOT
BRANCH   2   4
HETATM    4  N   UNL     1      -9.199  15.658  67.287  1.00  0.00    -0.201 NA 
HETATM    5  H   UNL     1      -9.523  16.028  68.181  1.00  0.00     0.000 HD 
BRANCH   4   6
HETATM    6  C   UNL     1      -8.215  14.586  67.493  1.00  0.00    -0.187 C  
BRANCH   6   7
HETATM    7  C   UNL     1      -7.191  15.025  68.549  1.00  0.00    -0.115 C  
HETATM    8  O   UNL     1      -6.538  13.872  69.103  1.00  0.00    -0.101 OA 
HETATM    9  H   UNL     1      -5.905  14.143  69.757  1.00  0.00     0.000 HD 
BRANCH   7  10
HETATM   10  C   UNL     1      -6.144  15.978  67.963  1.00  0.00    -0.128 C  
BRANCH  10  11
HETATM   11  O   UNL     1      -6.228  17.266  68.596  1.00  0.00    -0.158 OA 
BRANCH  11  12
HETATM   12  C   UNL     1      -6.524  18.310  67.743  1.00  0.00    -0.193 A  
HETATM   13  C   UNL     1      -5.602  18.787  66.801  1.00  0.00    -0.164 A  
HETATM   14  C   UNL     1      -5.927  19.839  65.954  1.00  0.00    -0.186 A  
HETATM   15  C   UNL     1      -7.191  20.413  66.018  1.00  0.00    -0.225 A  
HETATM   16  C   UNL     1      -8.150  19.934  66.920  1.00  0.00    -0.346 A  
HETATM   17  C   UNL     1      -7.829  18.869  67.802  1.00  0.00    -0.267 A  
HETATM   18  C   UNL     1      -8.838  18.434  68.692  1.00  0.00    -0.306 A  
HETATM   19  C   UNL     1     -10.110  19.018  68.703  1.00  0.00    -0.449 A  
HETATM   20  C   UNL     1     -10.407  20.055  67.825  1.00  0.00    -0.506 A  
HETATM   21  C   UNL     1      -9.430  20.511  66.943  1.00  0.00    -0.475 A  
ENDBRANCH  11  12
ENDBRANCH  10  11
ENDBRANCH   7  10
ENDBRANCH   6   7
ENDBRANCH   4   6
ENDBRANCH   2   4
TORSDOF 6
ENDMDL
MODEL      227
REMARK 921   NORMALIZED FREE ENERGY PREDICTED BY IDOCK:   -3.57 KCAL/MOL
REMARK 922        TOTAL FREE ENERGY PREDICTED BY IDOCK:   -5.50 KCAL/MOL
REMARK 923 INTER-LIGAND FREE ENERGY PREDICTED BY IDOCK:   -4.76 KCAL/MOL
REMARK 924 INTRA-LIGAND FREE ENERGY PREDICTED BY IDOCK:   -0.75 KCAL/MOL
REMARK 927      BINDING AFFINITY PREDICTED BY RF-SCORE:    0.00 PKD
ROOT
HETATM    1  C   UNL     1     -10.194  11.889  67.298  1.00  0.00    -0.220 C  
HETATM    2  C   UNL     1      -9.467  10.638  66.805  1.00  0.00    -0.162 C  
HETATM    3  C   UNL     1      -9.577  10.544  65.281  1.00  0.00    -0.303 C  
ENDROOT
BRANCH   2   4
HETATM    4  N   UNL     1      -8.072  10.720  67.243  1.00  0.00    -0.116 NA 
HETATM    5  H   UNL     1      -7.486  11.121  66.512  1.00  0.00     0.000 HD 
BRANCH   4   6
HETATM    6  C   UNL     1      -7.900  11.448  68.507  1.00  0.00    -0.140 C  
BRANCH   6   7
HETATM    7  C   UNL     1      -6.925  10.682  69.413  1.00  0.00    -0.106 C  
HETATM    8  O   UNL     1      -6.573  11.492  70.545  1.00  0.00    -0.513 OA 
HETATM    9  H   UNL     1      -5.970  11.019  71.105  1.00  0.00     0.000 HD 
BRANCH   7  10
HETATM   10  C   UNL     1      -7.521   9.355  69.894  1.00  0.00    -0.100 C  
BRANCH  10  11
HETATM   11  O   UNL     1      -8.933   9.494  70.128  1.00  0.00    -0.203 OA 
BRANCH  11  12
HETATM   12  C   UNL     1      -9.667   8.343  69.927  1.00  0.00    -0.179 A  
HETATM   13  C   UNL     1      -9.969   7.867  68.644  1.00  0.00    -0.201 A  
HETATM   14  C   UNL     1     -10.710   6.704  68.471  1.00  0.00    -0.308 A  
HETATM   15  C   UNL     1     -11.138   5.985  69.581  1.00  0.00    -0.474 A  
HETATM   16  C   UNL     1     -10.818   6.411  70.877  1.00  0.00    -0.316 A  
HETATM   17  C   UNL     1     -10.074   7.604  71.070  1.00  0.00    -0.196 A  
HETATM   18  C   UNL     1      -9.787   7.984  72.402  1.00  0.00    -0.313 A  
HETATM   19  C   UNL     1     -10.209   7.214  73.493  1.00  0.00    -0.394 A  
HETATM   20  C   UNL     1     -10.930   6.043  73.280  1.00  0.00    -0.244 A  
HETATM   21  C   UNL     1     -11.235   5.649  71.980  1.00  0.00    -0.271 A  
ENDBRANCH  11  12
ENDBRANCH  10  11
ENDBRANCH   7  10
ENDBRANCH   6   7
ENDBRANCH   4   6
ENDBRANCH   2   4
TORSDOF 6
ENDMDL
MODEL      228
REMARK 921   NORMALIZED FREE ENERGY PREDICTED BY IDOCK:   -3.57 KCAL/MOL
REMARK 922        TOTAL FREE ENERGY PREDICTED BY IDOCK:   -5.50 KCAL/MOL
REMARK 923 INTER-LIGAND FREE ENERGY PREDICTED BY IDOCK:   -5.24 KCAL/MOL
REMARK 924 INTRA-LIGAND FREE ENERGY PREDICTED BY IDOCK:   -0.26 KCAL/MOL
REMARK 927      BINDING AFFINITY PREDICTED BY RF-SCORE:    0.00 PKD
ROOT
HETATM    1  C   UNL     1     -10.693  17.272  65.430  1.00  0.00    -0.074 C  
HETATM    2  C   UNL     1     -10.265  18.000  66.705  1.00  0.00    -0.373 C  
HETATM    3  C   UNL     1     -10.765  19.447  66.665  1.00  0.00    -0.529 C  
ENDROOT
BRANCH   2   4
HETATM    4  N   UNL     1     -10.811  17.270  67.851  1.00  0.00    -0.344 NA 
HETATM    5  H   UNL     1     -11.783  17.010  67.685  1.00  0.00     0.000 HD 
BRANCH   4   6
HETATM    6  C   UNL     1     -10.013  16.094  68.225  1.00  0.00    -0.226 C  
BRANCH   6   7
HETATM    7  C   UNL     1     -10.925  14.861  68.311  1.00  0.00    -0.264 C  
HETATM    8  O   UNL     1     -11.966  14.957  67.326  1.00  0.00    -0.408 OA 
HETATM    9  H   UNL     1     -12.530  14.195  67.379  1.00  0.00     0.000 HD 
BRANCH   7  10
HETATM   10  C   UNL     1     -10.141  13.560  68.109  1.00  0.00    -0.250 C  
BRANCH  10  11
HETATM   11  O   UNL     1     -11.042  12.461  67.893  1.00  0.00    -0.214 OA 
BRANCH  11  12
HETATM   12  C   UNL     1     -10.450  11.214  67.933  1.00  0.00    -0.190 A  
HETATM   13  C   UNL     1      -9.602  10.760  66.914  1.00  0.00    -0.198 A  
HETATM   14  C   UNL     1      -9.019   9.500  66.981  1.00  0.00    -0.150 A  
HETATM   15  C   UNL     1      -9.255   8.686  68.081  1.00  0.00    -0.142 A  
HETATM   16  C   UNL     1     -10.065   9.125  69.136  1.00  0.00    -0.199 A  
HETATM   17  C   UNL     1     -10.679  10.404  69.078  1.00  0.00    -0.260 A  
HETATM   18  C   UNL     1     -11.490  10.789  70.171  1.00  0.00    -0.415 A  
HETATM   19  C   UNL     1     -11.677   9.951  71.278  1.00  0.00    -0.472 A  
HETATM   20  C   UNL     1     -11.058   8.705  71.319  1.00  0.00    -0.336 A  
HETATM   21  C   UNL     1     -10.263   8.296  70.253  1.00  0.00    -0.199 A  
ENDBRANCH  11  12
ENDBRANCH  10  11
ENDBRANCH   7  10
ENDBRANCH   6   7
ENDBRANCH   4   6
ENDBRANCH   2   4
TORSDOF 6
ENDMDL
MODEL      229
REMARK 921   NORMALIZED FREE ENERGY PREDICTED BY IDOCK:   -3.56 KCAL/MOL
REMARK 922        TOTAL FREE ENERGY PREDICTED BY IDOCK:   -5.49 KCAL/MOL
REMARK 923 INTER-LIGAND FREE ENERGY PREDICTED BY IDOCK:   -5.16 KCAL/MOL
REMARK 924 INTRA-LIGAND FREE ENERGY PREDICTED BY IDOCK:   -0.34 KCAL/MOL
REMARK 927      BINDING AFFINITY PREDICTED BY RF-SCORE:    0.00 PKD
ROOT
HETATM    1  C   UNL     1     -11.167  14.662  67.012  1.00  0.00    -0.348 C  
HETATM    2  C   UNL     1     -12.327  13.894  66.377  1.00  0.00    -0.426 C  
HETATM    3  C   UNL     1     -12.617  14.456  64.983  1.00  0.00    -0.309 C  
ENDROOT
BRANCH   2   4
HETATM    4  N   UNL     1     -11.961  12.477  66.325  1.00  0.00    -0.577 NA 
HETATM    5  H   UNL     1     -12.590  11.964  65.709  1.00  0.00     0.000 HD 
BRANCH   4   6
HETATM    6  C   UNL     1     -10.560  12.251  65.946  1.00  0.00    -0.256 C  
BRANCH   6   7
HETATM    7  C   UNL     1     -10.482  11.906  64.452  1.00  0.00    -0.311 C  
HETATM    8  O   UNL     1      -9.594  12.818  63.787  1.00  0.00    -0.650 OA 
HETATM    9  H   UNL     1      -9.546  12.605  62.862  1.00  0.00     0.000 HD 
BRANCH   7  10
HETATM   10  C   UNL     1     -10.006  10.467  64.226  1.00  0.00    -0.298 C  
BRANCH  10  11
HETATM   11  O   UNL     1      -9.115  10.062  65.279  1.00  0.00    -0.171 OA 
BRANCH  11  12
HETATM   12  C   UNL     1      -8.708   8.745  65.216  1.00  0.00    -0.182 A  
HETATM   13  C   UNL     1      -7.723   8.311  64.318  1.00  0.00    -0.134 A  
HETATM   14  C   UNL     1      -7.333   6.978  64.277  1.00  0.00    -0.089 A  
HETATM   15  C   UNL     1      -7.903   6.063  65.153  1.00  0.00    -0.109 A  
HETATM   16  C   UNL     1      -8.861   6.470  66.091  1.00  0.00    -0.160 A  
HETATM   17  C   UNL     1      -9.280   7.826  66.137  1.00  0.00    -0.182 A  
HETATM   18  C   UNL     1     -10.254   8.175  67.102  1.00  0.00    -0.366 A  
HETATM   19  C   UNL     1     -10.780   7.228  67.989  1.00  0.00    -0.209 A  
HETATM   20  C   UNL     1     -10.349   5.907  67.933  1.00  0.00    -0.262 A  
HETATM   21  C   UNL     1      -9.399   5.532  66.987  1.00  0.00    -0.118 A  
ENDBRANCH  11  12
ENDBRANCH  10  11
ENDBRANCH   7  10
ENDBRANCH   6   7
ENDBRANCH   4   6
ENDBRANCH   2   4
TORSDOF 6
ENDMDL
MODEL      230
REMARK 921   NORMALIZED FREE ENERGY PREDICTED BY IDOCK:   -3.56 KCAL/MOL
REMARK 922        TOTAL FREE ENERGY PREDICTED BY IDOCK:   -5.49 KCAL/MOL
REMARK 923 INTER-LIGAND FREE ENERGY PREDICTED BY IDOCK:   -5.16 KCAL/MOL
REMARK 924 INTRA-LIGAND FREE ENERGY PREDICTED BY IDOCK:   -0.33 KCAL/MOL
REMARK 927      BINDING AFFINITY PREDICTED BY RF-SCORE:    0.00 PKD
ROOT
HETATM    1  C   UNL     1      -6.670  19.182  65.867  1.00  0.00    -0.280 C  
HETATM    2  C   UNL     1      -5.983  19.938  67.005  1.00  0.00    -0.175 C  
HETATM    3  C   UNL     1      -6.744  21.234  67.296  1.00  0.00    -0.381 C  
ENDROOT
BRANCH   2   4
HETATM    4  N   UNL     1      -5.942  19.059  68.175  1.00  0.00    -0.207 NA 
HETATM    5  H   UNL     1      -5.941  19.605  69.037  1.00  0.00     0.000 HD 
BRANCH   4   6
HETATM    6  C   UNL     1      -7.018  18.059  68.192  1.00  0.00    -0.224 C  
BRANCH   6   7
HETATM    7  C   UNL     1      -6.413  16.652  68.088  1.00  0.00    -0.136 C  
HETATM    8  O   UNL     1      -6.213  16.109  69.403  1.00  0.00    -0.149 OA 
HETATM    9  H   UNL     1      -5.838  15.239  69.338  1.00  0.00     0.000 HD 
BRANCH   7  10
HETATM   10  C   UNL     1      -7.303  15.710  67.271  1.00  0.00    -0.220 C  
BRANCH  10  11
HETATM   11  O   UNL     1      -8.591  16.308  67.046  1.00  0.00    -0.176 OA 
BRANCH  11  12
HETATM   12  C   UNL     1      -9.631  15.408  66.925  1.00  0.00    -0.226 A  
HETATM   13  C   UNL     1      -9.915  14.754  65.719  1.00  0.00    -0.375 A  
HETATM   14  C   UNL     1     -10.967  13.852  65.626  1.00  0.00    -0.290 A  
HETATM   15  C   UNL     1     -11.738  13.570  66.747  1.00  0.00    -0.430 A  
HETATM   16  C   UNL     1     -11.456  14.175  67.980  1.00  0.00    -0.342 A  
HETATM   17  C   UNL     1     -10.392  15.109  68.088  1.00  0.00    -0.239 A  
HETATM   18  C   UNL     1     -10.161  15.690  69.357  1.00  0.00    -0.261 A  
HETATM   19  C   UNL     1     -10.940  15.354  70.471  1.00  0.00    -0.350 A  
HETATM   20  C   UNL     1     -11.972  14.430  70.345  1.00  0.00    -0.395 A  
HETATM   21  C   UNL     1     -12.229  13.849  69.106  1.00  0.00    -0.305 A  
ENDBRANCH  11  12
ENDBRANCH  10  11
ENDBRANCH   7  10
ENDBRANCH   6   7
ENDBRANCH   4   6
ENDBRANCH   2   4
TORSDOF 6
ENDMDL
MODEL      231
REMARK 921   NORMALIZED FREE ENERGY PREDICTED BY IDOCK:   -3.56 KCAL/MOL
REMARK 922        TOTAL FREE ENERGY PREDICTED BY IDOCK:   -5.48 KCAL/MOL
REMARK 923 INTER-LIGAND FREE ENERGY PREDICTED BY IDOCK:   -5.02 KCAL/MOL
REMARK 924 INTRA-LIGAND FREE ENERGY PREDICTED BY IDOCK:   -0.47 KCAL/MOL
REMARK 927      BINDING AFFINITY PREDICTED BY RF-SCORE:    0.00 PKD
ROOT
HETATM    1  C   UNL     1     -10.369  16.563  69.083  1.00  0.00    -0.316 C  
HETATM    2  C   UNL     1     -10.459  15.062  69.357  1.00  0.00    -0.247 C  
HETATM    3  C   UNL     1     -11.880  14.701  69.796  1.00  0.00    -0.366 C  
ENDROOT
BRANCH   2   4
HETATM    4  N   UNL     1     -10.073  14.352  68.135  1.00  0.00    -0.221 NA 
HETATM    5  H   UNL     1      -9.303  14.829  67.668  1.00  0.00     0.000 HD 
BRANCH   4   6
HETATM    6  C   UNL     1      -9.750  12.936  68.361  1.00  0.00    -0.186 C  
BRANCH   6   7
HETATM    7  C   UNL     1     -10.574  12.063  67.403  1.00  0.00    -0.223 C  
HETATM    8  O   UNL     1     -11.072  12.864  66.320  1.00  0.00    -0.277 OA 
HETATM    9  H   UNL     1     -11.582  12.324  65.728  1.00  0.00     0.000 HD 
BRANCH   7  10
HETATM   10  C   UNL     1      -9.750  10.898  66.846  1.00  0.00    -0.181 C  
BRANCH  10  11
HETATM   11  O   UNL     1      -9.259  10.074  67.918  1.00  0.00    -0.137 OA 
BRANCH  11  12
HETATM   12  C   UNL     1      -9.704   8.768  67.891  1.00  0.00    -0.157 A  
HETATM   13  C   UNL     1      -9.470   7.923  66.797  1.00  0.00    -0.257 A  
HETATM   14  C   UNL     1      -9.929   6.612  66.798  1.00  0.00    -0.238 A  
HETATM   15  C   UNL     1     -10.607   6.117  67.905  1.00  0.00    -0.331 A  
HETATM   16  C   UNL     1     -10.823   6.922  69.031  1.00  0.00    -0.247 A  
HETATM   17  C   UNL     1     -10.372   8.268  69.041  1.00  0.00    -0.233 A  
HETATM   18  C   UNL     1     -10.624   9.031  70.205  1.00  0.00    -0.250 A  
HETATM   19  C   UNL     1     -11.282   8.485  71.313  1.00  0.00    -0.321 A  
HETATM   20  C   UNL     1     -11.709   7.161  71.286  1.00  0.00    -0.342 A  
HETATM   21  C   UNL     1     -11.483   6.388  70.150  1.00  0.00    -0.484 A  
ENDBRANCH  11  12
ENDBRANCH  10  11
ENDBRANCH   7  10
ENDBRANCH   6   7
ENDBRANCH   4   6
ENDBRANCH   2   4
TORSDOF 6
ENDMDL
MODEL      232
REMARK 921   NORMALIZED FREE ENERGY PREDICTED BY IDOCK:   -3.54 KCAL/MOL
REMARK 922        TOTAL FREE ENERGY PREDICTED BY IDOCK:   -5.46 KCAL/MOL
REMARK 923 INTER-LIGAND FREE ENERGY PREDICTED BY IDOCK:   -5.21 KCAL/MOL
REMARK 924 INTRA-LIGAND FREE ENERGY PREDICTED BY IDOCK:   -0.26 KCAL/MOL
REMARK 927      BINDING AFFINITY PREDICTED BY RF-SCORE:    0.00 PKD
ROOT
HETATM    1  C   UNL     1      -5.226  10.906  67.747  1.00  0.00    -0.039 C  
HETATM    2  C   UNL     1      -5.231  10.523  66.267  1.00  0.00    -0.063 C  
HETATM    3  C   UNL     1      -5.149   9.001  66.128  1.00  0.00    -0.032 C  
ENDROOT
BRANCH   2   4
HETATM    4  N   UNL     1      -6.453  11.057  65.662  1.00  0.00    -0.365 NA 
HETATM    5  H   UNL     1      -6.291  11.988  65.280  1.00  0.00     0.000 HD 
BRANCH   4   6
HETATM    6  C   UNL     1      -7.036  10.170  64.646  1.00  0.00    -0.124 C  
BRANCH   6   7
HETATM    7  C   UNL     1      -8.471   9.800  65.049  1.00  0.00    -0.153 C  
HETATM    8  O   UNL     1      -8.662  10.050  66.450  1.00  0.00    -0.128 OA 
HETATM    9  H   UNL     1      -9.550   9.821  66.700  1.00  0.00     0.000 HD 
BRANCH   7  10
HETATM   10  C   UNL     1      -9.509  10.584  64.239  1.00  0.00    -0.285 C  
BRANCH  10  11
HETATM   11  O   UNL     1     -10.770  10.606  64.927  1.00  0.00    -0.217 OA 
BRANCH  11  12
HETATM   12  C   UNL     1     -11.259  11.869  65.195  1.00  0.00    -0.289 A  
HETATM   13  C   UNL     1     -11.651  12.748  64.177  1.00  0.00    -0.456 A  
HETATM   14  C   UNL     1     -12.140  14.013  64.476  1.00  0.00    -0.484 A  
HETATM   15  C   UNL     1     -12.270  14.410  65.801  1.00  0.00    -0.353 A  
HETATM   16  C   UNL     1     -11.925  13.541  66.845  1.00  0.00    -0.447 A  
HETATM   17  C   UNL     1     -11.411  12.249  66.556  1.00  0.00    -0.438 A  
HETATM   18  C   UNL     1     -11.077  11.420  67.652  1.00  0.00    -0.325 A  
HETATM   19  C   UNL     1     -11.253  11.845  68.975  1.00  0.00    -0.316 A  
HETATM   20  C   UNL     1     -11.767  13.111  69.236  1.00  0.00    -0.376 A  
HETATM   21  C   UNL     1     -12.096  13.953  68.177  1.00  0.00    -0.317 A  
ENDBRANCH  11  12
ENDBRANCH  10  11
ENDBRANCH   7  10
ENDBRANCH   6   7
ENDBRANCH   4   6
ENDBRANCH   2   4
TORSDOF 6
ENDMDL
MODEL      233
REMARK 921   NORMALIZED FREE ENERGY PREDICTED BY IDOCK:   -3.54 KCAL/MOL
REMARK 922        TOTAL FREE ENERGY PREDICTED BY IDOCK:   -5.46 KCAL/MOL
REMARK 923 INTER-LIGAND FREE ENERGY PREDICTED BY IDOCK:   -5.37 KCAL/MOL
REMARK 924 INTRA-LIGAND FREE ENERGY PREDICTED BY IDOCK:   -0.08 KCAL/MOL
REMARK 927      BINDING AFFINITY PREDICTED BY RF-SCORE:    0.00 PKD
ROOT
HETATM    1  C   UNL     1      -8.468   9.412  63.800  1.00  0.00    -0.200 C  
HETATM    2  C   UNL     1      -8.667  10.545  64.807  1.00  0.00    -0.185 C  
HETATM    3  C   UNL     1      -9.928  11.336  64.450  1.00  0.00    -0.338 C  
ENDROOT
BRANCH   2   4
HETATM    4  N   UNL     1      -8.756   9.956  66.144  1.00  0.00    -0.134 NA 
HETATM    5  H   UNL     1      -9.213  10.598  66.792  1.00  0.00     0.000 HD 
BRANCH   4   6
HETATM    6  C   UNL     1      -9.415   8.643  66.160  1.00  0.00    -0.240 C  
BRANCH   6   7
HETATM    7  C   UNL     1     -10.437   8.595  67.306  1.00  0.00    -0.289 C  
HETATM    8  O   UNL     1     -11.382   7.540  67.071  1.00  0.00    -0.327 OA 
HETATM    9  H   UNL     1     -12.014   7.510  67.779  1.00  0.00     0.000 HD 
BRANCH   7  10
HETATM   10  C   UNL     1      -9.758   8.387  68.664  1.00  0.00    -0.164 C  
BRANCH  10  11
HETATM   11  O   UNL     1      -9.387   9.651  69.238  1.00  0.00    -0.161 OA 
BRANCH  11  12
HETATM   12  C   UNL     1     -10.449  10.476  69.551  1.00  0.00    -0.235 A  
HETATM   13  C   UNL     1     -10.616  11.734  68.956  1.00  0.00    -0.172 A  
HETATM   14  C   UNL     1     -11.695  12.543  69.290  1.00  0.00    -0.379 A  
HETATM   15  C   UNL     1     -12.639  12.094  70.206  1.00  0.00    -0.040 A  
HETATM   16  C   UNL     1     -12.524  10.825  70.788  1.00  0.00    -0.481 A  
HETATM   17  C   UNL     1     -11.420   9.992  70.468  1.00  0.00    -0.407 A  
HETATM   18  C   UNL     1     -11.357   8.724  71.093  1.00  0.00    -0.345 A  
HETATM   19  C   UNL     1     -12.347   8.295  71.986  1.00  0.00    -0.395 A  
HETATM   20  C   UNL     1     -13.425   9.124  72.279  1.00  0.00    -0.546 A  
HETATM   21  C   UNL     1     -13.509  10.381  71.687  1.00  0.00    -0.335 A  
ENDBRANCH  11  12
ENDBRANCH  10  11
ENDBRANCH   7  10
ENDBRANCH   6   7
ENDBRANCH   4   6
ENDBRANCH   2   4
TORSDOF 6
ENDMDL
MODEL      234
REMARK 921   NORMALIZED FREE ENERGY PREDICTED BY IDOCK:   -3.53 KCAL/MOL
REMARK 922        TOTAL FREE ENERGY PREDICTED BY IDOCK:   -5.44 KCAL/MOL
REMARK 923 INTER-LIGAND FREE ENERGY PREDICTED BY IDOCK:   -4.89 KCAL/MOL
REMARK 924 INTRA-LIGAND FREE ENERGY PREDICTED BY IDOCK:   -0.55 KCAL/MOL
REMARK 927      BINDING AFFINITY PREDICTED BY RF-SCORE:    0.00 PKD
ROOT
HETATM    1  C   UNL     1     -10.983   6.307  67.092  1.00  0.00    -0.453 C  
HETATM    2  C   UNL     1      -9.677   5.829  66.458  1.00  0.00    -0.159 C  
HETATM    3  C   UNL     1      -9.873   4.433  65.863  1.00  0.00    -0.237 C  
ENDROOT
BRANCH   2   4
HETATM    4  N   UNL     1      -9.282   6.803  65.439  1.00  0.00    -0.295 NA 
HETATM    5  H   UNL     1     -10.044   7.451  65.242  1.00  0.00     0.000 HD 
BRANCH   4   6
HETATM    6  C   UNL     1      -8.051   7.533  65.775  1.00  0.00    -0.127 C  
BRANCH   6   7
HETATM    7  C   UNL     1      -8.374   9.021  65.971  1.00  0.00    -0.123 C  
HETATM    8  O   UNL     1      -9.463   9.400  65.113  1.00  0.00    -0.363 OA 
HETATM    9  H   UNL     1      -9.662  10.321  65.235  1.00  0.00     0.000 HD 
BRANCH   7  10
HETATM   10  C   UNL     1      -8.731   9.337  67.427  1.00  0.00    -0.118 C  
BRANCH  10  11
HETATM   11  O   UNL     1      -8.546  10.738  67.695  1.00  0.00    -0.122 OA 
BRANCH  11  12
HETATM   12  C   UNL     1      -9.668  11.387  68.170  1.00  0.00    -0.192 A  
HETATM   13  C   UNL     1     -10.422  10.885  69.239  1.00  0.00    -0.230 A  
HETATM   14  C   UNL     1     -11.547  11.560  69.697  1.00  0.00    -0.403 A  
HETATM   15  C   UNL     1     -11.919  12.762  69.109  1.00  0.00    -0.296 A  
HETATM   16  C   UNL     1     -11.164  13.313  68.065  1.00  0.00    -0.307 A  
HETATM   17  C   UNL     1     -10.020  12.629  67.577  1.00  0.00    -0.205 A  
HETATM   18  C   UNL     1      -9.302  13.233  66.518  1.00  0.00    -0.221 A  
HETATM   19  C   UNL     1      -9.691  14.463  65.974  1.00  0.00    -0.320 A  
HETATM   20  C   UNL     1     -10.811  15.121  66.474  1.00  0.00    -0.317 A  
HETATM   21  C   UNL     1     -11.543  14.546  67.509  1.00  0.00    -0.403 A  
ENDBRANCH  11  12
ENDBRANCH  10  11
ENDBRANCH   7  10
ENDBRANCH   6   7
ENDBRANCH   4   6
ENDBRANCH   2   4
TORSDOF 6
ENDMDL
MODEL      235
REMARK 921   NORMALIZED FREE ENERGY PREDICTED BY IDOCK:   -3.52 KCAL/MOL
REMARK 922        TOTAL FREE ENERGY PREDICTED BY IDOCK:   -5.43 KCAL/MOL
REMARK 923 INTER-LIGAND FREE ENERGY PREDICTED BY IDOCK:   -4.84 KCAL/MOL
REMARK 924 INTRA-LIGAND FREE ENERGY PREDICTED BY IDOCK:   -0.59 KCAL/MOL
REMARK 927      BINDING AFFINITY PREDICTED BY RF-SCORE:    0.00 PKD
ROOT
HETATM    1  C   UNL     1      -5.540  11.580  66.874  1.00  0.00    -0.129 C  
HETATM    2  C   UNL     1      -5.515  10.431  65.865  1.00  0.00    -0.086 C  
HETATM    3  C   UNL     1      -6.047   9.156  66.522  1.00  0.00    -0.064 C  
ENDROOT
BRANCH   2   4
HETATM    4  N   UNL     1      -6.324  10.823  64.709  1.00  0.00    -0.373 NA 
HETATM    5  H   UNL     1      -5.816  11.480  64.118  1.00  0.00     0.000 HD 
BRANCH   4   6
HETATM    6  C   UNL     1      -6.809   9.680  63.923  1.00  0.00    -0.113 C  
BRANCH   6   7
HETATM    7  C   UNL     1      -8.305   9.858  63.627  1.00  0.00    -0.164 C  
HETATM    8  O   UNL     1      -8.994   8.615  63.841  1.00  0.00    -0.401 OA 
HETATM    9  H   UNL     1      -9.919   8.725  63.658  1.00  0.00     0.000 HD 
BRANCH   7  10
HETATM   10  C   UNL     1      -8.931  10.950  64.501  1.00  0.00    -0.116 C  
BRANCH  10  11
HETATM   11  O   UNL     1     -10.273  10.590  64.870  1.00  0.00    -0.328 OA 
BRANCH  11  12
HETATM   12  C   UNL     1     -10.545  10.689  66.219  1.00  0.00    -0.161 A  
HETATM   13  C   UNL     1     -10.230   9.662  67.120  1.00  0.00    -0.305 A  
HETATM   14  C   UNL     1     -10.515   9.789  68.474  1.00  0.00    -0.239 A  
HETATM   15  C   UNL     1     -11.097  10.956  68.952  1.00  0.00    -0.307 A  
HETATM   16  C   UNL     1     -11.388  12.018  68.086  1.00  0.00    -0.349 A  
HETATM   17  C   UNL     1     -11.115  11.899  66.697  1.00  0.00    -0.360 A  
HETATM   18  C   UNL     1     -11.437  13.003  65.873  1.00  0.00    -0.374 A  
HETATM   19  C   UNL     1     -11.992  14.176  66.400  1.00  0.00    -0.457 A  
HETATM   20  C   UNL     1     -12.244  14.274  67.765  1.00  0.00    -0.199 A  
HETATM   21  C   UNL     1     -11.947  13.200  68.599  1.00  0.00    -0.319 A  
ENDBRANCH  11  12
ENDBRANCH  10  11
ENDBRANCH   7  10
ENDBRANCH   6   7
ENDBRANCH   4   6
ENDBRANCH   2   4
TORSDOF 6
ENDMDL
MODEL      236
REMARK 921   NORMALIZED FREE ENERGY PREDICTED BY IDOCK:   -3.51 KCAL/MOL
REMARK 922        TOTAL FREE ENERGY PREDICTED BY IDOCK:   -5.42 KCAL/MOL
REMARK 923 INTER-LIGAND FREE ENERGY PREDICTED BY IDOCK:   -4.78 KCAL/MOL
REMARK 924 INTRA-LIGAND FREE ENERGY PREDICTED BY IDOCK:   -0.64 KCAL/MOL
REMARK 927      BINDING AFFINITY PREDICTED BY RF-SCORE:    0.00 PKD
ROOT
HETATM    1  C   UNL     1     -10.966  10.630  67.402  1.00  0.00    -0.361 C  
HETATM    2  C   UNL     1     -10.968  10.710  68.929  1.00  0.00    -0.249 C  
HETATM    3  C   UNL     1     -12.109  11.616  69.396  1.00  0.00    -0.328 C  
ENDROOT
BRANCH   2   4
HETATM    4  N   UNL     1     -11.104   9.351  69.457  1.00  0.00    -0.404 NA 
HETATM    5  H   UNL     1     -10.358   8.750  69.106  1.00  0.00     0.000 HD 
BRANCH   4   6
HETATM    6  C   UNL     1     -11.169   9.299  70.923  1.00  0.00    -0.306 C  
BRANCH   6   7
HETATM    7  C   UNL     1      -9.833   8.784  71.479  1.00  0.00    -0.301 C  
HETATM    8  O   UNL     1      -9.981   8.449  72.868  1.00  0.00    -0.262 OA 
HETATM    9  H   UNL     1      -9.154   8.131  73.211  1.00  0.00     0.000 HD 
BRANCH   7  10
HETATM   10  C   UNL     1      -9.330   7.562  70.704  1.00  0.00    -0.163 C  
BRANCH  10  11
HETATM   11  O   UNL     1     -10.419   6.670  70.412  1.00  0.00    -0.201 OA 
BRANCH  11  12
HETATM   12  C   UNL     1     -10.043   5.368  70.148  1.00  0.00    -0.252 A  
HETATM   13  C   UNL     1      -9.522   4.981  68.905  1.00  0.00    -0.195 A  
HETATM   14  C   UNL     1      -9.151   3.663  68.667  1.00  0.00    -0.199 A  
HETATM   15  C   UNL     1      -9.270   2.717  69.678  1.00  0.00    -0.206 A  
HETATM   16  C   UNL     1      -9.748   3.079  70.944  1.00  0.00    -0.155 A  
HETATM   17  C   UNL     1     -10.144   4.418  71.200  1.00  0.00    -0.196 A  
HETATM   18  C   UNL     1     -10.624   4.720  72.496  1.00  0.00    -0.262 A  
HETATM   19  C   UNL     1     -10.697   3.744  73.497  1.00  0.00    -0.304 A  
HETATM   20  C   UNL     1     -10.296   2.440  73.228  1.00  0.00    -0.214 A  
HETATM   21  C   UNL     1      -9.828   2.111  71.959  1.00  0.00    -0.221 A  
ENDBRANCH  11  12
ENDBRANCH  10  11
ENDBRANCH   7  10
ENDBRANCH   6   7
ENDBRANCH   4   6
ENDBRANCH   2   4
TORSDOF 6
ENDMDL
MODEL      237
REMARK 921   NORMALIZED FREE ENERGY PREDICTED BY IDOCK:   -3.50 KCAL/MOL
REMARK 922        TOTAL FREE ENERGY PREDICTED BY IDOCK:   -5.41 KCAL/MOL
REMARK 923 INTER-LIGAND FREE ENERGY PREDICTED BY IDOCK:   -5.07 KCAL/MOL
REMARK 924 INTRA-LIGAND FREE ENERGY PREDICTED BY IDOCK:   -0.34 KCAL/MOL
REMARK 927      BINDING AFFINITY PREDICTED BY RF-SCORE:    0.00 PKD
ROOT
HETATM    1  C   UNL     1     -12.511  12.460  70.668  1.00  0.00    -0.320 C  
HETATM    2  C   UNL     1     -11.445  11.542  70.069  1.00  0.00    -0.220 C  
HETATM    3  C   UNL     1     -12.115  10.460  69.219  1.00  0.00    -0.022 C  
ENDROOT
BRANCH   2   4
HETATM    4  N   UNL     1     -10.529  12.365  69.275  1.00  0.00    -0.419 NA 
HETATM    5  H   UNL     1      -9.580  12.309  69.645  1.00  0.00     0.000 HD 
BRANCH   4   6
HETATM    6  C   UNL     1     -10.549  12.042  67.842  1.00  0.00    -0.202 C  
BRANCH   6   7
HETATM    7  C   UNL     1      -9.420  12.800  67.129  1.00  0.00    -0.223 C  
HETATM    8  O   UNL     1      -8.904  12.004  66.051  1.00  0.00    -0.387 OA 
HETATM    9  H   UNL     1      -8.206  12.472  65.610  1.00  0.00     0.000 HD 
BRANCH   7  10
HETATM   10  C   UNL     1      -9.896  14.153  66.590  1.00  0.00    -0.283 C  
BRANCH  10  11
HETATM   11  O   UNL     1      -8.838  15.124  66.668  1.00  0.00    -0.258 OA 
BRANCH  11  12
HETATM   12  C   UNL     1      -9.248  16.434  66.527  1.00  0.00    -0.277 A  
HETATM   13  C   UNL     1     -10.303  16.799  65.680  1.00  0.00    -0.284 A  
HETATM   14  C   UNL     1     -10.694  18.126  65.559  1.00  0.00     0.051 A  
HETATM   15  C   UNL     1     -10.053  19.108  66.304  1.00  0.00    -0.499 A  
HETATM   16  C   UNL     1      -9.021  18.773  67.191  1.00  0.00    -0.291 A  
HETATM   17  C   UNL     1      -8.600  17.423  67.317  1.00  0.00    -0.223 A  
HETATM   18  C   UNL     1      -7.550  17.149  68.224  1.00  0.00    -0.224 A  
HETATM   19  C   UNL     1      -6.951  18.163  68.982  1.00  0.00    -0.262 A  
HETATM   20  C   UNL     1      -7.385  19.478  68.850  1.00  0.00    -0.398 A  
HETATM   21  C   UNL     1      -8.410  19.779  67.957  1.00  0.00    -0.332 A  
ENDBRANCH  11  12
ENDBRANCH  10  11
ENDBRANCH   7  10
ENDBRANCH   6   7
ENDBRANCH   4   6
ENDBRANCH   2   4
TORSDOF 6
ENDMDL
MODEL      238
REMARK 921   NORMALIZED FREE ENERGY PREDICTED BY IDOCK:   -3.49 KCAL/MOL
REMARK 922        TOTAL FREE ENERGY PREDICTED BY IDOCK:   -5.39 KCAL/MOL
REMARK 923 INTER-LIGAND FREE ENERGY PREDICTED BY IDOCK:   -4.83 KCAL/MOL
REMARK 924 INTRA-LIGAND FREE ENERGY PREDICTED BY IDOCK:   -0.56 KCAL/MOL
REMARK 927      BINDING AFFINITY PREDICTED BY RF-SCORE:    0.00 PKD
ROOT
HETATM    1  C   UNL     1      -9.670   9.530  65.430  1.00  0.00    -0.314 C  
HETATM    2  C   UNL     1      -9.668  10.975  64.932  1.00  0.00    -0.254 C  
HETATM    3  C   UNL     1     -10.568  11.099  63.700  1.00  0.00    -0.414 C  
ENDROOT
BRANCH   2   4
HETATM    4  N   UNL     1     -10.125  11.834  66.026  1.00  0.00    -0.223 NA 
HETATM    5  H   UNL     1     -10.581  12.671  65.662  1.00  0.00     0.000 HD 
BRANCH   4   6
HETATM    6  C   UNL     1     -10.995  11.142  66.986  1.00  0.00    -0.289 C  
BRANCH   6   7
HETATM    7  C   UNL     1     -10.787  11.734  68.388  1.00  0.00    -0.223 C  
HETATM    8  O   UNL     1     -11.460  12.999  68.486  1.00  0.00    -0.261 OA 
HETATM    9  H   UNL     1     -11.331  13.366  69.353  1.00  0.00     0.000 HD 
BRANCH   7  10
HETATM   10  C   UNL     1     -11.297  10.792  69.483  1.00  0.00    -0.289 C  
BRANCH  10  11
HETATM   11  O   UNL     1     -10.248   9.908  69.913  1.00  0.00    -0.228 OA 
BRANCH  11  12
HETATM   12  C   UNL     1     -10.673   8.654  70.302  1.00  0.00    -0.227 A  
HETATM   13  C   UNL     1     -11.537   8.465  71.389  1.00  0.00    -0.332 A  
HETATM   14  C   UNL     1     -11.951   7.190  71.757  1.00  0.00    -0.348 A  
HETATM   15  C   UNL     1     -11.526   6.087  71.028  1.00  0.00    -0.236 A  
HETATM   16  C   UNL     1     -10.694   6.244  69.911  1.00  0.00    -0.355 A  
HETATM   17  C   UNL     1     -10.253   7.538  69.529  1.00  0.00    -0.207 A  
HETATM   18  C   UNL     1      -9.410   7.632  68.396  1.00  0.00    -0.146 A  
HETATM   19  C   UNL     1      -9.031   6.498  67.667  1.00  0.00    -0.114 A  
HETATM   20  C   UNL     1      -9.483   5.240  68.054  1.00  0.00    -0.147 A  
HETATM   21  C   UNL     1     -10.305   5.116  69.170  1.00  0.00    -0.226 A  
ENDBRANCH  11  12
ENDBRANCH  10  11
ENDBRANCH   7  10
ENDBRANCH   6   7
ENDBRANCH   4   6
ENDBRANCH   2   4
TORSDOF 6
ENDMDL
MODEL      239
REMARK 921   NORMALIZED FREE ENERGY PREDICTED BY IDOCK:   -3.48 KCAL/MOL
REMARK 922        TOTAL FREE ENERGY PREDICTED BY IDOCK:   -5.38 KCAL/MOL
REMARK 923 INTER-LIGAND FREE ENERGY PREDICTED BY IDOCK:   -4.98 KCAL/MOL
REMARK 924 INTRA-LIGAND FREE ENERGY PREDICTED BY IDOCK:   -0.41 KCAL/MOL
REMARK 927      BINDING AFFINITY PREDICTED BY RF-SCORE:    0.00 PKD
ROOT
HETATM    1  C   UNL     1     -11.015   6.060  70.629  1.00  0.00    -0.376 C  
HETATM    2  C   UNL     1     -11.526   6.445  72.018  1.00  0.00    -0.305 C  
HETATM    3  C   UNL     1     -10.359   6.470  73.008  1.00  0.00    -0.239 C  
ENDROOT
BRANCH   2   4
HETATM    4  N   UNL     1     -12.180   7.751  71.917  1.00  0.00    -0.296 NA 
HETATM    5  H   UNL     1     -11.924   8.346  72.705  1.00  0.00     0.000 HD 
BRANCH   4   6
HETATM    6  C   UNL     1     -11.922   8.435  70.642  1.00  0.00    -0.026 C  
BRANCH   6   7
HETATM    7  C   UNL     1     -11.117   9.717  70.901  1.00  0.00    -0.357 C  
HETATM    8  O   UNL     1      -9.739   9.389  71.133  1.00  0.00    -0.270 OA 
HETATM    9  H   UNL     1      -9.241  10.182  71.293  1.00  0.00     0.000 HD 
BRANCH   7  10
HETATM   10  C   UNL     1     -11.224  10.701  69.731  1.00  0.00    -0.297 C  
BRANCH  10  11
HETATM   11  O   UNL     1      -9.958  10.818  69.059  1.00  0.00    -0.196 OA 
BRANCH  11  12
HETATM   12  C   UNL     1     -10.045  11.150  67.721  1.00  0.00    -0.178 A  
HETATM   13  C   UNL     1     -10.291  10.190  66.730  1.00  0.00    -0.285 A  
HETATM   14  C   UNL     1     -10.374  10.552  65.391  1.00  0.00    -0.292 A  
HETATM   15  C   UNL     1     -10.238  11.886  65.026  1.00  0.00    -0.316 A  
HETATM   16  C   UNL     1     -10.032  12.876  65.995  1.00  0.00    -0.275 A  
HETATM   17  C   UNL     1      -9.931  12.521  67.366  1.00  0.00    -0.207 A  
HETATM   18  C   UNL     1      -9.717  13.565  68.296  1.00  0.00    -0.224 A  
HETATM   19  C   UNL     1      -9.619  14.901  67.890  1.00  0.00    -0.205 A  
HETATM   20  C   UNL     1      -9.729  15.229  66.542  1.00  0.00    -0.287 A  
HETATM   21  C   UNL     1      -9.930  14.221  65.603  1.00  0.00    -0.346 A  
ENDBRANCH  11  12
ENDBRANCH  10  11
ENDBRANCH   7  10
ENDBRANCH   6   7
ENDBRANCH   4   6
ENDBRANCH   2   4
TORSDOF 6
ENDMDL
MODEL      240
REMARK 921   NORMALIZED FREE ENERGY PREDICTED BY IDOCK:   -3.48 KCAL/MOL
REMARK 922        TOTAL FREE ENERGY PREDICTED BY IDOCK:   -5.38 KCAL/MOL
REMARK 923 INTER-LIGAND FREE ENERGY PREDICTED BY IDOCK:   -4.61 KCAL/MOL
REMARK 924 INTRA-LIGAND FREE ENERGY PREDICTED BY IDOCK:   -0.77 KCAL/MOL
REMARK 927      BINDING AFFINITY PREDICTED BY RF-SCORE:    0.00 PKD
ROOT
HETATM    1  C   UNL     1     -10.795  10.186  67.493  1.00  0.00    -0.349 C  
HETATM    2  C   UNL     1      -9.578   9.300  67.224  1.00  0.00    -0.155 C  
HETATM    3  C   UNL     1     -10.040   7.891  66.846  1.00  0.00    -0.362 C  
ENDROOT
BRANCH   2   4
HETATM    4  N   UNL     1      -8.792   9.918  66.154  1.00  0.00    -0.141 NA 
HETATM    5  H   UNL     1      -9.213  10.798  65.858  1.00  0.00     0.000 HD 
BRANCH   4   6
HETATM    6  C   UNL     1      -7.378  10.108  66.506  1.00  0.00    -0.108 C  
BRANCH   6   7
HETATM    7  C   UNL     1      -7.275  10.688  67.924  1.00  0.00    -0.087 C  
HETATM    8  O   UNL     1      -6.036  10.280  68.527  1.00  0.00    -0.044 OA 
HETATM    9  H   UNL     1      -5.973  10.639  69.404  1.00  0.00     0.000 HD 
BRANCH   7  10
HETATM   10  C   UNL     1      -7.368  12.217  67.920  1.00  0.00    -0.111 C  
BRANCH  10  11
HETATM   11  O   UNL     1      -8.069  12.674  66.750  1.00  0.00    -0.069 OA 
BRANCH  11  12
HETATM   12  C   UNL     1      -9.129  13.519  67.007  1.00  0.00    -0.244 A  
HETATM   13  C   UNL     1      -9.072  14.505  68.001  1.00  0.00    -0.185 A  
HETATM   14  C   UNL     1     -10.155  15.344  68.237  1.00  0.00    -0.218 A  
HETATM   15  C   UNL     1     -11.303  15.225  67.464  1.00  0.00    -0.300 A  
HETATM   16  C   UNL     1     -11.379  14.277  66.435  1.00  0.00    -0.346 A  
HETATM   17  C   UNL     1     -10.286  13.404  66.190  1.00  0.00    -0.301 A  
HETATM   18  C   UNL     1     -10.424  12.465  65.141  1.00  0.00    -0.321 A  
HETATM   19  C   UNL     1     -11.586  12.399  64.363  1.00  0.00    -0.418 A  
HETATM   20  C   UNL     1     -12.642  13.270  64.614  1.00  0.00    -0.354 A  
HETATM   21  C   UNL     1     -12.538  14.198  65.647  1.00  0.00    -0.495 A  
ENDBRANCH  11  12
ENDBRANCH  10  11
ENDBRANCH   7  10
ENDBRANCH   6   7
ENDBRANCH   4   6
ENDBRANCH   2   4
TORSDOF 6
ENDMDL
MODEL      241
REMARK 921   NORMALIZED FREE ENERGY PREDICTED BY IDOCK:   -3.47 KCAL/MOL
REMARK 922        TOTAL FREE ENERGY PREDICTED BY IDOCK:   -5.36 KCAL/MOL
REMARK 923 INTER-LIGAND FREE ENERGY PREDICTED BY IDOCK:   -4.78 KCAL/MOL
REMARK 924 INTRA-LIGAND FREE ENERGY PREDICTED BY IDOCK:   -0.58 KCAL/MOL
REMARK 927      BINDING AFFINITY PREDICTED BY RF-SCORE:    0.00 PKD
ROOT
HETATM    1  C   UNL     1      -5.352  10.855  67.601  1.00  0.00    -0.040 C  
HETATM    2  C   UNL     1      -5.522  10.117  66.273  1.00  0.00    -0.052 C  
HETATM    3  C   UNL     1      -6.001   8.687  66.536  1.00  0.00    -0.052 C  
ENDROOT
BRANCH   2   4
HETATM    4  N   UNL     1      -6.477  10.866  65.454  1.00  0.00    -0.366 NA 
HETATM    5  H   UNL     1      -6.075  11.753  65.151  1.00  0.00     0.000 HD 
BRANCH   4   6
HETATM    6  C   UNL     1      -6.984  10.103  64.305  1.00  0.00    -0.103 C  
BRANCH   6   7
HETATM    7  C   UNL     1      -8.505  10.284  64.201  1.00  0.00    -0.179 C  
HETATM    8  O   UNL     1      -9.137   9.004  64.041  1.00  0.00    -0.424 OA 
HETATM    9  H   UNL     1     -10.078   9.116  63.976  1.00  0.00     0.000 HD 
BRANCH   7  10
HETATM   10  C   UNL     1      -9.079  10.993  65.432  1.00  0.00    -0.195 C  
BRANCH  10  11
HETATM   11  O   UNL     1     -10.283  10.340  65.870  1.00  0.00    -0.254 OA 
BRANCH  11  12
HETATM   12  C   UNL     1     -10.822  10.848  67.035  1.00  0.00    -0.266 A  
HETATM   13  C   UNL     1     -11.353  12.143  67.107  1.00  0.00    -0.393 A  
HETATM   14  C   UNL     1     -11.891  12.628  68.293  1.00  0.00    -0.354 A  
HETATM   15  C   UNL     1     -11.930  11.815  69.419  1.00  0.00    -0.361 A  
HETATM   16  C   UNL     1     -11.445  10.501  69.370  1.00  0.00    -0.329 A  
HETATM   17  C   UNL     1     -10.880   9.995  68.170  1.00  0.00    -0.303 A  
HETATM   18  C   UNL     1     -10.402   8.664  68.185  1.00  0.00    -0.267 A  
HETATM   19  C   UNL     1     -10.490   7.865  69.332  1.00  0.00    -0.222 A  
HETATM   20  C   UNL     1     -11.055   8.378  70.496  1.00  0.00    -0.267 A  
HETATM   21  C   UNL     1     -11.524   9.689  70.513  1.00  0.00    -0.352 A  
ENDBRANCH  11  12
ENDBRANCH  10  11
ENDBRANCH   7  10
ENDBRANCH   6   7
ENDBRANCH   4   6
ENDBRANCH   2   4
TORSDOF 6
ENDMDL
MODEL      242
REMARK 921   NORMALIZED FREE ENERGY PREDICTED BY IDOCK:   -3.45 KCAL/MOL
REMARK 922        TOTAL FREE ENERGY PREDICTED BY IDOCK:   -5.34 KCAL/MOL
REMARK 923 INTER-LIGAND FREE ENERGY PREDICTED BY IDOCK:   -5.04 KCAL/MOL
REMARK 924 INTRA-LIGAND FREE ENERGY PREDICTED BY IDOCK:   -0.31 KCAL/MOL
REMARK 927      BINDING AFFINITY PREDICTED BY RF-SCORE:    0.00 PKD
ROOT
HETATM    1  C   UNL     1     -12.072  16.458  72.929  1.00  0.00    -0.567 C  
HETATM    2  C   UNL     1     -12.511  15.019  72.656  1.00  0.00    -0.364 C  
HETATM    3  C   UNL     1     -14.008  14.988  72.338  1.00  0.00    -0.593 C  
ENDROOT
BRANCH   2   4
HETATM    4  N   UNL     1     -11.710  14.501  71.545  1.00  0.00    -0.461 NA 
HETATM    5  H   UNL     1     -11.016  13.833  71.880  1.00  0.00     0.000 HD 
BRANCH   4   6
HETATM    6  C   UNL     1     -12.518  13.916  70.466  1.00  0.00    -0.352 C  
BRANCH   6   7
HETATM    7  C   UNL     1     -11.873  14.237  69.110  1.00  0.00    -0.330 C  
HETATM    8  O   UNL     1     -12.324  15.521  68.649  1.00  0.00    -0.552 OA 
HETATM    9  H   UNL     1     -11.925  15.719  67.810  1.00  0.00     0.000 HD 
BRANCH   7  10
HETATM   10  C   UNL     1     -10.343  14.226  69.192  1.00  0.00    -0.125 C  
BRANCH  10  11
HETATM   11  O   UNL     1      -9.774  13.942  67.903  1.00  0.00    -0.218 OA 
BRANCH  11  12
HETATM   12  C   UNL     1      -8.399  13.829  67.892  1.00  0.00    -0.172 A  
HETATM   13  C   UNL     1      -7.751  12.597  68.060  1.00  0.00    -0.139 A  
HETATM   14  C   UNL     1      -6.365  12.512  68.044  1.00  0.00    -0.087 A  
HETATM   15  C   UNL     1      -5.604  13.655  67.834  1.00  0.00    -0.110 A  
HETATM   16  C   UNL     1      -6.220  14.896  67.622  1.00  0.00    -0.123 A  
HETATM   17  C   UNL     1      -7.635  15.002  67.648  1.00  0.00    -0.198 A  
HETATM   18  C   UNL     1      -8.197  16.282  67.434  1.00  0.00    -0.181 A  
HETATM   19  C   UNL     1      -7.396  17.405  67.192  1.00  0.00    -0.199 A  
HETATM   20  C   UNL     1      -6.011  17.277  67.162  1.00  0.00    -0.181 A  
HETATM   21  C   UNL     1      -5.429  16.031  67.380  1.00  0.00    -0.085 A  
ENDBRANCH  11  12
ENDBRANCH  10  11
ENDBRANCH   7  10
ENDBRANCH   6   7
ENDBRANCH   4   6
ENDBRANCH   2   4
TORSDOF 6
ENDMDL
MODEL      243
REMARK 921   NORMALIZED FREE ENERGY PREDICTED BY IDOCK:   -3.45 KCAL/MOL
REMARK 922        TOTAL FREE ENERGY PREDICTED BY IDOCK:   -5.34 KCAL/MOL
REMARK 923 INTER-LIGAND FREE ENERGY PREDICTED BY IDOCK:   -5.01 KCAL/MOL
REMARK 924 INTRA-LIGAND FREE ENERGY PREDICTED BY IDOCK:   -0.32 KCAL/MOL
REMARK 927      BINDING AFFINITY PREDICTED BY RF-SCORE:    0.00 PKD
ROOT
HETATM    1  C   UNL     1     -11.983  14.225  66.973  1.00  0.00    -0.463 C  
HETATM    2  C   UNL     1     -12.632  13.898  65.628  1.00  0.00    -0.517 C  
HETATM    3  C   UNL     1     -12.105  14.854  64.555  1.00  0.00    -0.420 C  
ENDROOT
BRANCH   2   4
HETATM    4  N   UNL     1     -12.332  12.502  65.304  1.00  0.00    -0.612 NA 
HETATM    5  H   UNL     1     -13.007  11.876  65.743  1.00  0.00     0.000 HD 
BRANCH   4   6
HETATM    6  C   UNL     1     -12.243  12.244  63.861  1.00  0.00    -0.515 C  
BRANCH   6   7
HETATM    7  C   UNL     1     -10.882  11.613  63.535  1.00  0.00    -0.425 C  
HETATM    8  O   UNL     1      -9.905  12.644  63.325  1.00  0.00    -0.584 OA 
HETATM    9  H   UNL     1      -9.063  12.254  63.123  1.00  0.00     0.000 HD 
BRANCH   7  10
HETATM   10  C   UNL     1     -10.410  10.674  64.650  1.00  0.00    -0.283 C  
BRANCH  10  11
HETATM   11  O   UNL     1      -8.986  10.485  64.576  1.00  0.00    -0.189 OA 
BRANCH  11  12
HETATM   12  C   UNL     1      -8.369  10.276  65.793  1.00  0.00    -0.152 A  
HETATM   13  C   UNL     1      -7.848   9.027  66.159  1.00  0.00    -0.102 A  
HETATM   14  C   UNL     1      -7.231   8.846  67.391  1.00  0.00    -0.080 A  
HETATM   15  C   UNL     1      -7.102   9.918  68.265  1.00  0.00    -0.076 A  
HETATM   16  C   UNL     1      -7.575  11.189  67.914  1.00  0.00    -0.099 A  
HETATM   17  C   UNL     1      -8.220  11.388  66.665  1.00  0.00    -0.163 A  
HETATM   18  C   UNL     1      -8.681  12.692  66.370  1.00  0.00     0.077 A  
HETATM   19  C   UNL     1      -8.503  13.755  67.264  1.00  0.00    -0.204 A  
HETATM   20  C   UNL     1      -7.860  13.539  68.480  1.00  0.00    -0.125 A  
HETATM   21  C   UNL     1      -7.404  12.264  68.801  1.00  0.00    -0.083 A  
ENDBRANCH  11  12
ENDBRANCH  10  11
ENDBRANCH   7  10
ENDBRANCH   6   7
ENDBRANCH   4   6
ENDBRANCH   2   4
TORSDOF 6
ENDMDL
MODEL      244
REMARK 921   NORMALIZED FREE ENERGY PREDICTED BY IDOCK:   -3.44 KCAL/MOL
REMARK 922        TOTAL FREE ENERGY PREDICTED BY IDOCK:   -5.33 KCAL/MOL
REMARK 923 INTER-LIGAND FREE ENERGY PREDICTED BY IDOCK:   -4.78 KCAL/MOL
REMARK 924 INTRA-LIGAND FREE ENERGY PREDICTED BY IDOCK:   -0.55 KCAL/MOL
REMARK 927      BINDING AFFINITY PREDICTED BY RF-SCORE:    0.00 PKD
ROOT
HETATM    1  C   UNL     1      -8.790   4.559  65.536  1.00  0.00    -0.130 C  
HETATM    2  C   UNL     1      -9.735   4.279  66.705  1.00  0.00    -0.219 C  
HETATM    3  C   UNL     1      -9.196   3.112  67.536  1.00  0.00    -0.233 C  
ENDROOT
BRANCH   2   4
HETATM    4  N   UNL     1      -9.851   5.502  67.500  1.00  0.00    -0.135 NA 
HETATM    5  H   UNL     1     -10.811   5.639  67.816  1.00  0.00     0.000 HD 
BRANCH   4   6
HETATM    6  C   UNL     1      -8.918   5.552  68.634  1.00  0.00    -0.114 C  
BRANCH   6   7
HETATM    7  C   UNL     1      -9.470   6.494  69.713  1.00  0.00    -0.150 C  
HETATM    8  O   UNL     1      -8.435   7.385  70.157  1.00  0.00    -0.134 OA 
HETATM    9  H   UNL     1      -8.776   7.967  70.825  1.00  0.00     0.000 HD 
BRANCH   7  10
HETATM   10  C   UNL     1     -10.664   7.305  69.201  1.00  0.00    -0.185 C  
BRANCH  10  11
HETATM   11  O   UNL     1     -10.464   8.706  69.455  1.00  0.00    -0.216 OA 
BRANCH  11  12
HETATM   12  C   UNL     1     -10.528   9.510  68.334  1.00  0.00    -0.224 A  
HETATM   13  C   UNL     1     -10.163   9.046  67.063  1.00  0.00    -0.336 A  
HETATM   14  C   UNL     1     -10.239   9.877  65.952  1.00  0.00    -0.264 A  
HETATM   15  C   UNL     1     -10.706  11.178  66.091  1.00  0.00    -0.285 A  
HETATM   16  C   UNL     1     -11.117  11.661  67.341  1.00  0.00    -0.337 A  
HETATM   17  C   UNL     1     -11.034  10.829  68.488  1.00  0.00    -0.291 A  
HETATM   18  C   UNL     1     -11.459  11.375  69.721  1.00  0.00    -0.376 A  
HETATM   19  C   UNL     1     -11.954  12.681  69.815  1.00  0.00    -0.365 A  
HETATM   20  C   UNL     1     -12.036  13.477  68.676  1.00  0.00    -0.378 A  
HETATM   21  C   UNL     1     -11.616  12.969  67.450  1.00  0.00    -0.407 A  
ENDBRANCH  11  12
ENDBRANCH  10  11
ENDBRANCH   7  10
ENDBRANCH   6   7
ENDBRANCH   4   6
ENDBRANCH   2   4
TORSDOF 6
ENDMDL
MODEL      245
REMARK 921   NORMALIZED FREE ENERGY PREDICTED BY IDOCK:   -3.44 KCAL/MOL
REMARK 922        TOTAL FREE ENERGY PREDICTED BY IDOCK:   -5.33 KCAL/MOL
REMARK 923 INTER-LIGAND FREE ENERGY PREDICTED BY IDOCK:   -4.88 KCAL/MOL
REMARK 924 INTRA-LIGAND FREE ENERGY PREDICTED BY IDOCK:   -0.45 KCAL/MOL
REMARK 927      BINDING AFFINITY PREDICTED BY RF-SCORE:    0.00 PKD
ROOT
HETATM    1  C   UNL     1     -11.857  15.368  71.927  1.00  0.00    -0.505 C  
HETATM    2  C   UNL     1     -12.919  14.915  70.924  1.00  0.00    -0.380 C  
HETATM    3  C   UNL     1     -14.298  14.936  71.589  1.00  0.00    -0.660 C  
ENDROOT
BRANCH   2   4
HETATM    4  N   UNL     1     -12.862  15.809  69.765  1.00  0.00    -0.552 NA 
HETATM    5  H   UNL     1     -13.014  16.777  70.047  1.00  0.00     0.000 HD 
BRANCH   4   6
HETATM    6  C   UNL     1     -11.621  15.680  68.991  1.00  0.00    -0.386 C  
BRANCH   6   7
HETATM    7  C   UNL     1     -11.528  14.265  68.401  1.00  0.00    -0.301 C  
HETATM    8  O   UNL     1     -11.512  14.335  66.967  1.00  0.00    -0.328 OA 
HETATM    9  H   UNL     1     -11.455  13.460  66.602  1.00  0.00     0.000 HD 
BRANCH   7  10
HETATM   10  C   UNL     1     -10.281  13.525  68.895  1.00  0.00    -0.057 C  
BRANCH  10  11
HETATM   11  O   UNL     1     -10.022  12.374  68.074  1.00  0.00    -0.195 OA 
BRANCH  11  12
HETATM   12  C   UNL     1     -10.053  11.168  68.746  1.00  0.00    -0.201 A  
HETATM   13  C   UNL     1     -11.242  10.628  69.255  1.00  0.00    -0.332 A  
HETATM   14  C   UNL     1     -11.243   9.412  69.926  1.00  0.00    -0.180 A  
HETATM   15  C   UNL     1     -10.057   8.703  70.076  1.00  0.00    -0.195 A  
HETATM   16  C   UNL     1      -8.857   9.194  69.543  1.00  0.00    -0.149 A  
HETATM   17  C   UNL     1      -8.837  10.442  68.866  1.00  0.00    -0.161 A  
HETATM   18  C   UNL     1      -7.595  10.886  68.356  1.00  0.00    -0.104 A  
HETATM   19  C   UNL     1      -6.428  10.126  68.499  1.00  0.00    -0.049 A  
HETATM   20  C   UNL     1      -6.472   8.902  69.158  1.00  0.00    -0.043 A  
HETATM   21  C   UNL     1      -7.678   8.443  69.680  1.00  0.00    -0.095 A  
ENDBRANCH  11  12
ENDBRANCH  10  11
ENDBRANCH   7  10
ENDBRANCH   6   7
ENDBRANCH   4   6
ENDBRANCH   2   4
TORSDOF 6
ENDMDL
MODEL      246
REMARK 921   NORMALIZED FREE ENERGY PREDICTED BY IDOCK:   -3.44 KCAL/MOL
REMARK 922        TOTAL FREE ENERGY PREDICTED BY IDOCK:   -5.32 KCAL/MOL
REMARK 923 INTER-LIGAND FREE ENERGY PREDICTED BY IDOCK:   -4.77 KCAL/MOL
REMARK 924 INTRA-LIGAND FREE ENERGY PREDICTED BY IDOCK:   -0.55 KCAL/MOL
REMARK 927      BINDING AFFINITY PREDICTED BY RF-SCORE:    0.00 PKD
ROOT
HETATM    1  C   UNL     1      -6.539   6.375  65.832  1.00  0.00    -0.047 C  
HETATM    2  C   UNL     1      -8.036   6.449  66.134  1.00  0.00    -0.117 C  
HETATM    3  C   UNL     1      -8.251   6.988  67.550  1.00  0.00    -0.116 C  
ENDROOT
BRANCH   2   4
HETATM    4  N   UNL     1      -8.662   7.308  65.127  1.00  0.00    -0.357 NA 
HETATM    5  H   UNL     1      -9.494   6.863  64.739  1.00  0.00     0.000 HD 
BRANCH   4   6
HETATM    6  C   UNL     1      -8.975   8.655  65.623  1.00  0.00    -0.182 C  
BRANCH   6   7
HETATM    7  C   UNL     1      -7.913   9.645  65.123  1.00  0.00    -0.120 C  
HETATM    8  O   UNL     1      -8.274  10.130  63.820  1.00  0.00    -0.153 OA 
HETATM    9  H   UNL     1      -7.616  10.742  63.511  1.00  0.00     0.000 HD 
BRANCH   7  10
HETATM   10  C   UNL     1      -7.742  10.827  66.084  1.00  0.00    -0.149 C  
BRANCH  10  11
HETATM   11  O   UNL     1      -9.015  11.225  66.620  1.00  0.00    -0.164 OA 
BRANCH  11  12
HETATM   12  C   UNL     1      -9.321  12.560  66.445  1.00  0.00    -0.209 A  
HETATM   13  C   UNL     1      -8.619  13.578  67.103  1.00  0.00    -0.203 A  
HETATM   14  C   UNL     1      -8.949  14.914  66.908  1.00  0.00    -0.277 A  
HETATM   15  C   UNL     1      -9.970  15.253  66.029  1.00  0.00    -0.344 A  
HETATM   16  C   UNL     1     -10.666  14.262  65.324  1.00  0.00    -0.377 A  
HETATM   17  C   UNL     1     -10.350  12.892  65.523  1.00  0.00    -0.304 A  
HETATM   18  C   UNL     1     -11.091  11.939  64.786  1.00  0.00    -0.367 A  
HETATM   19  C   UNL     1     -12.092  12.323  63.885  1.00  0.00    -0.598 A  
HETATM   20  C   UNL     1     -12.380  13.672  63.699  1.00  0.00    -0.328 A  
HETATM   21  C   UNL     1     -11.673  14.632  64.418  1.00  0.00    -0.358 A  
ENDBRANCH  11  12
ENDBRANCH  10  11
ENDBRANCH   7  10
ENDBRANCH   6   7
ENDBRANCH   4   6
ENDBRANCH   2   4
TORSDOF 6
ENDMDL
MODEL      247
REMARK 921   NORMALIZED FREE ENERGY PREDICTED BY IDOCK:   -3.42 KCAL/MOL
REMARK 922        TOTAL FREE ENERGY PREDICTED BY IDOCK:   -5.29 KCAL/MOL
REMARK 923 INTER-LIGAND FREE ENERGY PREDICTED BY IDOCK:   -4.81 KCAL/MOL
REMARK 924 INTRA-LIGAND FREE ENERGY PREDICTED BY IDOCK:   -0.48 KCAL/MOL
REMARK 927      BINDING AFFINITY PREDICTED BY RF-SCORE:    0.00 PKD
ROOT
HETATM    1  C   UNL     1      -8.276   9.104  63.999  1.00  0.00    -0.168 C  
HETATM    2  C   UNL     1      -8.331   8.761  65.488  1.00  0.00    -0.147 C  
HETATM    3  C   UNL     1      -8.585   7.262  65.662  1.00  0.00    -0.123 C  
ENDROOT
BRANCH   2   4
HETATM    4  N   UNL     1      -7.063   9.170  66.096  1.00  0.00    -0.086 NA 
HETATM    5  H   UNL     1      -6.351   8.452  65.965  1.00  0.00     0.000 HD 
BRANCH   4   6
HETATM    6  C   UNL     1      -6.583  10.475  65.622  1.00  0.00    -0.116 C  
BRANCH   6   7
HETATM    7  C   UNL     1      -6.441  11.434  66.813  1.00  0.00    -0.140 C  
HETATM    8  O   UNL     1      -5.271  12.250  66.644  1.00  0.00    -0.346 OA 
HETATM    9  H   UNL     1      -5.183  12.843  67.381  1.00  0.00     0.000 HD 
BRANCH   7  10
HETATM   10  C   UNL     1      -7.675  12.327  66.973  1.00  0.00    -0.089 C  
BRANCH  10  11
HETATM   11  O   UNL     1      -8.866  11.526  67.059  1.00  0.00    -0.162 OA 
BRANCH  11  12
HETATM   12  C   UNL     1     -10.046  12.235  66.952  1.00  0.00    -0.211 A  
HETATM   13  C   UNL     1     -10.581  12.959  68.026  1.00  0.00    -0.238 A  
HETATM   14  C   UNL     1     -11.770  13.664  67.889  1.00  0.00    -0.395 A  
HETATM   15  C   UNL     1     -12.430  13.677  66.667  1.00  0.00    -0.291 A  
HETATM   16  C   UNL     1     -11.902  12.997  65.561  1.00  0.00    -0.438 A  
HETATM   17  C   UNL     1     -10.695  12.261  65.688  1.00  0.00    -0.302 A  
HETATM   18  C   UNL     1     -10.215  11.592  64.538  1.00  0.00    -0.338 A  
HETATM   19  C   UNL     1     -10.893  11.657  63.314  1.00  0.00    -0.380 A  
HETATM   20  C   UNL     1     -12.070  12.391  63.209  1.00  0.00    -0.519 A  
HETATM   21  C   UNL     1     -12.571  13.052  64.327  1.00  0.00    -0.326 A  
ENDBRANCH  11  12
ENDBRANCH  10  11
ENDBRANCH   7  10
ENDBRANCH   6   7
ENDBRANCH   4   6
ENDBRANCH   2   4
TORSDOF 6
ENDMDL
MODEL      248
REMARK 921   NORMALIZED FREE ENERGY PREDICTED BY IDOCK:   -3.42 KCAL/MOL
REMARK 922        TOTAL FREE ENERGY PREDICTED BY IDOCK:   -5.29 KCAL/MOL
REMARK 923 INTER-LIGAND FREE ENERGY PREDICTED BY IDOCK:   -4.85 KCAL/MOL
REMARK 924 INTRA-LIGAND FREE ENERGY PREDICTED BY IDOCK:   -0.44 KCAL/MOL
REMARK 927      BINDING AFFINITY PREDICTED BY RF-SCORE:    0.00 PKD
ROOT
HETATM    1  C   UNL     1      -8.711   3.224  65.306  1.00  0.00    -0.119 C  
HETATM    2  C   UNL     1      -9.408   2.849  66.615  1.00  0.00    -0.057 C  
HETATM    3  C   UNL     1      -8.560   1.828  67.377  1.00  0.00    -0.106 C  
ENDROOT
BRANCH   2   4
HETATM    4  N   UNL     1      -9.609   4.074  67.391  1.00  0.00    -0.190 NA 
HETATM    5  H   UNL     1     -10.592   4.191  67.635  1.00  0.00     0.000 HD 
BRANCH   4   6
HETATM    6  C   UNL     1      -8.763   4.150  68.590  1.00  0.00    -0.097 C  
BRANCH   6   7
HETATM    7  C   UNL     1      -9.615   4.576  69.794  1.00  0.00    -0.199 C  
HETATM    8  O   UNL     1      -8.769   5.114  70.823  1.00  0.00    -0.124 OA 
HETATM    9  H   UNL     1      -9.296   5.378  71.568  1.00  0.00     0.000 HD 
BRANCH   7  10
HETATM   10  C   UNL     1     -10.674   5.612  69.402  1.00  0.00    -0.295 C  
BRANCH  10  11
HETATM   11  O   UNL     1     -10.816   6.599  70.438  1.00  0.00    -0.234 OA 
BRANCH  11  12
HETATM   12  C   UNL     1     -10.714   7.906  70.006  1.00  0.00    -0.244 A  
HETATM   13  C   UNL     1      -9.889   8.275  68.935  1.00  0.00    -0.183 A  
HETATM   14  C   UNL     1      -9.807   9.599  68.520  1.00  0.00    -0.170 A  
HETATM   15  C   UNL     1     -10.570  10.571  69.155  1.00  0.00    -0.258 A  
HETATM   16  C   UNL     1     -11.436  10.230  70.202  1.00  0.00    -0.383 A  
HETATM   17  C   UNL     1     -11.522   8.885  70.646  1.00  0.00    -0.280 A  
HETATM   18  C   UNL     1     -12.410   8.605  71.711  1.00  0.00    -0.402 A  
HETATM   19  C   UNL     1     -13.187   9.608  72.302  1.00  0.00    -0.492 A  
HETATM   20  C   UNL     1     -13.094  10.919  71.846  1.00  0.00    -0.537 A  
HETATM   21  C   UNL     1     -12.221  11.226  70.806  1.00  0.00    -0.479 A  
ENDBRANCH  11  12
ENDBRANCH  10  11
ENDBRANCH   7  10
ENDBRANCH   6   7
ENDBRANCH   4   6
ENDBRANCH   2   4
TORSDOF 6
ENDMDL
MODEL      249
REMARK 921   NORMALIZED FREE ENERGY PREDICTED BY IDOCK:   -3.39 KCAL/MOL
REMARK 922        TOTAL FREE ENERGY PREDICTED BY IDOCK:   -5.26 KCAL/MOL
REMARK 923 INTER-LIGAND FREE ENERGY PREDICTED BY IDOCK:   -4.86 KCAL/MOL
REMARK 924 INTRA-LIGAND FREE ENERGY PREDICTED BY IDOCK:   -0.41 KCAL/MOL
REMARK 927      BINDING AFFINITY PREDICTED BY RF-SCORE:    0.00 PKD
ROOT
HETATM    1  C   UNL     1     -12.357  13.088  65.802  1.00  0.00    -0.477 C  
HETATM    2  C   UNL     1     -11.467  12.270  64.865  1.00  0.00    -0.332 C  
HETATM    3  C   UNL     1     -11.694  12.715  63.418  1.00  0.00    -0.571 C  
ENDROOT
BRANCH   2   4
HETATM    4  N   UNL     1     -10.075  12.459  65.278  1.00  0.00    -0.297 NA 
HETATM    5  H   UNL     1      -9.952  13.366  65.729  1.00  0.00     0.000 HD 
BRANCH   4   6
HETATM    6  C   UNL     1      -9.570  11.378  66.135  1.00  0.00    -0.218 C  
BRANCH   6   7
HETATM    7  C   UNL     1      -8.399  10.673  65.436  1.00  0.00    -0.142 C  
HETATM    8  O   UNL     1      -7.158  11.272  65.840  1.00  0.00    -0.369 OA 
HETATM    9  H   UNL     1      -6.434  10.837  65.407  1.00  0.00     0.000 HD 
BRANCH   7  10
HETATM   10  C   UNL     1      -8.372   9.173  65.746  1.00  0.00    -0.126 C  
BRANCH  10  11
HETATM   11  O   UNL     1      -9.628   8.754  66.307  1.00  0.00    -0.223 OA 
BRANCH  11  12
HETATM   12  C   UNL     1      -9.678   7.427  66.683  1.00  0.00    -0.194 A  
HETATM   13  C   UNL     1      -9.201   6.400  65.858  1.00  0.00    -0.033 A  
HETATM   14  C   UNL     1      -9.263   5.073  66.263  1.00  0.00    -0.144 A  
HETATM   15  C   UNL     1      -9.779   4.754  67.513  1.00  0.00    -0.209 A  
HETATM   16  C   UNL     1     -10.228   5.760  68.379  1.00  0.00    -0.242 A  
HETATM   17  C   UNL     1     -10.184   7.120  67.975  1.00  0.00    -0.223 A  
HETATM   18  C   UNL     1     -10.656   8.088  68.892  1.00  0.00    -0.160 A  
HETATM   19  C   UNL     1     -11.139   7.728  70.156  1.00  0.00    -0.216 A  
HETATM   20  C   UNL     1     -11.165   6.390  70.536  1.00  0.00    -0.414 A  
HETATM   21  C   UNL     1     -10.716   5.414  69.650  1.00  0.00    -0.267 A  
ENDBRANCH  11  12
ENDBRANCH  10  11
ENDBRANCH   7  10
ENDBRANCH   6   7
ENDBRANCH   4   6
ENDBRANCH   2   4
TORSDOF 6
ENDMDL
MODEL      250
REMARK 921   NORMALIZED FREE ENERGY PREDICTED BY IDOCK:   -3.39 KCAL/MOL
REMARK 922        TOTAL FREE ENERGY PREDICTED BY IDOCK:   -5.26 KCAL/MOL
REMARK 923 INTER-LIGAND FREE ENERGY PREDICTED BY IDOCK:   -4.50 KCAL/MOL
REMARK 924 INTRA-LIGAND FREE ENERGY PREDICTED BY IDOCK:   -0.75 KCAL/MOL
REMARK 927      BINDING AFFINITY PREDICTED BY RF-SCORE:    0.00 PKD
ROOT
HETATM    1  C   UNL     1     -10.584   8.381  72.042  1.00  0.00    -0.387 C  
HETATM    2  C   UNL     1     -11.397   8.130  70.772  1.00  0.00    -0.270 C  
HETATM    3  C   UNL     1     -12.118   6.784  70.878  1.00  0.00    -0.421 C  
ENDROOT
BRANCH   2   4
HETATM    4  N   UNL     1     -12.340   9.239  70.610  1.00  0.00    -0.491 NA 
HETATM    5  H   UNL     1     -13.284   8.951  70.866  1.00  0.00     0.000 HD 
BRANCH   4   6
HETATM    6  C   UNL     1     -11.948  10.451  71.342  1.00  0.00    -0.285 C  
BRANCH   6   7
HETATM    7  C   UNL     1     -12.465  11.690  70.598  1.00  0.00    -0.295 C  
HETATM    8  O   UNL     1     -11.882  12.875  71.163  1.00  0.00    -0.235 OA 
HETATM    9  H   UNL     1     -12.203  13.642  70.703  1.00  0.00     0.000 HD 
BRANCH   7  10
HETATM   10  C   UNL     1     -12.153  11.625  69.100  1.00  0.00    -0.251 C  
BRANCH  10  11
HETATM   11  O   UNL     1     -10.830  12.127  68.841  1.00  0.00    -0.219 OA 
BRANCH  11  12
HETATM   12  C   UNL     1     -10.193  11.544  67.765  1.00  0.00    -0.182 A  
HETATM   13  C   UNL     1     -10.582  11.797  66.442  1.00  0.00    -0.293 A  
HETATM   14  C   UNL     1      -9.921  11.197  65.377  1.00  0.00    -0.309 A  
HETATM   15  C   UNL     1      -8.844  10.354  65.618  1.00  0.00    -0.190 A  
HETATM   16  C   UNL     1      -8.403  10.111  66.926  1.00  0.00    -0.122 A  
HETATM   17  C   UNL     1      -9.075  10.706  68.026  1.00  0.00    -0.147 A  
HETATM   18  C   UNL     1      -8.587  10.418  69.322  1.00  0.00    -0.159 A  
HETATM   19  C   UNL     1      -7.476   9.589  69.521  1.00  0.00    -0.092 A  
HETATM   20  C   UNL     1      -6.827   9.023  68.428  1.00  0.00    -0.064 A  
HETATM   21  C   UNL     1      -7.291   9.280  67.141  1.00  0.00    -0.091 A  
ENDBRANCH  11  12
ENDBRANCH  10  11
ENDBRANCH   7  10
ENDBRANCH   6   7
ENDBRANCH   4   6
ENDBRANCH   2   4
TORSDOF 6
ENDMDL
MODEL      251
REMARK 921   NORMALIZED FREE ENERGY PREDICTED BY IDOCK:   -3.38 KCAL/MOL
REMARK 922        TOTAL FREE ENERGY PREDICTED BY IDOCK:   -5.24 KCAL/MOL
REMARK 923 INTER-LIGAND FREE ENERGY PREDICTED BY IDOCK:   -4.68 KCAL/MOL
REMARK 924 INTRA-LIGAND FREE ENERGY PREDICTED BY IDOCK:   -0.57 KCAL/MOL
REMARK 927      BINDING AFFINITY PREDICTED BY RF-SCORE:    0.00 PKD
ROOT
HETATM    1  C   UNL     1     -11.506  11.702  66.787  1.00  0.00    -0.299 C  
HETATM    2  C   UNL     1     -10.247  10.992  67.286  1.00  0.00    -0.199 C  
HETATM    3  C   UNL     1     -10.529   9.497  67.452  1.00  0.00    -0.336 C  
ENDROOT
BRANCH   2   4
HETATM    4  N   UNL     1      -9.173  11.237  66.321  1.00  0.00    -0.194 NA 
HETATM    5  H   UNL     1      -9.472  11.902  65.608  1.00  0.00     0.000 HD 
BRANCH   4   6
HETATM    6  C   UNL     1      -7.916  11.671  66.945  1.00  0.00    -0.161 C  
BRANCH   6   7
HETATM    7  C   UNL     1      -8.206  12.238  68.342  1.00  0.00    -0.146 C  
HETATM    8  O   UNL     1      -7.857  11.269  69.343  1.00  0.00    -0.355 OA 
HETATM    9  H   UNL     1      -8.037  11.620  70.207  1.00  0.00     0.000 HD 
BRANCH   7  10
HETATM   10  C   UNL     1      -7.439  13.540  68.596  1.00  0.00    -0.108 C  
BRANCH  10  11
HETATM   11  O   UNL     1      -7.191  14.226  67.357  1.00  0.00    -0.185 OA 
BRANCH  11  12
HETATM   12  C   UNL     1      -7.750  15.485  67.273  1.00  0.00    -0.212 A  
HETATM   13  C   UNL     1      -7.182  16.597  67.907  1.00  0.00    -0.152 A  
HETATM   14  C   UNL     1      -7.766  17.853  67.804  1.00  0.00    -0.220 A  
HETATM   15  C   UNL     1      -8.916  18.021  67.042  1.00  0.00    -0.261 A  
HETATM   16  C   UNL     1      -9.488  16.938  66.361  1.00  0.00    -0.306 A  
HETATM   17  C   UNL     1      -8.910  15.646  66.467  1.00  0.00    -0.345 A  
HETATM   18  C   UNL     1      -9.536  14.592  65.761  1.00  0.00    -0.266 A  
HETATM   19  C   UNL     1     -10.676  14.809  64.976  1.00  0.00    -0.452 A  
HETATM   20  C   UNL     1     -11.221  16.086  64.880  1.00  0.00    -0.319 A  
HETATM   21  C   UNL     1     -10.631  17.140  65.572  1.00  0.00    -0.160 A  
ENDBRANCH  11  12
ENDBRANCH  10  11
ENDBRANCH   7  10
ENDBRANCH   6   7
ENDBRANCH   4   6
ENDBRANCH   2   4
TORSDOF 6
ENDMDL
MODEL      252
REMARK 921   NORMALIZED FREE ENERGY PREDICTED BY IDOCK:   -3.38 KCAL/MOL
REMARK 922        TOTAL FREE ENERGY PREDICTED BY IDOCK:   -5.24 KCAL/MOL
REMARK 923 INTER-LIGAND FREE ENERGY PREDICTED BY IDOCK:   -4.72 KCAL/MOL
REMARK 924 INTRA-LIGAND FREE ENERGY PREDICTED BY IDOCK:   -0.52 KCAL/MOL
REMARK 927      BINDING AFFINITY PREDICTED BY RF-SCORE:    0.00 PKD
ROOT
HETATM    1  C   UNL     1      -8.627   9.089  63.896  1.00  0.00    -0.151 C  
HETATM    2  C   UNL     1      -8.477   8.530  65.312  1.00  0.00    -0.174 C  
HETATM    3  C   UNL     1      -8.260   7.017  65.248  1.00  0.00    -0.128 C  
ENDROOT
BRANCH   2   4
HETATM    4  N   UNL     1      -7.352   9.213  65.954  1.00  0.00    -0.093 NA 
HETATM    5  H   UNL     1      -6.464   8.852  65.606  1.00  0.00     0.000 HD 
BRANCH   4   6
HETATM    6  C   UNL     1      -7.407  10.675  65.826  1.00  0.00    -0.110 C  
BRANCH   6   7
HETATM    7  C   UNL     1      -6.799  11.324  67.078  1.00  0.00    -0.126 C  
HETATM    8  O   UNL     1      -6.320  12.640  66.760  1.00  0.00    -0.472 OA 
HETATM    9  H   UNL     1      -5.944  13.041  67.535  1.00  0.00     0.000 HD 
BRANCH   7  10
HETATM   10  C   UNL     1      -7.813  11.406  68.223  1.00  0.00    -0.132 C  
BRANCH  10  11
HETATM   11  O   UNL     1      -9.138  11.127  67.741  1.00  0.00    -0.144 OA 
BRANCH  11  12
HETATM   12  C   UNL     1     -10.144  11.336  68.663  1.00  0.00    -0.208 A  
HETATM   13  C   UNL     1     -10.590  10.323  69.522  1.00  0.00    -0.270 A  
HETATM   14  C   UNL     1     -11.604  10.563  70.442  1.00  0.00    -0.430 A  
HETATM   15  C   UNL     1     -12.169  11.829  70.534  1.00  0.00    -0.438 A  
HETATM   16  C   UNL     1     -11.719  12.875  69.718  1.00  0.00    -0.351 A  
HETATM   17  C   UNL     1     -10.693  12.643  68.764  1.00  0.00    -0.240 A  
HETATM   18  C   UNL     1     -10.285  13.738  67.966  1.00  0.00    -0.248 A  
HETATM   19  C   UNL     1     -10.858  15.007  68.112  1.00  0.00    -0.263 A  
HETATM   20  C   UNL     1     -11.856  15.215  69.059  1.00  0.00    -0.331 A  
HETATM   21  C   UNL     1     -12.284  14.154  69.852  1.00  0.00    -0.416 A  
ENDBRANCH  11  12
ENDBRANCH  10  11
ENDBRANCH   7  10
ENDBRANCH   6   7
ENDBRANCH   4   6
ENDBRANCH   2   4
TORSDOF 6
ENDMDL
MODEL      253
REMARK 921   NORMALIZED FREE ENERGY PREDICTED BY IDOCK:   -3.37 KCAL/MOL
REMARK 922        TOTAL FREE ENERGY PREDICTED BY IDOCK:   -5.23 KCAL/MOL
REMARK 923 INTER-LIGAND FREE ENERGY PREDICTED BY IDOCK:   -5.09 KCAL/MOL
REMARK 924 INTRA-LIGAND FREE ENERGY PREDICTED BY IDOCK:   -0.14 KCAL/MOL
REMARK 927      BINDING AFFINITY PREDICTED BY RF-SCORE:    0.00 PKD
ROOT
HETATM    1  C   UNL     1     -12.039  15.873  64.084  1.00  0.00     0.175 C  
HETATM    2  C   UNL     1     -10.767  15.388  64.781  1.00  0.00    -0.314 C  
HETATM    3  C   UNL     1     -10.354  16.394  65.859  1.00  0.00    -0.378 C  
ENDROOT
BRANCH   2   4
HETATM    4  N   UNL     1     -11.036  14.065  65.349  1.00  0.00    -0.309 NA 
HETATM    5  H   UNL     1     -11.356  14.144  66.314  1.00  0.00     0.000 HD 
BRANCH   4   6
HETATM    6  C   UNL     1     -11.977  13.268  64.551  1.00  0.00    -0.400 C  
BRANCH   6   7
HETATM    7  C   UNL     1     -11.515  11.805  64.521  1.00  0.00    -0.250 C  
HETATM    8  O   UNL     1     -11.396  11.360  63.160  1.00  0.00    -0.829 OA 
HETATM    9  H   UNL     1     -11.110  10.454  63.142  1.00  0.00     0.000 HD 
BRANCH   7  10
HETATM   10  C   UNL     1     -10.177  11.617  65.244  1.00  0.00    -0.272 C  
BRANCH  10  11
HETATM   11  O   UNL     1     -10.371  11.628  66.668  1.00  0.00    -0.211 OA 
BRANCH  11  12
HETATM   12  C   UNL     1      -9.698  12.633  67.334  1.00  0.00    -0.199 A  
HETATM   13  C   UNL     1      -8.349  12.918  67.086  1.00  0.00    -0.158 A  
HETATM   14  C   UNL     1      -7.698  13.937  67.771  1.00  0.00    -0.177 A  
HETATM   15  C   UNL     1      -8.394  14.704  68.696  1.00  0.00    -0.165 A  
HETATM   16  C   UNL     1      -9.755  14.473  68.938  1.00  0.00    -0.169 A  
HETATM   17  C   UNL     1     -10.432  13.428  68.256  1.00  0.00    -0.256 A  
HETATM   18  C   UNL     1     -11.803  13.240  68.548  1.00  0.00    -0.384 A  
HETATM   19  C   UNL     1     -12.478  14.057  69.463  1.00  0.00    -0.159 A  
HETATM   20  C   UNL     1     -11.798  15.082  70.114  1.00  0.00    -0.357 A  
HETATM   21  C   UNL     1     -10.445  15.284  69.854  1.00  0.00    -0.277 A  
ENDBRANCH  11  12
ENDBRANCH  10  11
ENDBRANCH   7  10
ENDBRANCH   6   7
ENDBRANCH   4   6
ENDBRANCH   2   4
TORSDOF 6
ENDMDL
MODEL      254
REMARK 921   NORMALIZED FREE ENERGY PREDICTED BY IDOCK:   -3.34 KCAL/MOL
REMARK 922        TOTAL FREE ENERGY PREDICTED BY IDOCK:   -5.19 KCAL/MOL
REMARK 923 INTER-LIGAND FREE ENERGY PREDICTED BY IDOCK:   -4.52 KCAL/MOL
REMARK 924 INTRA-LIGAND FREE ENERGY PREDICTED BY IDOCK:   -0.67 KCAL/MOL
REMARK 927      BINDING AFFINITY PREDICTED BY RF-SCORE:    0.00 PKD
ROOT
HETATM    1  C   UNL     1     -12.622  10.599  69.728  1.00  0.00    -0.091 C  
HETATM    2  C   UNL     1     -11.802  10.694  71.015  1.00  0.00    -0.296 C  
HETATM    3  C   UNL     1     -12.603  10.111  72.182  1.00  0.00    -0.227 C  
ENDROOT
BRANCH   2   4
HETATM    4  N   UNL     1     -10.544   9.973  70.808  1.00  0.00    -0.378 NA 
HETATM    5  H   UNL     1     -10.342   9.364  71.599  1.00  0.00     0.000 HD 
BRANCH   4   6
HETATM    6  C   UNL     1     -10.504   9.221  69.546  1.00  0.00    -0.220 C  
BRANCH   6   7
HETATM    7  C   UNL     1      -9.212   9.557  68.788  1.00  0.00    -0.140 C  
HETATM    8  O   UNL     1      -9.172   8.831  67.549  1.00  0.00    -0.135 OA 
HETATM    9  H   UNL     1      -8.372   9.039  67.081  1.00  0.00     0.000 HD 
BRANCH   7  10
HETATM   10  C   UNL     1      -9.091  11.059  68.510  1.00  0.00    -0.173 C  
BRANCH  10  11
HETATM   11  O   UNL     1     -10.082  11.473  67.554  1.00  0.00    -0.181 OA 
BRANCH  11  12
HETATM   12  C   UNL     1     -10.288  12.837  67.492  1.00  0.00    -0.219 A  
HETATM   13  C   UNL     1      -9.965  13.688  68.557  1.00  0.00    -0.208 A  
HETATM   14  C   UNL     1     -10.182  15.058  68.466  1.00  0.00    -0.227 A  
HETATM   15  C   UNL     1     -10.703  15.600  67.298  1.00  0.00    -0.305 A  
HETATM   16  C   UNL     1     -10.999  14.782  66.199  1.00  0.00    -0.332 A  
HETATM   17  C   UNL     1     -10.795  13.379  66.281  1.00  0.00    -0.294 A  
HETATM   18  C   UNL     1     -11.118  12.606  65.141  1.00  0.00    -0.329 A  
HETATM   19  C   UNL     1     -11.610  13.195  63.970  1.00  0.00    -0.481 A  
HETATM   20  C   UNL     1     -11.794  14.573  63.908  1.00  0.00    -0.022 A  
HETATM   21  C   UNL     1     -11.494  15.358  65.018  1.00  0.00    -0.263 A  
ENDBRANCH  11  12
ENDBRANCH  10  11
ENDBRANCH   7  10
ENDBRANCH   6   7
ENDBRANCH   4   6
ENDBRANCH   2   4
TORSDOF 6
ENDMDL
MODEL      255
REMARK 921   NORMALIZED FREE ENERGY PREDICTED BY IDOCK:   -3.33 KCAL/MOL
REMARK 922        TOTAL FREE ENERGY PREDICTED BY IDOCK:   -5.17 KCAL/MOL
REMARK 923 INTER-LIGAND FREE ENERGY PREDICTED BY IDOCK:   -4.99 KCAL/MOL
REMARK 924 INTRA-LIGAND FREE ENERGY PREDICTED BY IDOCK:   -0.19 KCAL/MOL
REMARK 927      BINDING AFFINITY PREDICTED BY RF-SCORE:    0.00 PKD
ROOT
HETATM    1  C   UNL     1      -8.463   5.825  72.752  1.00  0.00    -0.119 C  
HETATM    2  C   UNL     1      -9.788   6.555  72.976  1.00  0.00    -0.166 C  
HETATM    3  C   UNL     1     -10.386   6.138  74.322  1.00  0.00    -0.291 C  
ENDROOT
BRANCH   2   4
HETATM    4  N   UNL     1      -9.529   7.995  72.921  1.00  0.00    -0.254 NA 
HETATM    5  H   UNL     1      -9.370   8.370  73.855  1.00  0.00     0.000 HD 
BRANCH   4   6
HETATM    6  C   UNL     1      -8.426   8.355  72.019  1.00  0.00    -0.183 C  
BRANCH   6   7
HETATM    7  C   UNL     1      -8.961   9.236  70.880  1.00  0.00    -0.209 C  
HETATM    8  O   UNL     1      -7.927  10.124  70.426  1.00  0.00    -0.405 OA 
HETATM    9  H   UNL     1      -8.258  10.669  69.722  1.00  0.00     0.000 HD 
BRANCH   7  10
HETATM   10  C   UNL     1      -9.472   8.396  69.705  1.00  0.00    -0.162 C  
BRANCH  10  11
HETATM   11  O   UNL     1     -10.569   9.060  69.055  1.00  0.00    -0.223 OA 
BRANCH  11  12
HETATM   12  C   UNL     1     -11.404   9.761  69.903  1.00  0.00    -0.192 A  
HETATM   13  C   UNL     1     -11.435  11.161  69.927  1.00  0.00    -0.386 A  
HETATM   14  C   UNL     1     -12.286  11.841  70.790  1.00  0.00    -0.433 A  
HETATM   15  C   UNL     1     -13.138  11.128  71.625  1.00  0.00    -0.529 A  
HETATM   16  C   UNL     1     -13.161   9.727  71.597  1.00  0.00    -0.516 A  
HETATM   17  C   UNL     1     -12.288   9.018  70.730  1.00  0.00    -0.064 A  
HETATM   18  C   UNL     1     -12.354   7.605  70.752  1.00  0.00    -0.068 A  
HETATM   19  C   UNL     1     -13.251   6.925  71.585  1.00  0.00    -0.315 A  
HETATM   20  C   UNL     1     -14.103   7.639  72.421  1.00  0.00     0.007 A  
HETATM   21  C   UNL     1     -14.054   9.031  72.428  1.00  0.00    -0.478 A  
ENDBRANCH  11  12
ENDBRANCH  10  11
ENDBRANCH   7  10
ENDBRANCH   6   7
ENDBRANCH   4   6
ENDBRANCH   2   4
TORSDOF 6
ENDMDL
MODEL      256
REMARK 921   NORMALIZED FREE ENERGY PREDICTED BY IDOCK:   -3.31 KCAL/MOL
REMARK 922        TOTAL FREE ENERGY PREDICTED BY IDOCK:   -5.15 KCAL/MOL
REMARK 923 INTER-LIGAND FREE ENERGY PREDICTED BY IDOCK:   -4.54 KCAL/MOL
REMARK 924 INTRA-LIGAND FREE ENERGY PREDICTED BY IDOCK:   -0.61 KCAL/MOL
REMARK 927      BINDING AFFINITY PREDICTED BY RF-SCORE:    0.00 PKD
ROOT
HETATM    1  C   UNL     1     -12.094  13.138  66.118  1.00  0.00    -0.479 C  
HETATM    2  C   UNL     1     -11.608  11.887  65.386  1.00  0.00    -0.223 C  
HETATM    3  C   UNL     1     -11.556  12.158  63.880  1.00  0.00    -0.532 C  
ENDROOT
BRANCH   2   4
HETATM    4  N   UNL     1     -10.292  11.529  65.918  1.00  0.00    -0.239 NA 
HETATM    5  H   UNL     1      -9.706  11.121  65.191  1.00  0.00     0.000 HD 
BRANCH   4   6
HETATM    6  C   UNL     1      -9.605  12.650  66.574  1.00  0.00    -0.248 C  
BRANCH   6   7
HETATM    7  C   UNL     1      -8.187  12.219  66.977  1.00  0.00    -0.155 C  
HETATM    8  O   UNL     1      -7.331  13.370  67.055  1.00  0.00    -0.355 OA 
HETATM    9  H   UNL     1      -6.455  13.102  67.304  1.00  0.00     0.000 HD 
BRANCH   7  10
HETATM   10  C   UNL     1      -8.179  11.478  68.318  1.00  0.00    -0.152 C  
BRANCH  10  11
HETATM   11  O   UNL     1      -8.815  10.195  68.186  1.00  0.00    -0.124 OA 
BRANCH  11  12
HETATM   12  C   UNL     1      -8.568   9.320  69.224  1.00  0.00    -0.139 A  
HETATM   13  C   UNL     1      -7.645   9.608  70.238  1.00  0.00    -0.175 A  
HETATM   14  C   UNL     1      -7.416   8.708  71.272  1.00  0.00    -0.117 A  
HETATM   15  C   UNL     1      -8.128   7.516  71.321  1.00  0.00    -0.096 A  
HETATM   16  C   UNL     1      -9.088   7.214  70.346  1.00  0.00    -0.156 A  
HETATM   17  C   UNL     1      -9.323   8.117  69.276  1.00  0.00    -0.151 A  
HETATM   18  C   UNL     1     -10.301   7.754  68.320  1.00  0.00    -0.239 A  
HETATM   19  C   UNL     1     -11.021   6.558  68.423  1.00  0.00    -0.358 A  
HETATM   20  C   UNL     1     -10.780   5.691  69.485  1.00  0.00    -0.380 A  
HETATM   21  C   UNL     1      -9.817   6.017  70.436  1.00  0.00    -0.222 A  
ENDBRANCH  11  12
ENDBRANCH  10  11
ENDBRANCH   7  10
ENDBRANCH   6   7
ENDBRANCH   4   6
ENDBRANCH   2   4
TORSDOF 6
ENDMDL
MODEL      257
REMARK 921   NORMALIZED FREE ENERGY PREDICTED BY IDOCK:   -3.31 KCAL/MOL
REMARK 922        TOTAL FREE ENERGY PREDICTED BY IDOCK:   -5.14 KCAL/MOL
REMARK 923 INTER-LIGAND FREE ENERGY PREDICTED BY IDOCK:   -4.54 KCAL/MOL
REMARK 924 INTRA-LIGAND FREE ENERGY PREDICTED BY IDOCK:   -0.60 KCAL/MOL
REMARK 927      BINDING AFFINITY PREDICTED BY RF-SCORE:    0.00 PKD
ROOT
HETATM    1  C   UNL     1      -6.474  12.692  67.851  1.00  0.00    -0.113 C  
HETATM    2  C   UNL     1      -6.962  11.301  67.446  1.00  0.00    -0.101 C  
HETATM    3  C   UNL     1      -6.584  10.286  68.528  1.00  0.00    -0.052 C  
ENDROOT
BRANCH   2   4
HETATM    4  N   UNL     1      -8.412  11.366  67.247  1.00  0.00    -0.143 NA 
HETATM    5  H   UNL     1      -8.814  12.141  67.775  1.00  0.00     0.000 HD 
BRANCH   4   6
HETATM    6  C   UNL     1      -8.803  11.440  65.833  1.00  0.00    -0.145 C  
BRANCH   6   7
HETATM    7  C   UNL     1      -9.761  10.285  65.505  1.00  0.00    -0.265 C  
HETATM    8  O   UNL     1      -9.578   9.873  64.141  1.00  0.00    -0.367 OA 
HETATM    9  H   UNL     1     -10.171   9.159  63.939  1.00  0.00     0.000 HD 
BRANCH   7  10
HETATM   10  C   UNL     1      -9.550   9.089  66.439  1.00  0.00    -0.244 C  
BRANCH  10  11
HETATM   11  O   UNL     1     -10.658   8.958  67.344  1.00  0.00    -0.277 OA 
BRANCH  11  12
HETATM   12  C   UNL     1     -10.653   7.801  68.098  1.00  0.00    -0.124 A  
HETATM   13  C   UNL     1     -10.477   6.536  67.520  1.00  0.00    -0.297 A  
HETATM   14  C   UNL     1     -10.476   5.388  68.303  1.00  0.00    -0.191 A  
HETATM   15  C   UNL     1     -10.624   5.491  69.681  1.00  0.00    -0.375 A  
HETATM   16  C   UNL     1     -10.761   6.743  70.295  1.00  0.00    -0.284 A  
HETATM   17  C   UNL     1     -10.778   7.924  69.508  1.00  0.00    -0.195 A  
HETATM   18  C   UNL     1     -10.925   9.157  70.186  1.00  0.00    -0.267 A  
HETATM   19  C   UNL     1     -11.039   9.220  71.580  1.00  0.00    -0.443 A  
HETATM   20  C   UNL     1     -11.011   8.050  72.333  1.00  0.00    -0.402 A  
HETATM   21  C   UNL     1     -10.877   6.821  71.693  1.00  0.00    -0.259 A  
ENDBRANCH  11  12
ENDBRANCH  10  11
ENDBRANCH   7  10
ENDBRANCH   6   7
ENDBRANCH   4   6
ENDBRANCH   2   4
TORSDOF 6
ENDMDL
MODEL      258
REMARK 921   NORMALIZED FREE ENERGY PREDICTED BY IDOCK:   -3.31 KCAL/MOL
REMARK 922        TOTAL FREE ENERGY PREDICTED BY IDOCK:   -5.14 KCAL/MOL
REMARK 923 INTER-LIGAND FREE ENERGY PREDICTED BY IDOCK:   -4.44 KCAL/MOL
REMARK 924 INTRA-LIGAND FREE ENERGY PREDICTED BY IDOCK:   -0.71 KCAL/MOL
REMARK 927      BINDING AFFINITY PREDICTED BY RF-SCORE:    0.00 PKD
ROOT
HETATM    1  C   UNL     1     -12.367  12.460  64.479  1.00  0.00    -0.519 C  
HETATM    2  C   UNL     1     -11.447  13.650  64.206  1.00  0.00    -0.366 C  
HETATM    3  C   UNL     1     -12.199  14.956  64.469  1.00  0.00    -0.396 C  
ENDROOT
BRANCH   2   4
HETATM    4  N   UNL     1     -10.268  13.520  65.065  1.00  0.00    -0.499 NA 
HETATM    5  H   UNL     1      -9.650  14.324  64.954  1.00  0.00     0.000 HD 
BRANCH   4   6
HETATM    6  C   UNL     1     -10.599  13.308  66.480  1.00  0.00    -0.286 C  
BRANCH   6   7
HETATM    7  C   UNL     1      -9.314  13.353  67.320  1.00  0.00    -0.233 C  
HETATM    8  O   UNL     1      -9.647  13.405  68.716  1.00  0.00    -0.395 OA 
HETATM    9  H   UNL     1      -8.852  13.433  69.236  1.00  0.00     0.000 HD 
BRANCH   7  10
HETATM   10  C   UNL     1      -8.416  12.142  67.049  1.00  0.00    -0.183 C  
BRANCH  10  11
HETATM   11  O   UNL     1      -9.082  11.208  66.182  1.00  0.00    -0.189 OA 
BRANCH  11  12
HETATM   12  C   UNL     1      -9.388   9.996  66.768  1.00  0.00    -0.160 A  
HETATM   13  C   UNL     1     -10.446   9.854  67.676  1.00  0.00    -0.296 A  
HETATM   14  C   UNL     1     -10.733   8.621  68.250  1.00  0.00    -0.107 A  
HETATM   15  C   UNL     1      -9.981   7.505  67.903  1.00  0.00    -0.203 A  
HETATM   16  C   UNL     1      -8.943   7.604  66.967  1.00  0.00    -0.148 A  
HETATM   17  C   UNL     1      -8.629   8.859  66.382  1.00  0.00    -0.136 A  
HETATM   18  C   UNL     1      -7.567   8.895  65.448  1.00  0.00    -0.087 A  
HETATM   19  C   UNL     1      -6.855   7.740  65.100  1.00  0.00    -0.051 A  
HETATM   20  C   UNL     1      -7.185   6.519  65.679  1.00  0.00    -0.073 A  
HETATM   21  C   UNL     1      -8.220   6.454  66.609  1.00  0.00    -0.111 A  
ENDBRANCH  11  12
ENDBRANCH  10  11
ENDBRANCH   7  10
ENDBRANCH   6   7
ENDBRANCH   4   6
ENDBRANCH   2   4
TORSDOF 6
ENDMDL
MODEL      259
REMARK 921   NORMALIZED FREE ENERGY PREDICTED BY IDOCK:   -3.26 KCAL/MOL
REMARK 922        TOTAL FREE ENERGY PREDICTED BY IDOCK:   -5.09 KCAL/MOL
REMARK 923 INTER-LIGAND FREE ENERGY PREDICTED BY IDOCK:   -4.60 KCAL/MOL
REMARK 924 INTRA-LIGAND FREE ENERGY PREDICTED BY IDOCK:   -0.48 KCAL/MOL
REMARK 927      BINDING AFFINITY PREDICTED BY RF-SCORE:    0.00 PKD
ROOT
HETATM    1  C   UNL     1      -6.773  17.343  66.247  1.00  0.00    -0.295 C  
HETATM    2  C   UNL     1      -7.887  18.016  67.049  1.00  0.00    -0.218 C  
HETATM    3  C   UNL     1      -8.412  19.232  66.282  1.00  0.00    -0.328 C  
ENDROOT
BRANCH   2   4
HETATM    4  N   UNL     1      -8.941  17.027  67.284  1.00  0.00    -0.213 NA 
HETATM    5  H   UNL     1      -9.814  17.484  67.546  1.00  0.00     0.000 HD 
BRANCH   4   6
HETATM    6  C   UNL     1      -9.148  16.116  66.150  1.00  0.00    -0.347 C  
BRANCH   6   7
HETATM    7  C   UNL     1     -10.647  16.032  65.827  1.00  0.00    -0.353 C  
HETATM    8  O   UNL     1     -10.828  15.648  64.455  1.00  0.00    -0.743 OA 
HETATM    9  H   UNL     1     -11.755  15.597  64.255  1.00  0.00     0.000 HD 
BRANCH   7  10
HETATM   10  C   UNL     1     -11.371  15.037  66.741  1.00  0.00    -0.293 C  
BRANCH  10  11
HETATM   11  O   UNL     1     -10.432  14.378  67.607  1.00  0.00    -0.243 OA 
BRANCH  11  12
HETATM   12  C   UNL     1     -10.198  13.052  67.301  1.00  0.00    -0.239 A  
HETATM   13  C   UNL     1     -11.241  12.138  67.104  1.00  0.00    -0.372 A  
HETATM   14  C   UNL     1     -10.977  10.809  66.796  1.00  0.00    -0.214 A  
HETATM   15  C   UNL     1      -9.663  10.380  66.654  1.00  0.00    -0.236 A  
HETATM   16  C   UNL     1      -8.597  11.277  66.804  1.00  0.00    -0.159 A  
HETATM   17  C   UNL     1      -8.850  12.635  67.132  1.00  0.00    -0.204 A  
HETATM   18  C   UNL     1      -7.732  13.490  67.275  1.00  0.00    -0.093 A  
HETATM   19  C   UNL     1      -6.424  13.026  67.091  1.00  0.00     0.204 A  
HETATM   20  C   UNL     1      -6.199  11.693  66.761  1.00  0.00    -0.123 A  
HETATM   21  C   UNL     1      -7.279  10.826  66.623  1.00  0.00    -0.134 A  
ENDBRANCH  11  12
ENDBRANCH  10  11
ENDBRANCH   7  10
ENDBRANCH   6   7
ENDBRANCH   4   6
ENDBRANCH   2   4
TORSDOF 6
ENDMDL
MODEL      260
REMARK 921   NORMALIZED FREE ENERGY PREDICTED BY IDOCK:   -3.26 KCAL/MOL
REMARK 922        TOTAL FREE ENERGY PREDICTED BY IDOCK:   -5.08 KCAL/MOL
REMARK 923 INTER-LIGAND FREE ENERGY PREDICTED BY IDOCK:   -4.15 KCAL/MOL
REMARK 924 INTRA-LIGAND FREE ENERGY PREDICTED BY IDOCK:   -0.93 KCAL/MOL
REMARK 927      BINDING AFFINITY PREDICTED BY RF-SCORE:    0.00 PKD
ROOT
HETATM    1  C   UNL     1      -9.826   8.753  68.336  1.00  0.00    -0.189 C  
HETATM    2  C   UNL     1      -9.769   9.963  69.269  1.00  0.00    -0.208 C  
HETATM    3  C   UNL     1     -10.730   9.755  70.442  1.00  0.00    -0.368 C  
ENDROOT
BRANCH   2   4
HETATM    4  N   UNL     1      -8.387  10.124  69.723  1.00  0.00    -0.294 NA 
HETATM    5  H   UNL     1      -8.345  10.185  70.740  1.00  0.00     0.000 HD 
BRANCH   4   6
HETATM    6  C   UNL     1      -7.484   9.077  69.225  1.00  0.00    -0.075 C  
BRANCH   6   7
HETATM    7  C   UNL     1      -6.385   9.714  68.362  1.00  0.00    -0.051 C  
HETATM    8  O   UNL     1      -5.252   8.834  68.289  1.00  0.00    -0.033 OA 
HETATM    9  H   UNL     1      -4.573   9.228  67.755  1.00  0.00     0.000 HD 
BRANCH   7  10
HETATM   10  C   UNL     1      -6.886  10.029  66.948  1.00  0.00    -0.087 C  
BRANCH  10  11
HETATM   11  O   UNL     1      -7.475  11.340  66.906  1.00  0.00    -0.131 OA 
BRANCH  11  12
HETATM   12  C   UNL     1      -8.535  11.467  66.030  1.00  0.00    -0.058 A  
HETATM   13  C   UNL     1      -8.746  10.564  64.979  1.00  0.00    -0.193 A  
HETATM   14  C   UNL     1      -9.822  10.716  64.114  1.00  0.00    -0.396 A  
HETATM   15  C   UNL     1     -10.719  11.759  64.302  1.00  0.00    -0.395 A  
HETATM   16  C   UNL     1     -10.561  12.656  65.367  1.00  0.00    -0.307 A  
HETATM   17  C   UNL     1      -9.459  12.523  66.252  1.00  0.00    -0.210 A  
HETATM   18  C   UNL     1      -9.351  13.462  67.304  1.00  0.00    -0.233 A  
HETATM   19  C   UNL     1     -10.295  14.481  67.479  1.00  0.00    -0.244 A  
HETATM   20  C   UNL     1     -11.373  14.589  66.605  1.00  0.00    -0.359 A  
HETATM   21  C   UNL     1     -11.500  13.684  65.554  1.00  0.00    -0.317 A  
ENDBRANCH  11  12
ENDBRANCH  10  11
ENDBRANCH   7  10
ENDBRANCH   6   7
ENDBRANCH   4   6
ENDBRANCH   2   4
TORSDOF 6
ENDMDL
MODEL      261
REMARK 921   NORMALIZED FREE ENERGY PREDICTED BY IDOCK:   -3.26 KCAL/MOL
REMARK 922        TOTAL FREE ENERGY PREDICTED BY IDOCK:   -5.08 KCAL/MOL
REMARK 923 INTER-LIGAND FREE ENERGY PREDICTED BY IDOCK:   -4.61 KCAL/MOL
REMARK 924 INTRA-LIGAND FREE ENERGY PREDICTED BY IDOCK:   -0.47 KCAL/MOL
REMARK 927      BINDING AFFINITY PREDICTED BY RF-SCORE:    0.00 PKD
ROOT
HETATM    1  C   UNL     1      -9.193  10.259  64.394  1.00  0.00    -0.296 C  
HETATM    2  C   UNL     1      -8.924   9.794  65.826  1.00  0.00    -0.160 C  
HETATM    3  C   UNL     1      -9.694   8.501  66.101  1.00  0.00    -0.259 C  
ENDROOT
BRANCH   2   4
HETATM    4  N   UNL     1      -7.479   9.608  65.980  1.00  0.00    -0.097 NA 
HETATM    5  H   UNL     1      -7.028   9.510  65.070  1.00  0.00     0.000 HD 
BRANCH   4   6
HETATM    6  C   UNL     1      -6.836  10.667  66.769  1.00  0.00    -0.108 C  
BRANCH   6   7
HETATM    7  C   UNL     1      -7.792  11.134  67.876  1.00  0.00    -0.111 C  
HETATM    8  O   UNL     1      -7.291  10.722  69.158  1.00  0.00    -0.094 OA 
HETATM    9  H   UNL     1      -7.883  11.011  69.843  1.00  0.00     0.000 HD 
BRANCH   7  10
HETATM   10  C   UNL     1      -7.979  12.655  67.860  1.00  0.00    -0.156 C  
BRANCH  10  11
HETATM   11  O   UNL     1      -9.128  13.011  67.074  1.00  0.00    -0.216 OA 
BRANCH  11  12
HETATM   12  C   UNL     1     -10.013  13.866  67.700  1.00  0.00    -0.237 A  
HETATM   13  C   UNL     1     -10.962  13.410  68.624  1.00  0.00    -0.288 A  
HETATM   14  C   UNL     1     -11.840  14.294  69.240  1.00  0.00    -0.372 A  
HETATM   15  C   UNL     1     -11.763  15.653  68.960  1.00  0.00    -0.408 A  
HETATM   16  C   UNL     1     -10.799  16.147  68.071  1.00  0.00    -0.333 A  
HETATM   17  C   UNL     1      -9.904  15.256  67.424  1.00  0.00    -0.217 A  
HETATM   18  C   UNL     1      -8.957  15.815  66.534  1.00  0.00    -0.341 A  
HETATM   19  C   UNL     1      -8.891  17.195  66.303  1.00  0.00    -0.266 A  
HETATM   20  C   UNL     1      -9.773  18.052  66.955  1.00  0.00    -0.314 A  
HETATM   21  C   UNL     1     -10.722  17.529  67.829  1.00  0.00    -0.333 A  
ENDBRANCH  11  12
ENDBRANCH  10  11
ENDBRANCH   7  10
ENDBRANCH   6   7
ENDBRANCH   4   6
ENDBRANCH   2   4
TORSDOF 6
ENDMDL
MODEL      262
REMARK 921   NORMALIZED FREE ENERGY PREDICTED BY IDOCK:   -3.26 KCAL/MOL
REMARK 922        TOTAL FREE ENERGY PREDICTED BY IDOCK:   -5.08 KCAL/MOL
REMARK 923 INTER-LIGAND FREE ENERGY PREDICTED BY IDOCK:   -4.84 KCAL/MOL
REMARK 924 INTRA-LIGAND FREE ENERGY PREDICTED BY IDOCK:   -0.23 KCAL/MOL
REMARK 927      BINDING AFFINITY PREDICTED BY RF-SCORE:    0.00 PKD
ROOT
HETATM    1  C   UNL     1     -10.066  16.570  65.774  1.00  0.00    -0.328 C  
HETATM    2  C   UNL     1     -10.215  17.653  66.843  1.00  0.00    -0.334 C  
HETATM    3  C   UNL     1     -10.625  18.973  66.185  1.00  0.00    -0.495 C  
ENDROOT
BRANCH   2   4
HETATM    4  N   UNL     1     -11.212  17.200  67.815  1.00  0.00    -0.056 NA 
HETATM    5  H   UNL     1     -11.725  16.394  67.458  1.00  0.00     0.000 HD 
BRANCH   4   6
HETATM    6  C   UNL     1     -10.646  16.914  69.140  1.00  0.00    -0.330 C  
BRANCH   6   7
HETATM    7  C   UNL     1     -10.575  15.394  69.350  1.00  0.00    -0.251 C  
HETATM    8  O   UNL     1     -10.581  15.096  70.755  1.00  0.00    -0.524 OA 
HETATM    9  H   UNL     1     -10.537  14.157  70.885  1.00  0.00     0.000 HD 
BRANCH   7  10
HETATM   10  C   UNL     1     -11.738  14.671  68.664  1.00  0.00    -0.329 C  
BRANCH  10  11
HETATM   11  O   UNL     1     -11.302  14.081  67.427  1.00  0.00    -0.302 OA 
BRANCH  11  12
HETATM   12  C   UNL     1     -10.816  12.795  67.541  1.00  0.00    -0.239 A  
HETATM   13  C   UNL     1     -11.647  11.672  67.432  1.00  0.00    -0.330 A  
HETATM   14  C   UNL     1     -11.130  10.387  67.550  1.00  0.00    -0.336 A  
HETATM   15  C   UNL     1      -9.768  10.206  67.755  1.00  0.00    -0.176 A  
HETATM   16  C   UNL     1      -8.902  11.306  67.829  1.00  0.00    -0.141 A  
HETATM   17  C   UNL     1      -9.417  12.625  67.723  1.00  0.00    -0.198 A  
HETATM   18  C   UNL     1      -8.494  13.693  67.811  1.00  0.00    -0.183 A  
HETATM   19  C   UNL     1      -7.123  13.467  67.984  1.00  0.00    -0.127 A  
HETATM   20  C   UNL     1      -6.639  12.166  68.077  1.00  0.00    -0.069 A  
HETATM   21  C   UNL     1      -7.525  11.095  68.003  1.00  0.00    -0.094 A  
ENDBRANCH  11  12
ENDBRANCH  10  11
ENDBRANCH   7  10
ENDBRANCH   6   7
ENDBRANCH   4   6
ENDBRANCH   2   4
TORSDOF 6
ENDMDL
MODEL      263
REMARK 921   NORMALIZED FREE ENERGY PREDICTED BY IDOCK:   -3.23 KCAL/MOL
REMARK 922        TOTAL FREE ENERGY PREDICTED BY IDOCK:   -5.04 KCAL/MOL
REMARK 923 INTER-LIGAND FREE ENERGY PREDICTED BY IDOCK:   -4.05 KCAL/MOL
REMARK 924 INTRA-LIGAND FREE ENERGY PREDICTED BY IDOCK:   -0.99 KCAL/MOL
REMARK 927      BINDING AFFINITY PREDICTED BY RF-SCORE:    0.00 PKD
ROOT
HETATM    1  C   UNL     1     -10.069  11.025  67.064  1.00  0.00    -0.232 C  
HETATM    2  C   UNL     1     -10.160   9.889  68.083  1.00  0.00    -0.165 C  
HETATM    3  C   UNL     1     -11.177  10.251  69.168  1.00  0.00    -0.268 C  
ENDROOT
BRANCH   2   4
HETATM    4  N   UNL     1     -10.538   8.667  67.371  1.00  0.00    -0.400 NA 
HETATM    5  H   UNL     1     -11.458   8.768  66.942  1.00  0.00     0.000 HD 
BRANCH   4   6
HETATM    6  C   UNL     1      -9.543   8.240  66.378  1.00  0.00    -0.230 C  
BRANCH   6   7
HETATM    7  C   UNL     1      -9.340   6.721  66.476  1.00  0.00    -0.161 C  
HETATM    8  O   UNL     1      -8.901   6.206  65.208  1.00  0.00    -0.328 OA 
HETATM    9  H   UNL     1      -8.776   5.267  65.269  1.00  0.00     0.000 HD 
BRANCH   7  10
HETATM   10  C   UNL     1      -8.323   6.353  67.561  1.00  0.00    -0.117 C  
BRANCH  10  11
HETATM   11  O   UNL     1      -8.996   6.040  68.793  1.00  0.00    -0.119 OA 
BRANCH  11  12
HETATM   12  C   UNL     1      -8.609   6.808  69.873  1.00  0.00    -0.141 A  
HETATM   13  C   UNL     1      -7.374   7.469  69.912  1.00  0.00    -0.082 A  
HETATM   14  C   UNL     1      -7.011   8.237  71.012  1.00  0.00    -0.054 A  
HETATM   15  C   UNL     1      -7.889   8.375  72.079  1.00  0.00    -0.171 A  
HETATM   16  C   UNL     1      -9.148   7.760  72.055  1.00  0.00    -0.180 A  
HETATM   17  C   UNL     1      -9.529   6.962  70.945  1.00  0.00    -0.157 A  
HETATM   18  C   UNL     1     -10.810   6.363  70.982  1.00  0.00    -0.314 A  
HETATM   19  C   UNL     1     -11.679   6.554  72.063  1.00  0.00    -0.367 A  
HETATM   20  C   UNL     1     -11.289   7.347  73.137  1.00  0.00    -0.209 A  
HETATM   21  C   UNL     1     -10.030   7.942  73.133  1.00  0.00    -0.358 A  
ENDBRANCH  11  12
ENDBRANCH  10  11
ENDBRANCH   7  10
ENDBRANCH   6   7
ENDBRANCH   4   6
ENDBRANCH   2   4
TORSDOF 6
ENDMDL
MODEL      264
REMARK 921   NORMALIZED FREE ENERGY PREDICTED BY IDOCK:   -3.23 KCAL/MOL
REMARK 922        TOTAL FREE ENERGY PREDICTED BY IDOCK:   -5.04 KCAL/MOL
REMARK 923 INTER-LIGAND FREE ENERGY PREDICTED BY IDOCK:   -4.70 KCAL/MOL
REMARK 924 INTRA-LIGAND FREE ENERGY PREDICTED BY IDOCK:   -0.34 KCAL/MOL
REMARK 927      BINDING AFFINITY PREDICTED BY RF-SCORE:    0.00 PKD
ROOT
HETATM    1  C   UNL     1      -8.668   4.684  66.594  1.00  0.00    -0.111 C  
HETATM    2  C   UNL     1      -7.976   5.664  65.646  1.00  0.00    -0.111 C  
HETATM    3  C   UNL     1      -7.446   4.912  64.423  1.00  0.00    -0.068 C  
ENDROOT
BRANCH   2   4
HETATM    4  N   UNL     1      -8.945   6.695  65.269  1.00  0.00    -0.357 NA 
HETATM    5  H   UNL     1      -9.749   6.682  65.896  1.00  0.00     0.000 HD 
BRANCH   4   6
HETATM    6  C   UNL     1      -8.364   8.042  65.195  1.00  0.00    -0.130 C  
BRANCH   6   7
HETATM    7  C   UNL     1      -9.380   9.069  65.716  1.00  0.00    -0.236 C  
HETATM    8  O   UNL     1      -9.701   8.785  67.086  1.00  0.00    -0.165 OA 
HETATM    9  H   UNL     1     -10.330   9.420  67.408  1.00  0.00     0.000 HD 
BRANCH   7  10
HETATM   10  C   UNL     1      -8.851  10.502  65.596  1.00  0.00    -0.182 C  
BRANCH  10  11
HETATM   11  O   UNL     1      -9.628  11.393  66.415  1.00  0.00    -0.195 OA 
BRANCH  11  12
HETATM   12  C   UNL     1     -10.227  12.431  65.729  1.00  0.00    -0.260 A  
HETATM   13  C   UNL     1     -11.310  12.224  64.865  1.00  0.00    -0.373 A  
HETATM   14  C   UNL     1     -11.895  13.288  64.188  1.00  0.00    -0.497 A  
HETATM   15  C   UNL     1     -11.422  14.579  64.386  1.00  0.00    -0.282 A  
HETATM   16  C   UNL     1     -10.367  14.825  65.275  1.00  0.00    -0.425 A  
HETATM   17  C   UNL     1      -9.750  13.748  65.964  1.00  0.00    -0.255 A  
HETATM   18  C   UNL     1      -8.686  14.060  66.843  1.00  0.00    -0.185 A  
HETATM   19  C   UNL     1      -8.260  15.379  67.040  1.00  0.00    -0.270 A  
HETATM   20  C   UNL     1      -8.884  16.421  66.362  1.00  0.00    -0.346 A  
HETATM   21  C   UNL     1      -9.927  16.143  65.482  1.00  0.00    -0.251 A  
ENDBRANCH  11  12
ENDBRANCH  10  11
ENDBRANCH   7  10
ENDBRANCH   6   7
ENDBRANCH   4   6
ENDBRANCH   2   4
TORSDOF 6
ENDMDL
MODEL      265
REMARK 921   NORMALIZED FREE ENERGY PREDICTED BY IDOCK:   -3.23 KCAL/MOL
REMARK 922        TOTAL FREE ENERGY PREDICTED BY IDOCK:   -5.04 KCAL/MOL
REMARK 923 INTER-LIGAND FREE ENERGY PREDICTED BY IDOCK:   -4.41 KCAL/MOL
REMARK 924 INTRA-LIGAND FREE ENERGY PREDICTED BY IDOCK:   -0.63 KCAL/MOL
REMARK 927      BINDING AFFINITY PREDICTED BY RF-SCORE:    0.00 PKD
ROOT
HETATM    1  C   UNL     1      -8.178  15.030  68.539  1.00  0.00    -0.151 C  
HETATM    2  C   UNL     1      -9.583  15.621  68.666  1.00  0.00    -0.202 C  
HETATM    3  C   UNL     1      -9.816  16.639  67.547  1.00  0.00    -0.253 C  
ENDROOT
BRANCH   2   4
HETATM    4  N   UNL     1     -10.547  14.521  68.608  1.00  0.00    -0.248 NA 
HETATM    5  H   UNL     1     -10.691  14.117  69.533  1.00  0.00     0.000 HD 
BRANCH   4   6
HETATM    6  C   UNL     1     -11.829  14.902  67.999  1.00  0.00    -0.268 C  
BRANCH   6   7
HETATM    7  C   UNL     1     -12.261  13.824  66.994  1.00  0.00    -0.340 C  
HETATM    8  O   UNL     1     -13.014  14.425  65.929  1.00  0.00    -0.432 OA 
HETATM    9  H   UNL     1     -13.281  13.759  65.308  1.00  0.00     0.000 HD 
BRANCH   7  10
HETATM   10  C   UNL     1     -11.057  13.073  66.415  1.00  0.00    -0.287 C  
BRANCH  10  11
HETATM   11  O   UNL     1     -11.325  11.661  66.363  1.00  0.00    -0.323 OA 
BRANCH  11  12
HETATM   12  C   UNL     1     -10.487  10.887  67.140  1.00  0.00    -0.237 A  
HETATM   13  C   UNL     1     -10.528  10.917  68.540  1.00  0.00    -0.209 A  
HETATM   14  C   UNL     1      -9.673  10.126  69.296  1.00  0.00    -0.238 A  
HETATM   15  C   UNL     1      -8.779   9.271  68.662  1.00  0.00    -0.132 A  
HETATM   16  C   UNL     1      -8.739   9.186  67.264  1.00  0.00    -0.122 A  
HETATM   17  C   UNL     1      -9.598   9.998  66.477  1.00  0.00    -0.237 A  
HETATM   18  C   UNL     1      -9.506   9.871  65.071  1.00  0.00    -0.343 A  
HETATM   19  C   UNL     1      -8.615   8.974  64.471  1.00  0.00    -0.181 A  
HETATM   20  C   UNL     1      -7.788   8.181  65.262  1.00  0.00    -0.115 A  
HETATM   21  C   UNL     1      -7.849   8.292  66.648  1.00  0.00    -0.094 A  
ENDBRANCH  11  12
ENDBRANCH  10  11
ENDBRANCH   7  10
ENDBRANCH   6   7
ENDBRANCH   4   6
ENDBRANCH   2   4
TORSDOF 6
ENDMDL
MODEL      266
REMARK 921   NORMALIZED FREE ENERGY PREDICTED BY IDOCK:   -3.22 KCAL/MOL
REMARK 922        TOTAL FREE ENERGY PREDICTED BY IDOCK:   -5.03 KCAL/MOL
REMARK 923 INTER-LIGAND FREE ENERGY PREDICTED BY IDOCK:   -4.38 KCAL/MOL
REMARK 924 INTRA-LIGAND FREE ENERGY PREDICTED BY IDOCK:   -0.65 KCAL/MOL
REMARK 927      BINDING AFFINITY PREDICTED BY RF-SCORE:    0.00 PKD
ROOT
HETATM    1  C   UNL     1      -7.599   7.107  67.196  1.00  0.00    -0.103 C  
HETATM    2  C   UNL     1      -7.376   7.576  65.758  1.00  0.00    -0.070 C  
HETATM    3  C   UNL     1      -8.031   6.592  64.787  1.00  0.00    -0.120 C  
ENDROOT
BRANCH   2   4
HETATM    4  N   UNL     1      -7.938   8.922  65.627  1.00  0.00    -0.095 NA 
HETATM    5  H   UNL     1      -7.280   9.624  65.966  1.00  0.00     0.000 HD 
BRANCH   4   6
HETATM    6  C   UNL     1      -8.380   9.239  64.262  1.00  0.00    -0.177 C  
BRANCH   6   7
HETATM    7  C   UNL     1      -9.347  10.431  64.298  1.00  0.00    -0.277 C  
HETATM    8  O   UNL     1     -10.213  10.390  63.153  1.00  0.00    -0.466 OA 
HETATM    9  H   UNL     1     -10.811  11.127  63.176  1.00  0.00     0.000 HD 
BRANCH   7  10
HETATM   10  C   UNL     1     -10.186  10.441  65.580  1.00  0.00    -0.238 C  
BRANCH  10  11
HETATM   11  O   UNL     1      -9.636  11.367  66.532  1.00  0.00    -0.189 OA 
BRANCH  11  12
HETATM   12  C   UNL     1     -10.341  12.546  66.664  1.00  0.00    -0.227 A  
HETATM   13  C   UNL     1     -11.663  12.678  66.216  1.00  0.00    -0.460 A  
HETATM   14  C   UNL     1     -12.349  13.877  66.362  1.00  0.00    -0.468 A  
HETATM   15  C   UNL     1     -11.733  14.956  66.984  1.00  0.00    -0.274 A  
HETATM   16  C   UNL     1     -10.427  14.846  67.479  1.00  0.00    -0.254 A  
HETATM   17  C   UNL     1      -9.707  13.632  67.326  1.00  0.00    -0.243 A  
HETATM   18  C   UNL     1      -8.391  13.585  67.842  1.00  0.00    -0.175 A  
HETATM   19  C   UNL     1      -7.817  14.684  68.492  1.00  0.00    -0.133 A  
HETATM   20  C   UNL     1      -8.543  15.862  68.639  1.00  0.00    -0.198 A  
HETATM   21  C   UNL     1      -9.837  15.941  68.132  1.00  0.00    -0.214 A  
ENDBRANCH  11  12
ENDBRANCH  10  11
ENDBRANCH   7  10
ENDBRANCH   6   7
ENDBRANCH   4   6
ENDBRANCH   2   4
TORSDOF 6
ENDMDL
MODEL      267
REMARK 921   NORMALIZED FREE ENERGY PREDICTED BY IDOCK:   -3.21 KCAL/MOL
REMARK 922        TOTAL FREE ENERGY PREDICTED BY IDOCK:   -5.02 KCAL/MOL
REMARK 923 INTER-LIGAND FREE ENERGY PREDICTED BY IDOCK:   -4.70 KCAL/MOL
REMARK 924 INTRA-LIGAND FREE ENERGY PREDICTED BY IDOCK:   -0.32 KCAL/MOL
REMARK 927      BINDING AFFINITY PREDICTED BY RF-SCORE:    0.00 PKD
ROOT
HETATM    1  C   UNL     1     -12.245  13.937  66.932  1.00  0.00    -0.415 C  
HETATM    2  C   UNL     1     -11.737  12.875  65.956  1.00  0.00    -0.404 C  
HETATM    3  C   UNL     1     -10.494  13.394  65.230  1.00  0.00    -0.334 C  
ENDROOT
BRANCH   2   4
HETATM    4  N   UNL     1     -11.451  11.657  66.717  1.00  0.00    -0.481 NA 
HETATM    5  H   UNL     1     -10.457  11.434  66.683  1.00  0.00     0.000 HD 
BRANCH   4   6
HETATM    6  C   UNL     1     -11.927  11.711  68.106  1.00  0.00    -0.144 C  
BRANCH   6   7
HETATM    7  C   UNL     1     -10.755  12.057  69.036  1.00  0.00    -0.136 C  
HETATM    8  O   UNL     1     -11.257  12.563  70.283  1.00  0.00    -0.368 OA 
HETATM    9  H   UNL     1     -10.533  12.776  70.859  1.00  0.00     0.000 HD 
BRANCH   7  10
HETATM   10  C   UNL     1      -9.860  10.841  69.296  1.00  0.00    -0.138 C  
BRANCH  10  11
HETATM   11  O   UNL     1     -10.086   9.829  68.300  1.00  0.00    -0.152 OA 
BRANCH  11  12
HETATM   12  C   UNL     1     -10.406   8.585  68.804  1.00  0.00    -0.213 A  
HETATM   13  C   UNL     1     -11.190   8.426  69.955  1.00  0.00    -0.029 A  
HETATM   14  C   UNL     1     -11.498   7.161  70.440  1.00  0.00    -0.317 A  
HETATM   15  C   UNL     1     -11.046   6.033  69.765  1.00  0.00    -0.476 A  
HETATM   16  C   UNL     1     -10.294   6.155  68.589  1.00  0.00    -0.250 A  
HETATM   17  C   UNL     1      -9.961   7.441  68.088  1.00  0.00    -0.190 A  
HETATM   18  C   UNL     1      -9.195   7.499  66.900  1.00  0.00    -0.181 A  
HETATM   19  C   UNL     1      -8.787   6.338  66.232  1.00  0.00    -0.153 A  
HETATM   20  C   UNL     1      -9.132   5.088  66.735  1.00  0.00    -0.118 A  
HETATM   21  C   UNL     1      -9.877   5.000  67.908  1.00  0.00    -0.200 A  
ENDBRANCH  11  12
ENDBRANCH  10  11
ENDBRANCH   7  10
ENDBRANCH   6   7
ENDBRANCH   4   6
ENDBRANCH   2   4
TORSDOF 6
ENDMDL
MODEL      268
REMARK 921   NORMALIZED FREE ENERGY PREDICTED BY IDOCK:   -3.21 KCAL/MOL
REMARK 922        TOTAL FREE ENERGY PREDICTED BY IDOCK:   -5.01 KCAL/MOL
REMARK 923 INTER-LIGAND FREE ENERGY PREDICTED BY IDOCK:   -4.85 KCAL/MOL
REMARK 924 INTRA-LIGAND FREE ENERGY PREDICTED BY IDOCK:   -0.16 KCAL/MOL
REMARK 927      BINDING AFFINITY PREDICTED BY RF-SCORE:    0.00 PKD
ROOT
HETATM    1  C   UNL     1      -9.508  10.425  62.550  1.00  0.00    -0.292 C  
HETATM    2  C   UNL     1      -8.701   9.854  63.717  1.00  0.00    -0.213 C  
HETATM    3  C   UNL     1      -7.434   9.179  63.187  1.00  0.00    -0.100 C  
ENDROOT
BRANCH   2   4
HETATM    4  N   UNL     1      -8.387  10.951  64.634  1.00  0.00    -0.375 NA 
HETATM    5  H   UNL     1      -8.425  11.849  64.151  1.00  0.00     0.000 HD 
BRANCH   4   6
HETATM    6  C   UNL     1      -9.235  10.968  65.834  1.00  0.00    -0.199 C  
BRANCH   6   7
HETATM    7  C   UNL     1      -8.518  10.239  66.980  1.00  0.00    -0.129 C  
HETATM    8  O   UNL     1      -7.144  10.654  67.036  1.00  0.00    -0.091 OA 
HETATM    9  H   UNL     1      -6.700  10.203  67.745  1.00  0.00     0.000 HD 
BRANCH   7  10
HETATM   10  C   UNL     1      -9.192  10.502  68.331  1.00  0.00    -0.154 C  
BRANCH  10  11
HETATM   11  O   UNL     1     -10.566  10.080  68.296  1.00  0.00    -0.200 OA 
BRANCH  11  12
HETATM   12  C   UNL     1     -10.757   8.724  68.467  1.00  0.00    -0.060 A  
HETATM   13  C   UNL     1     -10.764   7.831  67.387  1.00  0.00    -0.300 A  
HETATM   14  C   UNL     1     -10.957   6.469  67.589  1.00  0.00    -0.426 A  
HETATM   15  C   UNL     1     -11.121   5.977  68.878  1.00  0.00    -0.349 A  
HETATM   16  C   UNL     1     -11.078   6.838  69.983  1.00  0.00    -0.366 A  
HETATM   17  C   UNL     1     -10.895   8.232  69.793  1.00  0.00    -0.186 A  
HETATM   18  C   UNL     1     -10.867   9.050  70.947  1.00  0.00    -0.323 A  
HETATM   19  C   UNL     1     -11.002   8.510  72.232  1.00  0.00    -0.426 A  
HETATM   20  C   UNL     1     -11.173   7.139  72.397  1.00  0.00    -0.309 A  
HETATM   21  C   UNL     1     -11.214   6.311  71.278  1.00  0.00    -0.355 A  
ENDBRANCH  11  12
ENDBRANCH  10  11
ENDBRANCH   7  10
ENDBRANCH   6   7
ENDBRANCH   4   6
ENDBRANCH   2   4
TORSDOF 6
ENDMDL
MODEL      269
REMARK 921   NORMALIZED FREE ENERGY PREDICTED BY IDOCK:   -3.17 KCAL/MOL
REMARK 922        TOTAL FREE ENERGY PREDICTED BY IDOCK:   -4.96 KCAL/MOL
REMARK 923 INTER-LIGAND FREE ENERGY PREDICTED BY IDOCK:   -5.04 KCAL/MOL
REMARK 924 INTRA-LIGAND FREE ENERGY PREDICTED BY IDOCK:    0.07 KCAL/MOL
REMARK 927      BINDING AFFINITY PREDICTED BY RF-SCORE:    0.00 PKD
ROOT
HETATM    1  C   UNL     1      -7.635  16.307  68.632  1.00  0.00    -0.188 C  
HETATM    2  C   UNL     1      -9.108  16.085  68.977  1.00  0.00    -0.242 C  
HETATM    3  C   UNL     1      -9.975  17.079  68.200  1.00  0.00    -0.287 C  
ENDROOT
BRANCH   2   4
HETATM    4  N   UNL     1      -9.449  14.699  68.651  1.00  0.00    -0.209 NA 
HETATM    5  H   UNL     1      -9.995  14.653  67.791  1.00  0.00     0.000 HD 
BRANCH   4   6
HETATM    6  C   UNL     1      -8.278  13.814  68.572  1.00  0.00    -0.124 C  
BRANCH   6   7
HETATM    7  C   UNL     1      -8.701  12.453  67.999  1.00  0.00    -0.186 C  
HETATM    8  O   UNL     1      -7.976  11.402  68.657  1.00  0.00    -0.135 OA 
HETATM    9  H   UNL     1      -8.237  10.561  68.302  1.00  0.00     0.000 HD 
BRANCH   7  10
HETATM   10  C   UNL     1     -10.207  12.215  68.153  1.00  0.00    -0.203 C  
BRANCH  10  11
HETATM   11  O   UNL     1     -10.610  11.058  67.402  1.00  0.00    -0.209 OA 
BRANCH  11  12
HETATM   12  C   UNL     1     -10.483  11.185  66.033  1.00  0.00    -0.256 A  
HETATM   13  C   UNL     1      -9.721  10.291  65.269  1.00  0.00    -0.354 A  
HETATM   14  C   UNL     1      -9.611  10.443  63.893  1.00  0.00    -0.370 A  
HETATM   15  C   UNL     1     -10.283  11.478  63.255  1.00  0.00    -0.432 A  
HETATM   16  C   UNL     1     -11.086  12.366  63.983  1.00  0.00    -0.452 A  
HETATM   17  C   UNL     1     -11.198  12.232  65.392  1.00  0.00    -0.372 A  
HETATM   18  C   UNL     1     -12.019  13.162  66.071  1.00  0.00    -0.488 A  
HETATM   19  C   UNL     1     -12.707  14.172  65.387  1.00  0.00    -0.453 A  
HETATM   20  C   UNL     1     -12.589  14.280  64.005  1.00  0.00    -0.007 A  
HETATM   21  C   UNL     1     -11.781  13.385  63.311  1.00  0.00    -0.070 A  
ENDBRANCH  11  12
ENDBRANCH  10  11
ENDBRANCH   7  10
ENDBRANCH   6   7
ENDBRANCH   4   6
ENDBRANCH   2   4
TORSDOF 6
ENDMDL
MODEL      270
REMARK 921   NORMALIZED FREE ENERGY PREDICTED BY IDOCK:   -3.16 KCAL/MOL
REMARK 922        TOTAL FREE ENERGY PREDICTED BY IDOCK:   -4.95 KCAL/MOL
REMARK 923 INTER-LIGAND FREE ENERGY PREDICTED BY IDOCK:   -4.82 KCAL/MOL
REMARK 924 INTRA-LIGAND FREE ENERGY PREDICTED BY IDOCK:   -0.12 KCAL/MOL
REMARK 927      BINDING AFFINITY PREDICTED BY RF-SCORE:    0.00 PKD
ROOT
HETATM    1  C   UNL     1      -7.751   7.390  65.104  1.00  0.00    -0.112 C  
HETATM    2  C   UNL     1      -8.718   6.643  66.023  1.00  0.00    -0.147 C  
HETATM    3  C   UNL     1      -8.139   5.271  66.377  1.00  0.00    -0.108 C  
ENDROOT
BRANCH   2   4
HETATM    4  N   UNL     1      -8.938   7.463  67.217  1.00  0.00    -0.123 NA 
HETATM    5  H   UNL     1      -9.834   7.946  67.164  1.00  0.00     0.000 HD 
BRANCH   4   6
HETATM    6  C   UNL     1      -8.826   6.707  68.472  1.00  0.00    -0.122 C  
BRANCH   6   7
HETATM    7  C   UNL     1      -7.941   7.480  69.460  1.00  0.00    -0.126 C  
HETATM    8  O   UNL     1      -6.556   7.277  69.135  1.00  0.00    -0.039 OA 
HETATM    9  H   UNL     1      -6.009   7.755  69.747  1.00  0.00     0.000 HD 
BRANCH   7  10
HETATM   10  C   UNL     1      -8.258   8.979  69.453  1.00  0.00    -0.117 C  
BRANCH  10  11
HETATM   11  O   UNL     1      -8.362   9.476  70.798  1.00  0.00    -0.243 OA 
BRANCH  11  12
HETATM   12  C   UNL     1      -9.282   8.815  71.587  1.00  0.00    -0.263 A  
HETATM   13  C   UNL     1      -8.902   7.825  72.504  1.00  0.00    -0.202 A  
HETATM   14  C   UNL     1      -9.850   7.176  73.286  1.00  0.00    -0.275 A  
HETATM   15  C   UNL     1     -11.191   7.526  73.181  1.00  0.00    -0.318 A  
HETATM   16  C   UNL     1     -11.599   8.540  72.305  1.00  0.00    -0.444 A  
HETATM   17  C   UNL     1     -10.645   9.203  71.489  1.00  0.00    -0.428 A  
HETATM   18  C   UNL     1     -11.120  10.213  70.620  1.00  0.00    -0.397 A  
HETATM   19  C   UNL     1     -12.476  10.560  70.569  1.00  0.00    -0.433 A  
HETATM   20  C   UNL     1     -13.393   9.904  71.383  1.00  0.00    -0.447 A  
HETATM   21  C   UNL     1     -12.956   8.898  72.241  1.00  0.00    -0.479 A  
ENDBRANCH  11  12
ENDBRANCH  10  11
ENDBRANCH   7  10
ENDBRANCH   6   7
ENDBRANCH   4   6
ENDBRANCH   2   4
TORSDOF 6
ENDMDL
MODEL      271
REMARK 921   NORMALIZED FREE ENERGY PREDICTED BY IDOCK:   -3.14 KCAL/MOL
REMARK 922        TOTAL FREE ENERGY PREDICTED BY IDOCK:   -4.92 KCAL/MOL
REMARK 923 INTER-LIGAND FREE ENERGY PREDICTED BY IDOCK:   -4.62 KCAL/MOL
REMARK 924 INTRA-LIGAND FREE ENERGY PREDICTED BY IDOCK:   -0.31 KCAL/MOL
REMARK 927      BINDING AFFINITY PREDICTED BY RF-SCORE:    0.00 PKD
ROOT
HETATM    1  C   UNL     1     -10.660  19.098  65.957  1.00  0.00    -0.524 C  
HETATM    2  C   UNL     1      -9.668  18.975  67.114  1.00  0.00    -0.320 C  
HETATM    3  C   UNL     1     -10.201  19.733  68.332  1.00  0.00    -0.568 C  
ENDROOT
BRANCH   2   4
HETATM    4  N   UNL     1      -9.479  17.552  67.402  1.00  0.00    -0.252 NA 
HETATM    5  H   UNL     1      -9.845  17.318  68.324  1.00  0.00     0.000 HD 
BRANCH   4   6
HETATM    6  C   UNL     1     -10.048  16.669  66.375  1.00  0.00    -0.315 C  
BRANCH   6   7
HETATM    7  C   UNL     1     -10.396  15.311  67.002  1.00  0.00    -0.277 C  
HETATM    8  O   UNL     1     -11.735  14.937  66.642  1.00  0.00    -0.325 OA 
HETATM    9  H   UNL     1     -11.951  14.098  67.029  1.00  0.00     0.000 HD 
BRANCH   7  10
HETATM   10  C   UNL     1      -9.419  14.215  66.561  1.00  0.00    -0.285 C  
BRANCH  10  11
HETATM   11  O   UNL     1      -9.076  13.373  67.675  1.00  0.00    -0.184 OA 
BRANCH  11  12
HETATM   12  C   UNL     1      -8.319  12.265  67.348  1.00  0.00    -0.177 A  
HETATM   13  C   UNL     1      -6.960  12.362  67.018  1.00  0.00    -0.006 A  
HETATM   14  C   UNL     1      -6.223  11.230  66.694  1.00  0.00    -0.141 A  
HETATM   15  C   UNL     1      -6.827   9.979  66.720  1.00  0.00    -0.081 A  
HETATM   16  C   UNL     1      -8.173   9.842  67.085  1.00  0.00    -0.121 A  
HETATM   17  C   UNL     1      -8.944  10.991  67.406  1.00  0.00    -0.141 A  
HETATM   18  C   UNL     1     -10.298  10.788  67.761  1.00  0.00    -0.226 A  
HETATM   19  C   UNL     1     -10.862   9.507  67.807  1.00  0.00    -0.258 A  
HETATM   20  C   UNL     1     -10.086   8.394  67.497  1.00  0.00    -0.279 A  
HETATM   21  C   UNL     1      -8.753   8.564  67.135  1.00  0.00    -0.134 A  
ENDBRANCH  11  12
ENDBRANCH  10  11
ENDBRANCH   7  10
ENDBRANCH   6   7
ENDBRANCH   4   6
ENDBRANCH   2   4
TORSDOF 6
ENDMDL
MODEL      272
REMARK 921   NORMALIZED FREE ENERGY PREDICTED BY IDOCK:   -3.14 KCAL/MOL
REMARK 922        TOTAL FREE ENERGY PREDICTED BY IDOCK:   -4.92 KCAL/MOL
REMARK 923 INTER-LIGAND FREE ENERGY PREDICTED BY IDOCK:   -4.66 KCAL/MOL
REMARK 924 INTRA-LIGAND FREE ENERGY PREDICTED BY IDOCK:   -0.25 KCAL/MOL
REMARK 927      BINDING AFFINITY PREDICTED BY RF-SCORE:    0.00 PKD
ROOT
HETATM    1  C   UNL     1      -7.328  16.098  68.748  1.00  0.00    -0.184 C  
HETATM    2  C   UNL     1      -8.378  15.235  69.450  1.00  0.00    -0.232 C  
HETATM    3  C   UNL     1      -9.776  15.790  69.165  1.00  0.00    -0.250 C  
ENDROOT
BRANCH   2   4
HETATM    4  N   UNL     1      -8.232  13.859  68.969  1.00  0.00    -0.342 NA 
HETATM    5  H   UNL     1      -9.049  13.578  68.427  1.00  0.00     0.000 HD 
BRANCH   4   6
HETATM    6  C   UNL     1      -6.997  13.637  68.205  1.00  0.00    -0.109 C  
BRANCH   6   7
HETATM    7  C   UNL     1      -6.855  12.142  67.883  1.00  0.00    -0.095 C  
HETATM    8  O   UNL     1      -5.468  11.812  67.708  1.00  0.00    -0.047 OA 
HETATM    9  H   UNL     1      -5.380  10.887  67.509  1.00  0.00     0.000 HD 
BRANCH   7  10
HETATM   10  C   UNL     1      -7.459  11.264  68.985  1.00  0.00    -0.116 C  
BRANCH  10  11
HETATM   11  O   UNL     1      -8.510  10.442  68.451  1.00  0.00    -0.115 OA 
BRANCH  11  12
HETATM   12  C   UNL     1      -9.783  10.947  68.629  1.00  0.00    -0.185 A  
HETATM   13  C   UNL     1     -10.346  11.877  67.746  1.00  0.00    -0.214 A  
HETATM   14  C   UNL     1     -11.630  12.367  67.949  1.00  0.00    -0.415 A  
HETATM   15  C   UNL     1     -12.381  11.914  69.027  1.00  0.00     0.090 A  
HETATM   16  C   UNL     1     -11.864  10.953  69.906  1.00  0.00    -0.427 A  
HETATM   17  C   UNL     1     -10.548  10.452  69.720  1.00  0.00    -0.302 A  
HETATM   18  C   UNL     1     -10.081   9.489  70.644  1.00  0.00    -0.353 A  
HETATM   19  C   UNL     1     -10.881   9.033  71.698  1.00  0.00    -0.437 A  
HETATM   20  C   UNL     1     -12.171   9.531  71.858  1.00  0.00    -0.432 A  
HETATM   21  C   UNL     1     -12.655  10.487  70.969  1.00  0.00    -0.499 A  
ENDBRANCH  11  12
ENDBRANCH  10  11
ENDBRANCH   7  10
ENDBRANCH   6   7
ENDBRANCH   4   6
ENDBRANCH   2   4
TORSDOF 6
ENDMDL
MODEL      273
REMARK 921   NORMALIZED FREE ENERGY PREDICTED BY IDOCK:   -3.14 KCAL/MOL
REMARK 922        TOTAL FREE ENERGY PREDICTED BY IDOCK:   -4.92 KCAL/MOL
REMARK 923 INTER-LIGAND FREE ENERGY PREDICTED BY IDOCK:   -4.65 KCAL/MOL
REMARK 924 INTRA-LIGAND FREE ENERGY PREDICTED BY IDOCK:   -0.26 KCAL/MOL
REMARK 927      BINDING AFFINITY PREDICTED BY RF-SCORE:    0.00 PKD
ROOT
HETATM    1  C   UNL     1     -11.759  11.964  63.624  1.00  0.00    -0.572 C  
HETATM    2  C   UNL     1     -10.902  12.943  64.426  1.00  0.00    -0.380 C  
HETATM    3  C   UNL     1     -11.695  14.225  64.693  1.00  0.00    -0.439 C  
ENDROOT
BRANCH   2   4
HETATM    4  N   UNL     1     -10.501  12.285  65.671  1.00  0.00    -0.254 NA 
HETATM    5  H   UNL     1     -10.043  12.946  66.299  1.00  0.00     0.000 HD 
BRANCH   4   6
HETATM    6  C   UNL     1     -11.609  11.602  66.352  1.00  0.00    -0.062 C  
BRANCH   6   7
HETATM    7  C   UNL     1     -11.284  11.458  67.846  1.00  0.00    -0.288 C  
HETATM    8  O   UNL     1     -12.502  11.360  68.602  1.00  0.00    -0.396 OA 
HETATM    9  H   UNL     1     -12.301  11.272  69.526  1.00  0.00     0.000 HD 
BRANCH   7  10
HETATM   10  C   UNL     1     -10.406  10.233  68.121  1.00  0.00    -0.177 C  
BRANCH  10  11
HETATM   11  O   UNL     1     -11.016   9.393  69.115  1.00  0.00    -0.192 OA 
BRANCH  11  12
HETATM   12  C   UNL     1     -10.125   8.672  69.885  1.00  0.00    -0.194 A  
HETATM   13  C   UNL     1      -9.597   9.175  71.082  1.00  0.00    -0.347 A  
HETATM   14  C   UNL     1      -8.702   8.426  71.837  1.00  0.00    -0.258 A  
HETATM   15  C   UNL     1      -8.342   7.151  71.420  1.00  0.00    -0.112 A  
HETATM   16  C   UNL     1      -8.883   6.601  70.249  1.00  0.00    -0.152 A  
HETATM   17  C   UNL     1      -9.788   7.358  69.460  1.00  0.00    -0.165 A  
HETATM   18  C   UNL     1     -10.295   6.751  68.287  1.00  0.00    -0.215 A  
HETATM   19  C   UNL     1      -9.933   5.450  67.918  1.00  0.00    -0.202 A  
HETATM   20  C   UNL     1      -9.051   4.722  68.712  1.00  0.00    -0.151 A  
HETATM   21  C   UNL     1      -8.528   5.298  69.866  1.00  0.00    -0.098 A  
ENDBRANCH  11  12
ENDBRANCH  10  11
ENDBRANCH   7  10
ENDBRANCH   6   7
ENDBRANCH   4   6
ENDBRANCH   2   4
TORSDOF 6
ENDMDL
MODEL      274
REMARK 921   NORMALIZED FREE ENERGY PREDICTED BY IDOCK:   -3.14 KCAL/MOL
REMARK 922        TOTAL FREE ENERGY PREDICTED BY IDOCK:   -4.91 KCAL/MOL
REMARK 923 INTER-LIGAND FREE ENERGY PREDICTED BY IDOCK:   -4.65 KCAL/MOL
REMARK 924 INTRA-LIGAND FREE ENERGY PREDICTED BY IDOCK:   -0.26 KCAL/MOL
REMARK 927      BINDING AFFINITY PREDICTED BY RF-SCORE:    0.00 PKD
ROOT
HETATM    1  C   UNL     1     -10.461  17.331  65.501  1.00  0.00    -0.135 C  
HETATM    2  C   UNL     1      -9.611  18.043  66.554  1.00  0.00    -0.315 C  
HETATM    3  C   UNL     1      -9.999  19.522  66.615  1.00  0.00    -0.509 C  
ENDROOT
BRANCH   2   4
HETATM    4  N   UNL     1      -9.822  17.373  67.839  1.00  0.00    -0.276 NA 
HETATM    5  H   UNL     1     -10.736  16.924  67.866  1.00  0.00     0.000 HD 
BRANCH   4   6
HETATM    6  C   UNL     1      -8.759  16.417  68.179  1.00  0.00    -0.191 C  
BRANCH   6   7
HETATM    7  C   UNL     1      -9.362  15.013  68.333  1.00  0.00    -0.193 C  
HETATM    8  O   UNL     1     -10.615  15.096  69.032  1.00  0.00    -0.228 OA 
HETATM    9  H   UNL     1     -10.987  14.227  69.127  1.00  0.00     0.000 HD 
BRANCH   7  10
HETATM   10  C   UNL     1      -9.573  14.334  66.976  1.00  0.00    -0.257 C  
BRANCH  10  11
HETATM   11  O   UNL     1     -10.121  13.016  67.155  1.00  0.00    -0.239 OA 
BRANCH  11  12
HETATM   12  C   UNL     1     -10.128  12.236  66.016  1.00  0.00    -0.248 A  
HETATM   13  C   UNL     1     -11.179  12.278  65.090  1.00  0.00    -0.369 A  
HETATM   14  C   UNL     1     -11.160  11.482  63.952  1.00  0.00    -0.458 A  
HETATM   15  C   UNL     1     -10.074  10.649  63.709  1.00  0.00    -0.336 A  
HETATM   16  C   UNL     1      -8.988  10.612  64.593  1.00  0.00    -0.216 A  
HETATM   17  C   UNL     1      -8.999  11.410  65.767  1.00  0.00    -0.159 A  
HETATM   18  C   UNL     1      -7.876  11.325  66.623  1.00  0.00    -0.152 A  
HETATM   19  C   UNL     1      -6.786  10.497  66.326  1.00  0.00    -0.127 A  
HETATM   20  C   UNL     1      -6.792   9.730  65.165  1.00  0.00    -0.109 A  
HETATM   21  C   UNL     1      -7.889   9.786  64.308  1.00  0.00    -0.134 A  
ENDBRANCH  11  12
ENDBRANCH  10  11
ENDBRANCH   7  10
ENDBRANCH   6   7
ENDBRANCH   4   6
ENDBRANCH   2   4
TORSDOF 6
ENDMDL
MODEL      275
REMARK 921   NORMALIZED FREE ENERGY PREDICTED BY IDOCK:   -3.13 KCAL/MOL
REMARK 922        TOTAL FREE ENERGY PREDICTED BY IDOCK:   -4.91 KCAL/MOL
REMARK 923 INTER-LIGAND FREE ENERGY PREDICTED BY IDOCK:   -4.09 KCAL/MOL
REMARK 924 INTRA-LIGAND FREE ENERGY PREDICTED BY IDOCK:   -0.82 KCAL/MOL
REMARK 927      BINDING AFFINITY PREDICTED BY RF-SCORE:    0.00 PKD
ROOT
HETATM    1  C   UNL     1      -7.033  12.764  68.174  1.00  0.00    -0.096 C  
HETATM    2  C   UNL     1      -7.105  11.241  68.294  1.00  0.00    -0.074 C  
HETATM    3  C   UNL     1      -7.092  10.839  69.770  1.00  0.00    -0.126 C  
ENDROOT
BRANCH   2   4
HETATM    4  N   UNL     1      -8.324  10.789  67.619  1.00  0.00    -0.118 NA 
HETATM    5  H   UNL     1      -8.886  11.584  67.316  1.00  0.00     0.000 HD 
BRANCH   4   6
HETATM    6  C   UNL     1      -8.064   9.875  66.498  1.00  0.00    -0.117 C  
BRANCH   6   7
HETATM    7  C   UNL     1      -8.778   8.539  66.750  1.00  0.00    -0.122 C  
HETATM    8  O   UNL     1      -7.823   7.466  66.729  1.00  0.00    -0.105 OA 
HETATM    9  H   UNL     1      -8.265   6.639  66.884  1.00  0.00     0.000 HD 
BRANCH   7  10
HETATM   10  C   UNL     1      -9.526   8.537  68.087  1.00  0.00    -0.141 C  
BRANCH  10  11
HETATM   11  O   UNL     1     -10.727   9.321  67.990  1.00  0.00    -0.232 OA 
BRANCH  11  12
HETATM   12  C   UNL     1     -11.359   9.561  69.194  1.00  0.00     0.133 A  
HETATM   13  C   UNL     1     -11.637   8.534  70.106  1.00  0.00     0.096 A  
HETATM   14  C   UNL     1     -12.273   8.804  71.312  1.00  0.00    -0.332 A  
HETATM   15  C   UNL     1     -12.617  10.111  71.635  1.00  0.00    -0.533 A  
HETATM   16  C   UNL     1     -12.316  11.166  70.764  1.00  0.00    -0.504 A  
HETATM   17  C   UNL     1     -11.679  10.905  69.523  1.00  0.00    -0.400 A  
HETATM   18  C   UNL     1     -11.407  12.012  68.684  1.00  0.00    -0.329 A  
HETATM   19  C   UNL     1     -11.740  13.319  69.062  1.00  0.00    -0.368 A  
HETATM   20  C   UNL     1     -12.356  13.553  70.287  1.00  0.00    -0.370 A  
HETATM   21  C   UNL     1     -12.645  12.482  71.128  1.00  0.00    -0.349 A  
ENDBRANCH  11  12
ENDBRANCH  10  11
ENDBRANCH   7  10
ENDBRANCH   6   7
ENDBRANCH   4   6
ENDBRANCH   2   4
TORSDOF 6
ENDMDL
MODEL      276
REMARK 921   NORMALIZED FREE ENERGY PREDICTED BY IDOCK:   -3.11 KCAL/MOL
REMARK 922        TOTAL FREE ENERGY PREDICTED BY IDOCK:   -4.88 KCAL/MOL
REMARK 923 INTER-LIGAND FREE ENERGY PREDICTED BY IDOCK:   -4.33 KCAL/MOL
REMARK 924 INTRA-LIGAND FREE ENERGY PREDICTED BY IDOCK:   -0.55 KCAL/MOL
REMARK 927      BINDING AFFINITY PREDICTED BY RF-SCORE:    0.00 PKD
ROOT
HETATM    1  C   UNL     1     -11.510  11.707  63.849  1.00  0.00    -0.433 C  
HETATM    2  C   UNL     1     -10.969  13.095  64.196  1.00  0.00    -0.390 C  
HETATM    3  C   UNL     1     -12.124  14.009  64.612  1.00  0.00    -0.462 C  
ENDROOT
BRANCH   2   4
HETATM    4  N   UNL     1      -9.983  12.944  65.268  1.00  0.00    -0.452 NA 
HETATM    5  H   UNL     1      -9.283  13.684  65.221  1.00  0.00     0.000 HD 
BRANCH   4   6
HETATM    6  C   UNL     1     -10.584  12.879  66.607  1.00  0.00    -0.261 C  
BRANCH   6   7
HETATM    7  C   UNL     1      -9.978  11.702  67.385  1.00  0.00    -0.183 C  
HETATM    8  O   UNL     1      -9.248  12.193  68.520  1.00  0.00    -0.295 OA 
HETATM    9  H   UNL     1      -8.872  11.465  69.001  1.00  0.00     0.000 HD 
BRANCH   7  10
HETATM   10  C   UNL     1     -11.054  10.716  67.852  1.00  0.00    -0.308 C  
BRANCH  10  11
HETATM   11  O   UNL     1     -10.494   9.759  68.768  1.00  0.00    -0.202 OA 
BRANCH  11  12
HETATM   12  C   UNL     1      -9.969   8.630  68.173  1.00  0.00    -0.178 A  
HETATM   13  C   UNL     1     -10.758   7.750  67.419  1.00  0.00    -0.300 A  
HETATM   14  C   UNL     1     -10.203   6.621  66.830  1.00  0.00    -0.287 A  
HETATM   15  C   UNL     1      -8.843   6.368  66.965  1.00  0.00    -0.115 A  
HETATM   16  C   UNL     1      -8.018   7.248  67.677  1.00  0.00    -0.114 A  
HETATM   17  C   UNL     1      -8.572   8.399  68.296  1.00  0.00    -0.139 A  
HETATM   18  C   UNL     1      -7.690   9.246  69.006  1.00  0.00    -0.075 A  
HETATM   19  C   UNL     1      -6.319   8.974  69.090  1.00  0.00    -0.043 A  
HETATM   20  C   UNL     1      -5.795   7.844  68.469  1.00  0.00    -0.035 A  
HETATM   21  C   UNL     1      -6.642   6.987  67.771  1.00  0.00    -0.052 A  
ENDBRANCH  11  12
ENDBRANCH  10  11
ENDBRANCH   7  10
ENDBRANCH   6   7
ENDBRANCH   4   6
ENDBRANCH   2   4
TORSDOF 6
ENDMDL
MODEL      277
REMARK 921   NORMALIZED FREE ENERGY PREDICTED BY IDOCK:   -3.11 KCAL/MOL
REMARK 922        TOTAL FREE ENERGY PREDICTED BY IDOCK:   -4.88 KCAL/MOL
REMARK 923 INTER-LIGAND FREE ENERGY PREDICTED BY IDOCK:   -4.57 KCAL/MOL
REMARK 924 INTRA-LIGAND FREE ENERGY PREDICTED BY IDOCK:   -0.31 KCAL/MOL
REMARK 927      BINDING AFFINITY PREDICTED BY RF-SCORE:    0.00 PKD
ROOT
HETATM    1  C   UNL     1     -13.869  15.938  72.747  1.00  0.00    -0.532 C  
HETATM    2  C   UNL     1     -12.345  15.833  72.794  1.00  0.00    -0.463 C  
HETATM    3  C   UNL     1     -11.929  14.844  73.886  1.00  0.00    -0.386 C  
ENDROOT
BRANCH   2   4
HETATM    4  N   UNL     1     -11.876  15.409  71.473  1.00  0.00    -0.346 NA 
HETATM    5  H   UNL     1     -12.515  14.727  71.064  1.00  0.00     0.000 HD 
BRANCH   4   6
HETATM    6  C   UNL     1     -11.647  16.528  70.549  1.00  0.00     0.103 C  
BRANCH   6   7
HETATM    7  C   UNL     1     -11.182  15.985  69.190  1.00  0.00    -0.342 C  
HETATM    8  O   UNL     1     -10.714  17.066  68.368  1.00  0.00    -0.354 OA 
HETATM    9  H   UNL     1     -10.427  16.730  67.527  1.00  0.00     0.000 HD 
BRANCH   7  10
HETATM   10  C   UNL     1     -10.074  14.938  69.345  1.00  0.00    -0.158 C  
BRANCH  10  11
HETATM   11  O   UNL     1      -9.261  14.889  68.160  1.00  0.00    -0.178 OA 
BRANCH  11  12
HETATM   12  C   UNL     1      -8.612  13.688  67.957  1.00  0.00    -0.175 A  
HETATM   13  C   UNL     1      -7.384  13.393  68.563  1.00  0.00    -0.111 A  
HETATM   14  C   UNL     1      -6.752  12.175  68.341  1.00  0.00    -0.062 A  
HETATM   15  C   UNL     1      -7.354  11.222  67.528  1.00  0.00    -0.105 A  
HETATM   16  C   UNL     1      -8.601  11.469  66.939  1.00  0.00    -0.163 A  
HETATM   17  C   UNL     1      -9.253  12.713  67.145  1.00  0.00    -0.214 A  
HETATM   18  C   UNL     1     -10.506  12.904  66.519  1.00  0.00    -0.275 A  
HETATM   19  C   UNL     1     -11.095  11.905  65.733  1.00  0.00    -0.367 A  
HETATM   20  C   UNL     1     -10.443  10.690  65.551  1.00  0.00    -0.246 A  
HETATM   21  C   UNL     1      -9.203  10.477  66.147  1.00  0.00    -0.197 A  
ENDBRANCH  11  12
ENDBRANCH  10  11
ENDBRANCH   7  10
ENDBRANCH   6   7
ENDBRANCH   4   6
ENDBRANCH   2   4
TORSDOF 6
ENDMDL
MODEL      278
REMARK 921   NORMALIZED FREE ENERGY PREDICTED BY IDOCK:   -3.11 KCAL/MOL
REMARK 922        TOTAL FREE ENERGY PREDICTED BY IDOCK:   -4.88 KCAL/MOL
REMARK 923 INTER-LIGAND FREE ENERGY PREDICTED BY IDOCK:   -4.35 KCAL/MOL
REMARK 924 INTRA-LIGAND FREE ENERGY PREDICTED BY IDOCK:   -0.52 KCAL/MOL
REMARK 927      BINDING AFFINITY PREDICTED BY RF-SCORE:    0.00 PKD
ROOT
HETATM    1  C   UNL     1      -8.572   4.428  67.564  1.00  0.00    -0.106 C  
HETATM    2  C   UNL     1      -9.416   5.613  68.036  1.00  0.00    -0.110 C  
HETATM    3  C   UNL     1     -10.644   5.762  67.135  1.00  0.00    -0.365 C  
ENDROOT
BRANCH   2   4
HETATM    4  N   UNL     1      -9.793   5.376  69.431  1.00  0.00    -0.167 NA 
HETATM    5  H   UNL     1      -9.044   5.662  70.061  1.00  0.00     0.000 HD 
BRANCH   4   6
HETATM    6  C   UNL     1     -11.063   6.012  69.807  1.00  0.00    -0.406 C  
BRANCH   6   7
HETATM    7  C   UNL     1     -10.975   6.517  71.255  1.00  0.00    -0.262 C  
HETATM    8  O   UNL     1      -9.667   6.250  71.785  1.00  0.00    -0.155 OA 
HETATM    9  H   UNL     1      -9.613   6.562  72.680  1.00  0.00     0.000 HD 
BRANCH   7  10
HETATM   10  C   UNL     1     -11.275   8.016  71.352  1.00  0.00    -0.252 C  
BRANCH  10  11
HETATM   11  O   UNL     1     -10.154   8.784  70.881  1.00  0.00    -0.191 OA 
BRANCH  11  12
HETATM   12  C   UNL     1     -10.490   9.897  70.137  1.00  0.00    -0.285 A  
HETATM   13  C   UNL     1     -11.702  10.577  70.318  1.00  0.00    -0.420 A  
HETATM   14  C   UNL     1     -12.013  11.696  69.555  1.00  0.00    -0.383 A  
HETATM   15  C   UNL     1     -11.104  12.168  68.617  1.00  0.00    -0.297 A  
HETATM   16  C   UNL     1      -9.866  11.536  68.438  1.00  0.00    -0.204 A  
HETATM   17  C   UNL     1      -9.539  10.384  69.201  1.00  0.00    -0.226 A  
HETATM   18  C   UNL     1      -8.276   9.788  68.971  1.00  0.00    -0.121 A  
HETATM   19  C   UNL     1      -7.374  10.314  68.038  1.00  0.00    -0.086 A  
HETATM   20  C   UNL     1      -7.712  11.450  67.308  1.00  0.00    -0.145 A  
HETATM   21  C   UNL     1      -8.951  12.052  67.506  1.00  0.00    -0.174 A  
ENDBRANCH  11  12
ENDBRANCH  10  11
ENDBRANCH   7  10
ENDBRANCH   6   7
ENDBRANCH   4   6
ENDBRANCH   2   4
TORSDOF 6
ENDMDL
MODEL      279
REMARK 921   NORMALIZED FREE ENERGY PREDICTED BY IDOCK:   -3.10 KCAL/MOL
REMARK 922        TOTAL FREE ENERGY PREDICTED BY IDOCK:   -4.86 KCAL/MOL
REMARK 923 INTER-LIGAND FREE ENERGY PREDICTED BY IDOCK:   -4.30 KCAL/MOL
REMARK 924 INTRA-LIGAND FREE ENERGY PREDICTED BY IDOCK:   -0.56 KCAL/MOL
REMARK 927      BINDING AFFINITY PREDICTED BY RF-SCORE:    0.00 PKD
ROOT
HETATM    1  C   UNL     1     -11.653  14.965  67.202  1.00  0.00    -0.327 C  
HETATM    2  C   UNL     1     -11.409  13.476  66.952  1.00  0.00    -0.326 C  
HETATM    3  C   UNL     1     -11.789  12.674  68.199  1.00  0.00    -0.366 C  
ENDROOT
BRANCH   2   4
HETATM    4  N   UNL     1     -12.199  13.074  65.786  1.00  0.00    -0.454 NA 
HETATM    5  H   UNL     1     -13.010  13.683  65.672  1.00  0.00     0.000 HD 
BRANCH   4   6
HETATM    6  C   UNL     1     -11.416  13.009  64.545  1.00  0.00    -0.347 C  
BRANCH   6   7
HETATM    7  C   UNL     1     -11.068  11.547  64.233  1.00  0.00    -0.315 C  
HETATM    8  O   UNL     1     -11.313  11.274  62.845  1.00  0.00    -0.826 OA 
HETATM    9  H   UNL     1     -11.099  10.369  62.652  1.00  0.00     0.000 HD 
BRANCH   7  10
HETATM   10  C   UNL     1      -9.609  11.225  64.572  1.00  0.00    -0.227 C  
BRANCH  10  11
HETATM   11  O   UNL     1      -9.225  11.873  65.797  1.00  0.00    -0.201 OA 
BRANCH  11  12
HETATM   12  C   UNL     1      -8.032  11.431  66.333  1.00  0.00    -0.088 A  
HETATM   13  C   UNL     1      -7.523  10.152  66.066  1.00  0.00    -0.118 A  
HETATM   14  C   UNL     1      -6.319   9.734  66.619  1.00  0.00    -0.066 A  
HETATM   15  C   UNL     1      -5.592  10.598  67.427  1.00  0.00    -0.044 A  
HETATM   16  C   UNL     1      -6.051  11.898  67.682  1.00  0.00    -0.084 A  
HETATM   17  C   UNL     1      -7.286  12.336  67.135  1.00  0.00    -0.100 A  
HETATM   18  C   UNL     1      -7.699  13.655  67.433  1.00  0.00    -0.156 A  
HETATM   19  C   UNL     1      -6.920  14.508  68.226  1.00  0.00    -0.111 A  
HETATM   20  C   UNL     1      -5.709  14.061  68.745  1.00  0.00    -0.085 A  
HETATM   21  C   UNL     1      -5.282  12.763  68.477  1.00  0.00    -0.060 A  
ENDBRANCH  11  12
ENDBRANCH  10  11
ENDBRANCH   7  10
ENDBRANCH   6   7
ENDBRANCH   4   6
ENDBRANCH   2   4
TORSDOF 6
ENDMDL
MODEL      280
REMARK 921   NORMALIZED FREE ENERGY PREDICTED BY IDOCK:   -3.09 KCAL/MOL
REMARK 922        TOTAL FREE ENERGY PREDICTED BY IDOCK:   -4.85 KCAL/MOL
REMARK 923 INTER-LIGAND FREE ENERGY PREDICTED BY IDOCK:   -4.39 KCAL/MOL
REMARK 924 INTRA-LIGAND FREE ENERGY PREDICTED BY IDOCK:   -0.46 KCAL/MOL
REMARK 927      BINDING AFFINITY PREDICTED BY RF-SCORE:    0.00 PKD
ROOT
HETATM    1  C   UNL     1      -6.990   7.952  71.705  1.00  0.00    -0.066 C  
HETATM    2  C   UNL     1      -8.482   7.624  71.763  1.00  0.00    -0.109 C  
HETATM    3  C   UNL     1      -8.758   6.685  72.939  1.00  0.00    -0.129 C  
ENDROOT
BRANCH   2   4
HETATM    4  N   UNL     1      -9.221   8.882  71.889  1.00  0.00    -0.366 NA 
HETATM    5  H   UNL     1      -8.720   9.537  72.489  1.00  0.00     0.000 HD 
BRANCH   4   6
HETATM    6  C   UNL     1      -9.542   9.501  70.596  1.00  0.00    -0.227 C  
BRANCH   6   7
HETATM    7  C   UNL     1     -10.150   8.447  69.659  1.00  0.00    -0.199 C  
HETATM    8  O   UNL     1     -11.573   8.391  69.847  1.00  0.00    -0.451 OA 
HETATM    9  H   UNL     1     -11.948   7.739  69.268  1.00  0.00     0.000 HD 
BRANCH   7  10
HETATM   10  C   UNL     1      -9.835   8.745  68.190  1.00  0.00    -0.168 C  
BRANCH  10  11
HETATM   11  O   UNL     1      -9.896  10.160  67.941  1.00  0.00    -0.148 OA 
BRANCH  11  12
HETATM   12  C   UNL     1      -9.638  10.527  66.635  1.00  0.00    -0.172 A  
HETATM   13  C   UNL     1      -8.932   9.698  65.754  1.00  0.00    -0.207 A  
HETATM   14  C   UNL     1      -8.688  10.093  64.444  1.00  0.00    -0.217 A  
HETATM   15  C   UNL     1      -9.169  11.314  63.989  1.00  0.00    -0.060 A  
HETATM   16  C   UNL     1      -9.914  12.150  64.832  1.00  0.00    -0.235 A  
HETATM   17  C   UNL     1     -10.161  11.766  66.176  1.00  0.00    -0.255 A  
HETATM   18  C   UNL     1     -10.914  12.654  66.979  1.00  0.00    -0.300 A  
HETATM   19  C   UNL     1     -11.410  13.862  66.473  1.00  0.00    -0.340 A  
HETATM   20  C   UNL     1     -11.164  14.214  65.149  1.00  0.00    -0.337 A  
HETATM   21  C   UNL     1     -10.417  13.364  64.338  1.00  0.00    -0.403 A  
ENDBRANCH  11  12
ENDBRANCH  10  11
ENDBRANCH   7  10
ENDBRANCH   6   7
ENDBRANCH   4   6
ENDBRANCH   2   4
TORSDOF 6
ENDMDL
MODEL      281
REMARK 921   NORMALIZED FREE ENERGY PREDICTED BY IDOCK:   -3.08 KCAL/MOL
REMARK 922        TOTAL FREE ENERGY PREDICTED BY IDOCK:   -4.84 KCAL/MOL
REMARK 923 INTER-LIGAND FREE ENERGY PREDICTED BY IDOCK:   -4.43 KCAL/MOL
REMARK 924 INTRA-LIGAND FREE ENERGY PREDICTED BY IDOCK:   -0.41 KCAL/MOL
REMARK 927      BINDING AFFINITY PREDICTED BY RF-SCORE:    0.00 PKD
ROOT
HETATM    1  C   UNL     1     -11.805  14.485  67.370  1.00  0.00    -0.416 C  
HETATM    2  C   UNL     1     -11.445  13.909  66.001  1.00  0.00    -0.340 C  
HETATM    3  C   UNL     1     -10.307  14.723  65.382  1.00  0.00    -0.410 C  
ENDROOT
BRANCH   2   4
HETATM    4  N   UNL     1     -11.072  12.504  66.181  1.00  0.00    -0.286 NA 
HETATM    5  H   UNL     1     -10.059  12.390  66.132  1.00  0.00     0.000 HD 
BRANCH   4   6
HETATM    6  C   UNL     1     -11.604  11.913  67.416  1.00  0.00    -0.297 C  
BRANCH   6   7
HETATM    7  C   UNL     1     -10.467  11.739  68.434  1.00  0.00    -0.215 C  
HETATM    8  O   UNL     1     -11.013  11.607  69.755  1.00  0.00    -0.452 OA 
HETATM    9  H   UNL     1     -10.310  11.500  70.385  1.00  0.00     0.000 HD 
BRANCH   7  10
HETATM   10  C   UNL     1      -9.598  10.520  68.110  1.00  0.00    -0.154 C  
BRANCH  10  11
HETATM   11  O   UNL     1     -10.052   9.886  66.903  1.00  0.00    -0.202 OA 
BRANCH  11  12
HETATM   12  C   UNL     1     -10.014   8.506  66.927  1.00  0.00    -0.265 A  
HETATM   13  C   UNL     1     -10.744   7.756  67.858  1.00  0.00    -0.165 A  
HETATM   14  C   UNL     1     -10.687   6.368  67.858  1.00  0.00    -0.372 A  
HETATM   15  C   UNL     1      -9.918   5.707  66.909  1.00  0.00    -0.202 A  
HETATM   16  C   UNL     1      -9.207   6.425  65.938  1.00  0.00    -0.033 A  
HETATM   17  C   UNL     1      -9.244   7.844  65.932  1.00  0.00    -0.102 A  
HETATM   18  C   UNL     1      -8.502   8.512  64.931  1.00  0.00    -0.166 A  
HETATM   19  C   UNL     1      -7.764   7.808  63.970  1.00  0.00    -0.126 A  
HETATM   20  C   UNL     1      -7.748   6.416  63.989  1.00  0.00    -0.104 A  
HETATM   21  C   UNL     1      -8.462   5.732  64.969  1.00  0.00    -0.124 A  
ENDBRANCH  11  12
ENDBRANCH  10  11
ENDBRANCH   7  10
ENDBRANCH   6   7
ENDBRANCH   4   6
ENDBRANCH   2   4
TORSDOF 6
ENDMDL
MODEL      282
REMARK 921   NORMALIZED FREE ENERGY PREDICTED BY IDOCK:   -3.06 KCAL/MOL
REMARK 922        TOTAL FREE ENERGY PREDICTED BY IDOCK:   -4.82 KCAL/MOL
REMARK 923 INTER-LIGAND FREE ENERGY PREDICTED BY IDOCK:   -4.38 KCAL/MOL
REMARK 924 INTRA-LIGAND FREE ENERGY PREDICTED BY IDOCK:   -0.43 KCAL/MOL
REMARK 927      BINDING AFFINITY PREDICTED BY RF-SCORE:    0.00 PKD
ROOT
HETATM    1  C   UNL     1      -9.786  17.955  65.862  1.00  0.00    -0.016 C  
HETATM    2  C   UNL     1      -9.503  16.455  65.778  1.00  0.00    -0.156 C  
HETATM    3  C   UNL     1      -9.232  15.901  67.179  1.00  0.00    -0.222 C  
ENDROOT
BRANCH   2   4
HETATM    4  N   UNL     1     -10.659  15.808  65.154  1.00  0.00    -0.457 NA 
HETATM    5  H   UNL     1     -10.941  16.307  64.311  1.00  0.00     0.000 HD 
BRANCH   4   6
HETATM    6  C   UNL     1     -10.447  14.382  64.871  1.00  0.00    -0.423 C  
BRANCH   6   7
HETATM    7  C   UNL     1     -11.636  13.570  65.402  1.00  0.00    -0.316 C  
HETATM    8  O   UNL     1     -12.104  12.669  64.385  1.00  0.00    -0.369 OA 
HETATM    9  H   UNL     1     -12.840  12.167  64.714  1.00  0.00     0.000 HD 
BRANCH   7  10
HETATM   10  C   UNL     1     -11.266  12.779  66.661  1.00  0.00    -0.301 C  
BRANCH  10  11
HETATM   11  O   UNL     1     -10.694  11.509  66.305  1.00  0.00    -0.255 OA 
BRANCH  11  12
HETATM   12  C   UNL     1     -10.486  10.652  67.368  1.00  0.00    -0.235 A  
HETATM   13  C   UNL     1     -11.220  10.749  68.557  1.00  0.00    -0.340 A  
HETATM   14  C   UNL     1     -10.989   9.872  69.611  1.00  0.00    -0.285 A  
HETATM   15  C   UNL     1     -10.038   8.868  69.479  1.00  0.00    -0.198 A  
HETATM   16  C   UNL     1      -9.315   8.718  68.289  1.00  0.00    -0.143 A  
HETATM   17  C   UNL     1      -9.529   9.613  67.208  1.00  0.00    -0.175 A  
HETATM   18  C   UNL     1      -8.765   9.414  66.035  1.00  0.00    -0.171 A  
HETATM   19  C   UNL     1      -7.839   8.369  65.930  1.00  0.00    -0.095 A  
HETATM   20  C   UNL     1      -7.651   7.497  66.998  1.00  0.00    -0.103 A  
HETATM   21  C   UNL     1      -8.382   7.675  68.170  1.00  0.00    -0.124 A  
ENDBRANCH  11  12
ENDBRANCH  10  11
ENDBRANCH   7  10
ENDBRANCH   6   7
ENDBRANCH   4   6
ENDBRANCH   2   4
TORSDOF 6
ENDMDL
MODEL      283
REMARK 921   NORMALIZED FREE ENERGY PREDICTED BY IDOCK:   -3.06 KCAL/MOL
REMARK 922        TOTAL FREE ENERGY PREDICTED BY IDOCK:   -4.81 KCAL/MOL
REMARK 923 INTER-LIGAND FREE ENERGY PREDICTED BY IDOCK:   -4.43 KCAL/MOL
REMARK 924 INTRA-LIGAND FREE ENERGY PREDICTED BY IDOCK:   -0.38 KCAL/MOL
REMARK 927      BINDING AFFINITY PREDICTED BY RF-SCORE:    0.00 PKD
ROOT
HETATM    1  C   UNL     1      -7.505  16.660  68.228  1.00  0.00    -0.182 C  
HETATM    2  C   UNL     1      -8.954  16.258  68.505  1.00  0.00    -0.219 C  
HETATM    3  C   UNL     1      -9.869  16.851  67.431  1.00  0.00    -0.261 C  
ENDROOT
BRANCH   2   4
HETATM    4  N   UNL     1      -9.025  14.795  68.529  1.00  0.00    -0.177 NA 
HETATM    5  H   UNL     1      -8.532  14.423  69.341  1.00  0.00     0.000 HD 
BRANCH   4   6
HETATM    6  C   UNL     1     -10.398  14.277  68.470  1.00  0.00    -0.244 C  
BRANCH   6   7
HETATM    7  C   UNL     1     -10.393  12.880  67.831  1.00  0.00    -0.231 C  
HETATM    8  O   UNL     1     -10.336  13.000  66.401  1.00  0.00    -0.271 OA 
HETATM    9  H   UNL     1     -10.333  12.136  66.006  1.00  0.00     0.000 HD 
BRANCH   7  10
HETATM   10  C   UNL     1      -9.214  12.035  68.325  1.00  0.00    -0.192 C  
BRANCH  10  11
HETATM   11  O   UNL     1      -9.311  10.694  67.816  1.00  0.00    -0.145 OA 
BRANCH  11  12
HETATM   12  C   UNL     1      -9.268   9.706  68.779  1.00  0.00    -0.141 A  
HETATM   13  C   UNL     1      -8.768   9.943  70.067  1.00  0.00    -0.188 A  
HETATM   14  C   UNL     1      -8.737   8.930  71.018  1.00  0.00    -0.276 A  
HETATM   15  C   UNL     1      -9.231   7.670  70.703  1.00  0.00    -0.162 A  
HETATM   16  C   UNL     1      -9.776   7.411  69.438  1.00  0.00    -0.159 A  
HETATM   17  C   UNL     1      -9.802   8.431  68.451  1.00  0.00    -0.192 A  
HETATM   18  C   UNL     1     -10.359   8.106  67.192  1.00  0.00    -0.391 A  
HETATM   19  C   UNL     1     -10.878   6.833  66.925  1.00  0.00    -0.402 A  
HETATM   20  C   UNL     1     -10.850   5.850  67.909  1.00  0.00    -0.323 A  
HETATM   21  C   UNL     1     -10.298   6.138  69.155  1.00  0.00    -0.271 A  
ENDBRANCH  11  12
ENDBRANCH  10  11
ENDBRANCH   7  10
ENDBRANCH   6   7
ENDBRANCH   4   6
ENDBRANCH   2   4
TORSDOF 6
ENDMDL
MODEL      284
REMARK 921   NORMALIZED FREE ENERGY PREDICTED BY IDOCK:   -3.04 KCAL/MOL
REMARK 922        TOTAL FREE ENERGY PREDICTED BY IDOCK:   -4.79 KCAL/MOL
REMARK 923 INTER-LIGAND FREE ENERGY PREDICTED BY IDOCK:   -4.20 KCAL/MOL
REMARK 924 INTRA-LIGAND FREE ENERGY PREDICTED BY IDOCK:   -0.58 KCAL/MOL
REMARK 927      BINDING AFFINITY PREDICTED BY RF-SCORE:    0.00 PKD
ROOT
HETATM    1  C   UNL     1     -11.736  15.849  64.390  1.00  0.00    -0.179 C  
HETATM    2  C   UNL     1     -10.830  15.456  65.557  1.00  0.00    -0.374 C  
HETATM    3  C   UNL     1     -10.375  16.713  66.303  1.00  0.00    -0.323 C  
ENDROOT
BRANCH   2   4
HETATM    4  N   UNL     1     -11.578  14.549  66.430  1.00  0.00    -0.365 NA 
HETATM    5  H   UNL     1     -12.030  15.064  67.185  1.00  0.00     0.000 HD 
BRANCH   4   6
HETATM    6  C   UNL     1     -12.552  13.718  65.709  1.00  0.00    -0.480 C  
BRANCH   6   7
HETATM    7  C   UNL     1     -11.951  12.329  65.452  1.00  0.00    -0.332 C  
HETATM    8  O   UNL     1     -12.058  12.002  64.058  1.00  0.00    -0.408 OA 
HETATM    9  H   UNL     1     -11.687  11.143  63.899  1.00  0.00     0.000 HD 
BRANCH   7  10
HETATM   10  C   UNL     1     -10.483  12.256  65.887  1.00  0.00    -0.256 C  
BRANCH  10  11
HETATM   11  O   UNL     1     -10.387  12.209  67.321  1.00  0.00    -0.210 OA 
BRANCH  11  12
HETATM   12  C   UNL     1      -9.136  11.885  67.805  1.00  0.00    -0.180 A  
HETATM   13  C   UNL     1      -8.607  10.591  67.697  1.00  0.00    -0.118 A  
HETATM   14  C   UNL     1      -7.344  10.294  68.192  1.00  0.00    -0.085 A  
HETATM   15  C   UNL     1      -6.578  11.293  68.780  1.00  0.00    -0.062 A  
HETATM   16  C   UNL     1      -7.059  12.606  68.867  1.00  0.00    -0.069 A  
HETATM   17  C   UNL     1      -8.353  12.924  68.378  1.00  0.00    -0.116 A  
HETATM   18  C   UNL     1      -8.785  14.265  68.500  1.00  0.00    -0.175 A  
HETATM   19  C   UNL     1      -7.969  15.251  69.069  1.00  0.00    -0.195 A  
HETATM   20  C   UNL     1      -6.700  14.920  69.534  1.00  0.00    -0.165 A  
HETATM   21  C   UNL     1      -6.253  13.605  69.437  1.00  0.00    -0.109 A  
ENDBRANCH  11  12
ENDBRANCH  10  11
ENDBRANCH   7  10
ENDBRANCH   6   7
ENDBRANCH   4   6
ENDBRANCH   2   4
TORSDOF 6
ENDMDL
MODEL      285
REMARK 921   NORMALIZED FREE ENERGY PREDICTED BY IDOCK:   -3.02 KCAL/MOL
REMARK 922        TOTAL FREE ENERGY PREDICTED BY IDOCK:   -4.76 KCAL/MOL
REMARK 923 INTER-LIGAND FREE ENERGY PREDICTED BY IDOCK:   -4.53 KCAL/MOL
REMARK 924 INTRA-LIGAND FREE ENERGY PREDICTED BY IDOCK:   -0.23 KCAL/MOL
REMARK 927      BINDING AFFINITY PREDICTED BY RF-SCORE:    0.00 PKD
ROOT
HETATM    1  C   UNL     1     -13.817  14.670  71.507  1.00  0.00    -0.508 C  
HETATM    2  C   UNL     1     -12.858  13.504  71.747  1.00  0.00    -0.306 C  
HETATM    3  C   UNL     1     -13.608  12.179  71.587  1.00  0.00     0.107 C  
ENDROOT
BRANCH   2   4
HETATM    4  N   UNL     1     -11.753  13.619  70.793  1.00  0.00    -0.501 NA 
HETATM    5  H   UNL     1     -11.009  12.959  71.020  1.00  0.00     0.000 HD 
BRANCH   4   6
HETATM    6  C   UNL     1     -12.173  13.472  69.393  1.00  0.00    -0.228 C  
BRANCH   6   7
HETATM    7  C   UNL     1     -11.014  12.895  68.568  1.00  0.00    -0.259 C  
HETATM    8  O   UNL     1      -9.852  13.727  68.710  1.00  0.00    -0.352 OA 
HETATM    9  H   UNL     1      -9.135  13.370  68.200  1.00  0.00     0.000 HD 
BRANCH   7  10
HETATM   10  C   UNL     1     -10.676  11.461  68.989  1.00  0.00    -0.205 C  
BRANCH  10  11
HETATM   11  O   UNL     1     -11.305  10.517  68.107  1.00  0.00    -0.297 OA 
BRANCH  11  12
HETATM   12  C   UNL     1     -10.494  10.044  67.095  1.00  0.00    -0.244 A  
HETATM   13  C   UNL     1     -10.455  10.642  65.829  1.00  0.00    -0.235 A  
HETATM   14  C   UNL     1      -9.627  10.145  64.830  1.00  0.00    -0.378 A  
HETATM   15  C   UNL     1      -8.805   9.055  65.091  1.00  0.00    -0.224 A  
HETATM   16  C   UNL     1      -8.790   8.458  66.358  1.00  0.00    -0.181 A  
HETATM   17  C   UNL     1      -9.639   8.946  67.386  1.00  0.00    -0.201 A  
HETATM   18  C   UNL     1      -9.582   8.298  68.642  1.00  0.00    -0.152 A  
HETATM   19  C   UNL     1      -8.715   7.223  68.875  1.00  0.00    -0.128 A  
HETATM   20  C   UNL     1      -7.885   6.766  67.856  1.00  0.00    -0.113 A  
HETATM   21  C   UNL     1      -7.927   7.378  66.606  1.00  0.00    -0.121 A  
ENDBRANCH  11  12
ENDBRANCH  10  11
ENDBRANCH   7  10
ENDBRANCH   6   7
ENDBRANCH   4   6
ENDBRANCH   2   4
TORSDOF 6
ENDMDL
MODEL      286
REMARK 921   NORMALIZED FREE ENERGY PREDICTED BY IDOCK:   -3.01 KCAL/MOL
REMARK 922        TOTAL FREE ENERGY PREDICTED BY IDOCK:   -4.74 KCAL/MOL
REMARK 923 INTER-LIGAND FREE ENERGY PREDICTED BY IDOCK:   -4.33 KCAL/MOL
REMARK 924 INTRA-LIGAND FREE ENERGY PREDICTED BY IDOCK:   -0.41 KCAL/MOL
REMARK 927      BINDING AFFINITY PREDICTED BY RF-SCORE:    0.00 PKD
ROOT
HETATM    1  C   UNL     1      -8.443   4.863  63.942  1.00  0.00    -0.133 C  
HETATM    2  C   UNL     1      -8.395   5.320  65.401  1.00  0.00    -0.136 C  
HETATM    3  C   UNL     1      -7.139   6.164  65.636  1.00  0.00    -0.072 C  
ENDROOT
BRANCH   2   4
HETATM    4  N   UNL     1      -9.616   6.077  65.681  1.00  0.00    -0.363 NA 
HETATM    5  H   UNL     1     -10.243   6.064  64.877  1.00  0.00     0.000 HD 
BRANCH   4   6
HETATM    6  C   UNL     1     -10.315   5.627  66.893  1.00  0.00    -0.259 C  
BRANCH   6   7
HETATM    7  C   UNL     1     -10.003   6.586  68.051  1.00  0.00    -0.134 C  
HETATM    8  O   UNL     1      -8.757   6.219  68.665  1.00  0.00    -0.120 OA 
HETATM    9  H   UNL     1      -8.564   6.812  69.381  1.00  0.00     0.000 HD 
BRANCH   7  10
HETATM   10  C   UNL     1      -9.936   8.043  67.580  1.00  0.00    -0.194 C  
BRANCH  10  11
HETATM   11  O   UNL     1      -9.616   8.912  68.680  1.00  0.00    -0.150 OA 
BRANCH  11  12
HETATM   12  C   UNL     1     -10.682   9.643  69.165  1.00  0.00    -0.217 A  
HETATM   13  C   UNL     1     -11.182  10.766  68.493  1.00  0.00    -0.340 A  
HETATM   14  C   UNL     1     -12.257  11.484  69.004  1.00  0.00    -0.186 A  
HETATM   15  C   UNL     1     -12.864  11.073  70.184  1.00  0.00    -0.109 A  
HETATM   16  C   UNL     1     -12.415   9.931  70.860  1.00  0.00    -0.401 A  
HETATM   17  C   UNL     1     -11.310   9.194  70.358  1.00  0.00    -0.260 A  
HETATM   18  C   UNL     1     -10.900   8.055  71.088  1.00  0.00    -0.267 A  
HETATM   19  C   UNL     1     -11.560   7.654  72.256  1.00  0.00    -0.370 A  
HETATM   20  C   UNL     1     -12.647   8.385  72.727  1.00  0.00    -0.091 A  
HETATM   21  C   UNL     1     -13.067   9.517  72.034  1.00  0.00    -0.528 A  
ENDBRANCH  11  12
ENDBRANCH  10  11
ENDBRANCH   7  10
ENDBRANCH   6   7
ENDBRANCH   4   6
ENDBRANCH   2   4
TORSDOF 6
ENDMDL
MODEL      287
REMARK 921   NORMALIZED FREE ENERGY PREDICTED BY IDOCK:   -3.00 KCAL/MOL
REMARK 922        TOTAL FREE ENERGY PREDICTED BY IDOCK:   -4.73 KCAL/MOL
REMARK 923 INTER-LIGAND FREE ENERGY PREDICTED BY IDOCK:   -4.15 KCAL/MOL
REMARK 924 INTRA-LIGAND FREE ENERGY PREDICTED BY IDOCK:   -0.58 KCAL/MOL
REMARK 927      BINDING AFFINITY PREDICTED BY RF-SCORE:    0.00 PKD
ROOT
HETATM    1  C   UNL     1      -6.970   7.764  65.075  1.00  0.00    -0.059 C  
HETATM    2  C   UNL     1      -8.105   7.732  66.099  1.00  0.00    -0.113 C  
HETATM    3  C   UNL     1      -8.108   6.384  66.824  1.00  0.00    -0.109 C  
ENDROOT
BRANCH   2   4
HETATM    4  N   UNL     1      -7.911   8.847  67.029  1.00  0.00    -0.101 NA 
HETATM    5  H   UNL     1      -8.612   9.571  66.876  1.00  0.00     0.000 HD 
BRANCH   4   6
HETATM    6  C   UNL     1      -7.887   8.433  68.438  1.00  0.00    -0.113 C  
BRANCH   6   7
HETATM    7  C   UNL     1      -8.857   9.307  69.247  1.00  0.00    -0.146 C  
HETATM    8  O   UNL     1      -8.334  10.640  69.358  1.00  0.00    -0.288 OA 
HETATM    9  H   UNL     1      -8.934  11.180  69.859  1.00  0.00     0.000 HD 
BRANCH   7  10
HETATM   10  C   UNL     1     -10.249   9.351  68.607  1.00  0.00    -0.201 C  
BRANCH  10  11
HETATM   11  O   UNL     1     -10.978   8.150  68.912  1.00  0.00    -0.033 OA 
BRANCH  11  12
HETATM   12  C   UNL     1     -11.034   7.833  70.254  1.00  0.00    -0.247 A  
HETATM   13  C   UNL     1     -11.502   8.740  71.214  1.00  0.00    -0.355 A  
HETATM   14  C   UNL     1     -11.548   8.395  72.559  1.00  0.00    -0.426 A  
HETATM   15  C   UNL     1     -11.150   7.126  72.962  1.00  0.00    -0.323 A  
HETATM   16  C   UNL     1     -10.715   6.181  72.023  1.00  0.00    -0.276 A  
HETATM   17  C   UNL     1     -10.650   6.523  70.647  1.00  0.00    -0.280 A  
HETATM   18  C   UNL     1     -10.197   5.528  69.749  1.00  0.00    -0.336 A  
HETATM   19  C   UNL     1      -9.836   4.249  70.190  1.00  0.00    -0.271 A  
HETATM   20  C   UNL     1      -9.916   3.932  71.543  1.00  0.00    -0.209 A  
HETATM   21  C   UNL     1     -10.349   4.894  72.451  1.00  0.00    -0.262 A  
ENDBRANCH  11  12
ENDBRANCH  10  11
ENDBRANCH   7  10
ENDBRANCH   6   7
ENDBRANCH   4   6
ENDBRANCH   2   4
TORSDOF 6
ENDMDL
MODEL      288
REMARK 921   NORMALIZED FREE ENERGY PREDICTED BY IDOCK:   -3.00 KCAL/MOL
REMARK 922        TOTAL FREE ENERGY PREDICTED BY IDOCK:   -4.73 KCAL/MOL
REMARK 923 INTER-LIGAND FREE ENERGY PREDICTED BY IDOCK:   -4.18 KCAL/MOL
REMARK 924 INTRA-LIGAND FREE ENERGY PREDICTED BY IDOCK:   -0.54 KCAL/MOL
REMARK 927      BINDING AFFINITY PREDICTED BY RF-SCORE:    0.00 PKD
ROOT
HETATM    1  C   UNL     1      -6.270   8.481  65.202  1.00  0.00    -0.052 C  
HETATM    2  C   UNL     1      -7.705   7.975  65.050  1.00  0.00    -0.112 C  
HETATM    3  C   UNL     1      -7.740   6.811  64.056  1.00  0.00    -0.112 C  
ENDROOT
BRANCH   2   4
HETATM    4  N   UNL     1      -8.189   7.573  66.372  1.00  0.00    -0.116 NA 
HETATM    5  H   UNL     1      -8.383   8.391  66.950  1.00  0.00     0.000 HD 
BRANCH   4   6
HETATM    6  C   UNL     1      -9.356   6.682  66.320  1.00  0.00    -0.105 C  
BRANCH   6   7
HETATM    7  C   UNL     1     -10.586   7.414  66.874  1.00  0.00    -0.305 C  
HETATM    8  O   UNL     1     -11.427   6.488  67.581  1.00  0.00    -0.694 OA 
HETATM    9  H   UNL     1     -12.188   6.941  67.923  1.00  0.00     0.000 HD 
BRANCH   7  10
HETATM   10  C   UNL     1     -10.191   8.565  67.805  1.00  0.00    -0.225 C  
BRANCH  10  11
HETATM   11  O   UNL     1     -10.824   8.413  69.087  1.00  0.00    -0.155 OA 
BRANCH  11  12
HETATM   12  C   UNL     1      -9.952   8.318  70.153  1.00  0.00    -0.187 A  
HETATM   13  C   UNL     1      -8.776   9.077  70.224  1.00  0.00    -0.202 A  
HETATM   14  C   UNL     1      -7.917   8.961  71.309  1.00  0.00    -0.172 A  
HETATM   15  C   UNL     1      -8.234   8.102  72.354  1.00  0.00    -0.206 A  
HETATM   16  C   UNL     1      -9.422   7.359  72.334  1.00  0.00    -0.189 A  
HETATM   17  C   UNL     1     -10.304   7.456  71.226  1.00  0.00    -0.203 A  
HETATM   18  C   UNL     1     -11.483   6.676  71.262  1.00  0.00    -0.360 A  
HETATM   19  C   UNL     1     -11.783   5.847  72.350  1.00  0.00    -0.307 A  
HETATM   20  C   UNL     1     -10.909   5.773  73.430  1.00  0.00    -0.295 A  
HETATM   21  C   UNL     1      -9.735   6.522  73.418  1.00  0.00    -0.186 A  
ENDBRANCH  11  12
ENDBRANCH  10  11
ENDBRANCH   7  10
ENDBRANCH   6   7
ENDBRANCH   4   6
ENDBRANCH   2   4
TORSDOF 6
ENDMDL
MODEL      289
REMARK 921   NORMALIZED FREE ENERGY PREDICTED BY IDOCK:   -2.99 KCAL/MOL
REMARK 922        TOTAL FREE ENERGY PREDICTED BY IDOCK:   -4.71 KCAL/MOL
REMARK 923 INTER-LIGAND FREE ENERGY PREDICTED BY IDOCK:   -4.35 KCAL/MOL
REMARK 924 INTRA-LIGAND FREE ENERGY PREDICTED BY IDOCK:   -0.37 KCAL/MOL
REMARK 927      BINDING AFFINITY PREDICTED BY RF-SCORE:    0.00 PKD
ROOT
HETATM    1  C   UNL     1     -12.052  13.243  66.111  1.00  0.00    -0.477 C  
HETATM    2  C   UNL     1     -11.646  12.018  65.291  1.00  0.00    -0.279 C  
HETATM    3  C   UNL     1     -11.545  12.397  63.812  1.00  0.00    -0.553 C  
ENDROOT
BRANCH   2   4
HETATM    4  N   UNL     1     -10.370  11.523  65.812  1.00  0.00    -0.240 NA 
HETATM    5  H   UNL     1      -9.796  11.142  65.061  1.00  0.00     0.000 HD 
BRANCH   4   6
HETATM    6  C   UNL     1      -9.624  12.531  66.579  1.00  0.00    -0.242 C  
BRANCH   6   7
HETATM    7  C   UNL     1      -8.244  11.972  66.955  1.00  0.00    -0.146 C  
HETATM    8  O   UNL     1      -7.285  13.040  67.009  1.00  0.00    -0.368 OA 
HETATM    9  H   UNL     1      -6.431  12.694  67.241  1.00  0.00     0.000 HD 
BRANCH   7  10
HETATM   10  C   UNL     1      -8.276  11.238  68.300  1.00  0.00    -0.143 C  
BRANCH  10  11
HETATM   11  O   UNL     1      -9.036  10.022  68.190  1.00  0.00    -0.121 OA 
BRANCH  11  12
HETATM   12  C   UNL     1      -8.410   9.013  67.485  1.00  0.00    -0.116 A  
HETATM   13  C   UNL     1      -7.060   9.089  67.115  1.00  0.00    -0.079 A  
HETATM   14  C   UNL     1      -6.456   8.058  66.407  1.00  0.00    -0.047 A  
HETATM   15  C   UNL     1      -7.187   6.922  66.080  1.00  0.00    -0.074 A  
HETATM   16  C   UNL     1      -8.527   6.796  66.469  1.00  0.00    -0.124 A  
HETATM   17  C   UNL     1      -9.163   7.847  67.182  1.00  0.00    -0.175 A  
HETATM   18  C   UNL     1     -10.518   7.663  67.542  1.00  0.00    -0.336 A  
HETATM   19  C   UNL     1     -11.211   6.489  67.222  1.00  0.00    -0.314 A  
HETATM   20  C   UNL     1     -10.566   5.468  66.531  1.00  0.00    -0.343 A  
HETATM   21  C   UNL     1      -9.235   5.625  66.154  1.00  0.00    -0.169 A  
ENDBRANCH  11  12
ENDBRANCH  10  11
ENDBRANCH   7  10
ENDBRANCH   6   7
ENDBRANCH   4   6
ENDBRANCH   2   4
TORSDOF 6
ENDMDL
MODEL      290
REMARK 921   NORMALIZED FREE ENERGY PREDICTED BY IDOCK:   -2.99 KCAL/MOL
REMARK 922        TOTAL FREE ENERGY PREDICTED BY IDOCK:   -4.71 KCAL/MOL
REMARK 923 INTER-LIGAND FREE ENERGY PREDICTED BY IDOCK:   -4.10 KCAL/MOL
REMARK 924 INTRA-LIGAND FREE ENERGY PREDICTED BY IDOCK:   -0.61 KCAL/MOL
REMARK 927      BINDING AFFINITY PREDICTED BY RF-SCORE:    0.00 PKD
ROOT
HETATM    1  C   UNL     1      -7.247  17.050  68.248  1.00  0.00    -0.196 C  
HETATM    2  C   UNL     1      -8.612  16.703  68.845  1.00  0.00    -0.235 C  
HETATM    3  C   UNL     1      -9.567  17.887  68.670  1.00  0.00    -0.331 C  
ENDROOT
BRANCH   2   4
HETATM    4  N   UNL     1      -9.110  15.501  68.174  1.00  0.00    -0.182 NA 
HETATM    5  H   UNL     1      -8.829  14.662  68.681  1.00  0.00     0.000 HD 
BRANCH   4   6
HETATM    6  C   UNL     1     -10.563  15.516  67.954  1.00  0.00    -0.274 C  
BRANCH   6   7
HETATM    7  C   UNL     1     -10.972  14.279  67.141  1.00  0.00    -0.302 C  
HETATM    8  O   UNL     1     -12.051  14.615  66.254  1.00  0.00    -0.319 OA 
HETATM    9  H   UNL     1     -12.304  13.850  65.751  1.00  0.00     0.000 HD 
BRANCH   7  10
HETATM   10  C   UNL     1      -9.797  13.717  66.333  1.00  0.00    -0.298 C  
BRANCH  10  11
HETATM   11  O   UNL     1      -9.728  12.289  66.477  1.00  0.00    -0.222 OA 
BRANCH  11  12
HETATM   12  C   UNL     1      -8.828  11.848  67.426  1.00  0.00    -0.171 A  
HETATM   13  C   UNL     1      -7.524  12.355  67.509  1.00  0.00    -0.150 A  
HETATM   14  C   UNL     1      -6.640  11.893  68.476  1.00  0.00    -0.061 A  
HETATM   15  C   UNL     1      -7.055  10.934  69.393  1.00  0.00    -0.131 A  
HETATM   16  C   UNL     1      -8.364  10.436  69.363  1.00  0.00    -0.152 A  
HETATM   17  C   UNL     1      -9.276  10.887  68.373  1.00  0.00    -0.168 A  
HETATM   18  C   UNL     1     -10.581  10.343  68.392  1.00  0.00    -0.238 A  
HETATM   19  C   UNL     1     -10.971   9.402  69.354  1.00  0.00    -0.165 A  
HETATM   20  C   UNL     1     -10.064   8.979  70.320  1.00  0.00    -0.232 A  
HETATM   21  C   UNL     1      -8.769   9.491  70.320  1.00  0.00    -0.270 A  
ENDBRANCH  11  12
ENDBRANCH  10  11
ENDBRANCH   7  10
ENDBRANCH   6   7
ENDBRANCH   4   6
ENDBRANCH   2   4
TORSDOF 6
ENDMDL
MODEL      291
REMARK 921   NORMALIZED FREE ENERGY PREDICTED BY IDOCK:   -2.98 KCAL/MOL
REMARK 922        TOTAL FREE ENERGY PREDICTED BY IDOCK:   -4.70 KCAL/MOL
REMARK 923 INTER-LIGAND FREE ENERGY PREDICTED BY IDOCK:   -4.19 KCAL/MOL
REMARK 924 INTRA-LIGAND FREE ENERGY PREDICTED BY IDOCK:   -0.51 KCAL/MOL
REMARK 927      BINDING AFFINITY PREDICTED BY RF-SCORE:    0.00 PKD
ROOT
HETATM    1  C   UNL     1      -8.869  19.711  67.269  1.00  0.00    -0.380 C  
HETATM    2  C   UNL     1      -7.489  19.598  66.619  1.00  0.00    -0.253 C  
HETATM    3  C   UNL     1      -6.830  20.978  66.563  1.00  0.00    -0.240 C  
ENDROOT
BRANCH   2   4
HETATM    4  N   UNL     1      -6.694  18.649  67.401  1.00  0.00    -0.201 NA 
HETATM    5  H   UNL     1      -7.128  18.473  68.306  1.00  0.00     0.000 HD 
BRANCH   4   6
HETATM    6  C   UNL     1      -6.432  17.387  66.694  1.00  0.00    -0.225 C  
BRANCH   6   7
HETATM    7  C   UNL     1      -7.405  16.309  67.191  1.00  0.00    -0.209 C  
HETATM    8  O   UNL     1      -8.449  16.113  66.224  1.00  0.00    -0.310 OA 
HETATM    9  H   UNL     1      -9.051  15.446  66.531  1.00  0.00     0.000 HD 
BRANCH   7  10
HETATM   10  C   UNL     1      -6.692  14.979  67.456  1.00  0.00    -0.150 C  
BRANCH  10  11
HETATM   11  O   UNL     1      -7.446  14.182  68.385  1.00  0.00    -0.107 OA 
BRANCH  11  12
HETATM   12  C   UNL     1      -7.887  12.974  67.882  1.00  0.00    -0.149 A  
HETATM   13  C   UNL     1      -7.005  12.018  67.360  1.00  0.00    -0.139 A  
HETATM   14  C   UNL     1      -7.476  10.810  66.862  1.00  0.00    -0.120 A  
HETATM   15  C   UNL     1      -8.836  10.528  66.902  1.00  0.00    -0.143 A  
HETATM   16  C   UNL     1      -9.741  11.444  67.455  1.00  0.00    -0.196 A  
HETATM   17  C   UNL     1      -9.277  12.689  67.956  1.00  0.00    -0.208 A  
HETATM   18  C   UNL     1     -10.239  13.573  68.496  1.00  0.00    -0.229 A  
HETATM   19  C   UNL     1     -11.598  13.238  68.549  1.00  0.00    -0.368 A  
HETATM   20  C   UNL     1     -12.030  12.009  68.060  1.00  0.00    -0.214 A  
HETATM   21  C   UNL     1     -11.107  11.122  67.513  1.00  0.00    -0.353 A  
ENDBRANCH  11  12
ENDBRANCH  10  11
ENDBRANCH   7  10
ENDBRANCH   6   7
ENDBRANCH   4   6
ENDBRANCH   2   4
TORSDOF 6
ENDMDL
MODEL      292
REMARK 921   NORMALIZED FREE ENERGY PREDICTED BY IDOCK:   -2.97 KCAL/MOL
REMARK 922        TOTAL FREE ENERGY PREDICTED BY IDOCK:   -4.69 KCAL/MOL
REMARK 923 INTER-LIGAND FREE ENERGY PREDICTED BY IDOCK:   -4.22 KCAL/MOL
REMARK 924 INTRA-LIGAND FREE ENERGY PREDICTED BY IDOCK:   -0.47 KCAL/MOL
REMARK 927      BINDING AFFINITY PREDICTED BY RF-SCORE:    0.00 PKD
ROOT
HETATM    1  C   UNL     1     -10.746  18.979  65.573  1.00  0.00    -0.105 C  
HETATM    2  C   UNL     1      -9.985  18.178  66.630  1.00  0.00    -0.362 C  
HETATM    3  C   UNL     1     -10.029  18.918  67.969  1.00  0.00    -0.414 C  
ENDROOT
BRANCH   2   4
HETATM    4  N   UNL     1     -10.598  16.851  66.724  1.00  0.00    -0.253 NA 
HETATM    5  H   UNL     1     -11.436  16.880  67.304  1.00  0.00     0.000 HD 
BRANCH   4   6
HETATM    6  C   UNL     1     -10.889  16.249  65.415  1.00  0.00    -0.273 C  
BRANCH   6   7
HETATM    7  C   UNL     1     -11.279  14.776  65.603  1.00  0.00    -0.343 C  
HETATM    8  O   UNL     1     -12.228  14.392  64.595  1.00  0.00    -0.444 OA 
HETATM    9  H   UNL     1     -12.469  13.481  64.711  1.00  0.00     0.000 HD 
BRANCH   7  10
HETATM   10  C   UNL     1     -10.058  13.853  65.541  1.00  0.00    -0.298 C  
BRANCH  10  11
HETATM   11  O   UNL     1      -9.942  13.093  66.756  1.00  0.00    -0.239 OA 
BRANCH  11  12
HETATM   12  C   UNL     1      -8.695  13.140  67.348  1.00  0.00    -0.206 A  
HETATM   13  C   UNL     1      -7.823  14.221  67.163  1.00  0.00    -0.084 A  
HETATM   14  C   UNL     1      -6.574  14.242  67.773  1.00  0.00    -0.189 A  
HETATM   15  C   UNL     1      -6.189  13.193  68.598  1.00  0.00    -0.083 A  
HETATM   16  C   UNL     1      -7.053  12.116  68.836  1.00  0.00    -0.098 A  
HETATM   17  C   UNL     1      -8.327  12.073  68.211  1.00  0.00    -0.163 A  
HETATM   18  C   UNL     1      -9.151  10.957  68.487  1.00  0.00    -0.173 A  
HETATM   19  C   UNL     1      -8.739   9.935  69.351  1.00  0.00    -0.186 A  
HETATM   20  C   UNL     1      -7.490  10.001  69.960  1.00  0.00    -0.181 A  
HETATM   21  C   UNL     1      -6.653  11.083  69.700  1.00  0.00    -0.132 A  
ENDBRANCH  11  12
ENDBRANCH  10  11
ENDBRANCH   7  10
ENDBRANCH   6   7
ENDBRANCH   4   6
ENDBRANCH   2   4
TORSDOF 6
ENDMDL
MODEL      293
REMARK 921   NORMALIZED FREE ENERGY PREDICTED BY IDOCK:   -2.97 KCAL/MOL
REMARK 922        TOTAL FREE ENERGY PREDICTED BY IDOCK:   -4.69 KCAL/MOL
REMARK 923 INTER-LIGAND FREE ENERGY PREDICTED BY IDOCK:   -4.64 KCAL/MOL
REMARK 924 INTRA-LIGAND FREE ENERGY PREDICTED BY IDOCK:   -0.04 KCAL/MOL
REMARK 927      BINDING AFFINITY PREDICTED BY RF-SCORE:    0.00 PKD
ROOT
HETATM    1  C   UNL     1     -10.171  10.343  68.279  1.00  0.00    -0.184 C  
HETATM    2  C   UNL     1     -10.920  10.989  69.445  1.00  0.00    -0.248 C  
HETATM    3  C   UNL     1     -11.660  12.236  68.955  1.00  0.00    -0.368 C  
ENDROOT
BRANCH   2   4
HETATM    4  N   UNL     1     -11.840   9.996  70.002  1.00  0.00    -0.433 NA 
HETATM    5  H   UNL     1     -11.365   9.107  70.153  1.00  0.00     0.000 HD 
BRANCH   4   6
HETATM    6  C   UNL     1     -12.510  10.445  71.230  1.00  0.00    -0.415 C  
BRANCH   6   7
HETATM    7  C   UNL     1     -12.363   9.371  72.317  1.00  0.00    -0.228 C  
HETATM    8  O   UNL     1     -13.657   9.020  72.833  1.00  0.00    -0.830 OA 
HETATM    9  H   UNL     1     -13.566   8.355  73.505  1.00  0.00     0.000 HD 
BRANCH   7  10
HETATM   10  C   UNL     1     -11.662   8.116  71.785  1.00  0.00    -0.296 C  
BRANCH  10  11
HETATM   11  O   UNL     1     -10.715   7.624  72.748  1.00  0.00    -0.281 OA 
BRANCH  11  12
HETATM   12  C   UNL     1      -9.401   7.642  72.325  1.00  0.00    -0.151 A  
HETATM   13  C   UNL     1      -8.433   8.453  72.933  1.00  0.00    -0.221 A  
HETATM   14  C   UNL     1      -7.117   8.449  72.487  1.00  0.00    -0.107 A  
HETATM   15  C   UNL     1      -6.743   7.614  71.442  1.00  0.00    -0.049 A  
HETATM   16  C   UNL     1      -7.677   6.761  70.838  1.00  0.00    -0.093 A  
HETATM   17  C   UNL     1      -9.028   6.762  71.273  1.00  0.00    -0.139 A  
HETATM   18  C   UNL     1      -9.923   5.882  70.621  1.00  0.00    -0.242 A  
HETATM   19  C   UNL     1      -9.499   5.032  69.593  1.00  0.00    -0.207 A  
HETATM   20  C   UNL     1      -8.168   5.041  69.188  1.00  0.00    -0.083 A  
HETATM   21  C   UNL     1      -7.266   5.903  69.805  1.00  0.00    -0.070 A  
ENDBRANCH  11  12
ENDBRANCH  10  11
ENDBRANCH   7  10
ENDBRANCH   6   7
ENDBRANCH   4   6
ENDBRANCH   2   4
TORSDOF 6
ENDMDL
MODEL      294
REMARK 921   NORMALIZED FREE ENERGY PREDICTED BY IDOCK:   -2.96 KCAL/MOL
REMARK 922        TOTAL FREE ENERGY PREDICTED BY IDOCK:   -4.67 KCAL/MOL
REMARK 923 INTER-LIGAND FREE ENERGY PREDICTED BY IDOCK:   -3.91 KCAL/MOL
REMARK 924 INTRA-LIGAND FREE ENERGY PREDICTED BY IDOCK:   -0.76 KCAL/MOL
REMARK 927      BINDING AFFINITY PREDICTED BY RF-SCORE:    0.00 PKD
ROOT
HETATM    1  C   UNL     1      -8.758   8.717  64.685  1.00  0.00    -0.103 C  
HETATM    2  C   UNL     1      -8.832   8.869  66.205  1.00  0.00    -0.161 C  
HETATM    3  C   UNL     1     -10.276   9.156  66.625  1.00  0.00    -0.328 C  
ENDROOT
BRANCH   2   4
HETATM    4  N   UNL     1      -8.326   7.636  66.811  1.00  0.00    -0.122 NA 
HETATM    5  H   UNL     1      -8.880   7.382  67.629  1.00  0.00     0.000 HD 
BRANCH   4   6
HETATM    6  C   UNL     1      -8.245   6.513  65.867  1.00  0.00    -0.131 C  
BRANCH   6   7
HETATM    7  C   UNL     1      -9.508   5.648  65.987  1.00  0.00    -0.110 C  
HETATM    8  O   UNL     1      -9.793   5.024  64.725  1.00  0.00    -0.361 OA 
HETATM    9  H   UNL     1     -10.574   4.489  64.800  1.00  0.00     0.000 HD 
BRANCH   7  10
HETATM   10  C   UNL     1      -9.360   4.575  67.071  1.00  0.00    -0.146 C  
BRANCH  10  11
HETATM   11  O   UNL     1      -8.674   5.111  68.216  1.00  0.00    -0.102 OA 
BRANCH  11  12
HETATM   12  C   UNL     1      -9.158   4.676  69.433  1.00  0.00    -0.108 A  
HETATM   13  C   UNL     1      -8.829   3.420  69.960  1.00  0.00    -0.151 A  
HETATM   14  C   UNL     1      -9.330   3.009  71.190  1.00  0.00    -0.212 A  
HETATM   15  C   UNL     1     -10.148   3.860  71.923  1.00  0.00    -0.204 A  
HETATM   16  C   UNL     1     -10.463   5.138  71.444  1.00  0.00    -0.249 A  
HETATM   17  C   UNL     1      -9.970   5.568  70.184  1.00  0.00    -0.287 A  
HETATM   18  C   UNL     1     -10.328   6.867  69.753  1.00  0.00    -0.224 A  
HETATM   19  C   UNL     1     -11.128   7.707  70.537  1.00  0.00    -0.267 A  
HETATM   20  C   UNL     1     -11.594   7.269  71.773  1.00  0.00    -0.309 A  
HETATM   21  C   UNL     1     -11.266   5.991  72.219  1.00  0.00    -0.341 A  
ENDBRANCH  11  12
ENDBRANCH  10  11
ENDBRANCH   7  10
ENDBRANCH   6   7
ENDBRANCH   4   6
ENDBRANCH   2   4
TORSDOF 6
ENDMDL
MODEL      295
REMARK 921   NORMALIZED FREE ENERGY PREDICTED BY IDOCK:   -2.96 KCAL/MOL
REMARK 922        TOTAL FREE ENERGY PREDICTED BY IDOCK:   -4.67 KCAL/MOL
REMARK 923 INTER-LIGAND FREE ENERGY PREDICTED BY IDOCK:   -4.06 KCAL/MOL
REMARK 924 INTRA-LIGAND FREE ENERGY PREDICTED BY IDOCK:   -0.61 KCAL/MOL
REMARK 927      BINDING AFFINITY PREDICTED BY RF-SCORE:    0.00 PKD
ROOT
HETATM    1  C   UNL     1     -11.707  15.030  64.446  1.00  0.00    -0.320 C  
HETATM    2  C   UNL     1     -12.404  14.152  65.485  1.00  0.00    -0.458 C  
HETATM    3  C   UNL     1     -12.652  12.759  64.901  1.00  0.00    -0.541 C  
ENDROOT
BRANCH   2   4
HETATM    4  N   UNL     1     -11.556  14.097  66.678  1.00  0.00    -0.366 NA 
HETATM    5  H   UNL     1     -11.119  13.180  66.769  1.00  0.00     0.000 HD 
BRANCH   4   6
HETATM    6  C   UNL     1     -10.546  15.163  66.725  1.00  0.00    -0.298 C  
BRANCH   6   7
HETATM    7  C   UNL     1      -9.342  14.693  67.554  1.00  0.00    -0.195 C  
HETATM    8  O   UNL     1      -9.065  15.646  68.593  1.00  0.00    -0.187 OA 
HETATM    9  H   UNL     1      -8.320  15.356  69.105  1.00  0.00     0.000 HD 
BRANCH   7  10
HETATM   10  C   UNL     1      -9.583  13.312  68.173  1.00  0.00    -0.227 C  
BRANCH  10  11
HETATM   11  O   UNL     1      -8.392  12.511  68.089  1.00  0.00    -0.161 OA 
BRANCH  11  12
HETATM   12  C   UNL     1      -8.500  11.400  67.277  1.00  0.00    -0.148 A  
HETATM   13  C   UNL     1      -8.832  11.499  65.919  1.00  0.00    -0.107 A  
HETATM   14  C   UNL     1      -8.933  10.363  65.125  1.00  0.00    -0.217 A  
HETATM   15  C   UNL     1      -8.679   9.111  65.672  1.00  0.00    -0.203 A  
HETATM   16  C   UNL     1      -8.306   8.980  67.017  1.00  0.00    -0.116 A  
HETATM   17  C   UNL     1      -8.211  10.130  67.844  1.00  0.00    -0.109 A  
HETATM   18  C   UNL     1      -7.835   9.932  69.194  1.00  0.00    -0.105 A  
HETATM   19  C   UNL     1      -7.555   8.656  69.699  1.00  0.00    -0.080 A  
HETATM   20  C   UNL     1      -7.646   7.544  68.868  1.00  0.00    -0.105 A  
HETATM   21  C   UNL     1      -8.023   7.707  67.538  1.00  0.00    -0.120 A  
ENDBRANCH  11  12
ENDBRANCH  10  11
ENDBRANCH   7  10
ENDBRANCH   6   7
ENDBRANCH   4   6
ENDBRANCH   2   4
TORSDOF 6
ENDMDL
MODEL      296
REMARK 921   NORMALIZED FREE ENERGY PREDICTED BY IDOCK:   -2.92 KCAL/MOL
REMARK 922        TOTAL FREE ENERGY PREDICTED BY IDOCK:   -4.62 KCAL/MOL
REMARK 923 INTER-LIGAND FREE ENERGY PREDICTED BY IDOCK:   -3.91 KCAL/MOL
REMARK 924 INTRA-LIGAND FREE ENERGY PREDICTED BY IDOCK:   -0.71 KCAL/MOL
REMARK 927      BINDING AFFINITY PREDICTED BY RF-SCORE:    0.00 PKD
ROOT
HETATM    1  C   UNL     1     -10.276   5.004  70.546  1.00  0.00    -0.316 C  
HETATM    2  C   UNL     1     -10.946   6.115  71.355  1.00  0.00    -0.277 C  
HETATM    3  C   UNL     1     -11.123   5.662  72.806  1.00  0.00    -0.334 C  
ENDROOT
BRANCH   2   4
HETATM    4  N   UNL     1     -10.111   7.315  71.260  1.00  0.00    -0.189 NA 
HETATM    5  H   UNL     1      -9.797   7.461  70.301  1.00  0.00     0.000 HD 
BRANCH   4   6
HETATM    6  C   UNL     1     -10.763   8.522  71.785  1.00  0.00    -0.303 C  
BRANCH   6   7
HETATM    7  C   UNL     1     -11.435   9.285  70.635  1.00  0.00    -0.274 C  
HETATM    8  O   UNL     1     -12.662   9.875  71.092  1.00  0.00    -0.327 OA 
HETATM    9  H   UNL     1     -13.077  10.347  70.381  1.00  0.00     0.000 HD 
BRANCH   7  10
HETATM   10  C   UNL     1     -10.520  10.375  70.066  1.00  0.00    -0.182 C  
BRANCH  10  11
HETATM   11  O   UNL     1      -9.378   9.784  69.421  1.00  0.00    -0.176 OA 
BRANCH  11  12
HETATM   12  C   UNL     1      -9.337   9.957  68.052  1.00  0.00    -0.130 A  
HETATM   13  C   UNL     1      -9.938  11.053  67.420  1.00  0.00    -0.209 A  
HETATM   14  C   UNL     1      -9.880  11.201  66.040  1.00  0.00    -0.270 A  
HETATM   15  C   UNL     1      -9.195  10.268  65.272  1.00  0.00    -0.244 A  
HETATM   16  C   UNL     1      -8.547   9.181  65.876  1.00  0.00    -0.168 A  
HETATM   17  C   UNL     1      -8.609   9.008  67.283  1.00  0.00    -0.115 A  
HETATM   18  C   UNL     1      -7.940   7.889  67.832  1.00  0.00    -0.128 A  
HETATM   19  C   UNL     1      -7.233   6.988  67.027  1.00  0.00    -0.081 A  
HETATM   20  C   UNL     1      -7.178   7.181  65.650  1.00  0.00    -0.070 A  
HETATM   21  C   UNL     1      -7.835   8.269  65.081  1.00  0.00    -0.120 A  
ENDBRANCH  11  12
ENDBRANCH  10  11
ENDBRANCH   7  10
ENDBRANCH   6   7
ENDBRANCH   4   6
ENDBRANCH   2   4
TORSDOF 6
ENDMDL
MODEL      297
REMARK 921   NORMALIZED FREE ENERGY PREDICTED BY IDOCK:   -2.91 KCAL/MOL
REMARK 922        TOTAL FREE ENERGY PREDICTED BY IDOCK:   -4.61 KCAL/MOL
REMARK 923 INTER-LIGAND FREE ENERGY PREDICTED BY IDOCK:   -3.91 KCAL/MOL
REMARK 924 INTRA-LIGAND FREE ENERGY PREDICTED BY IDOCK:   -0.70 KCAL/MOL
REMARK 927      BINDING AFFINITY PREDICTED BY RF-SCORE:    0.00 PKD
ROOT
HETATM    1  C   UNL     1      -6.256   7.076  65.204  1.00  0.00    -0.037 C  
HETATM    2  C   UNL     1      -6.785   7.929  64.051  1.00  0.00    -0.062 C  
HETATM    3  C   UNL     1      -7.837   7.141  63.266  1.00  0.00    -0.114 C  
ENDROOT
BRANCH   2   4
HETATM    4  N   UNL     1      -7.340   9.162  64.613  1.00  0.00    -0.097 NA 
HETATM    5  H   UNL     1      -6.655   9.916  64.578  1.00  0.00     0.000 HD 
BRANCH   4   6
HETATM    6  C   UNL     1      -8.602   9.574  63.984  1.00  0.00    -0.207 C  
BRANCH   6   7
HETATM    7  C   UNL     1      -9.051  10.922  64.566  1.00  0.00    -0.163 C  
HETATM    8  O   UNL     1     -10.223  11.384  63.877  1.00  0.00    -0.292 OA 
HETATM    9  H   UNL     1     -10.500  12.217  64.237  1.00  0.00     0.000 HD 
BRANCH   7  10
HETATM   10  C   UNL     1      -9.340  10.824  66.067  1.00  0.00    -0.186 C  
BRANCH  10  11
HETATM   11  O   UNL     1      -9.914   9.544  66.385  1.00  0.00    -0.236 OA 
BRANCH  11  12
HETATM   12  C   UNL     1     -10.405   9.436  67.670  1.00  0.00    -0.246 A  
HETATM   13  C   UNL     1     -10.854  10.549  68.393  1.00  0.00    -0.284 A  
HETATM   14  C   UNL     1     -11.345  10.410  69.685  1.00  0.00    -0.333 A  
HETATM   15  C   UNL     1     -11.418   9.150  70.266  1.00  0.00    -0.174 A  
HETATM   16  C   UNL     1     -11.016   8.011  69.556  1.00  0.00    -0.062 A  
HETATM   17  C   UNL     1     -10.500   8.137  68.240  1.00  0.00    -0.210 A  
HETATM   18  C   UNL     1     -10.105   6.951  67.578  1.00  0.00    -0.222 A  
HETATM   19  C   UNL     1     -10.225   5.696  68.186  1.00  0.00    -0.236 A  
HETATM   20  C   UNL     1     -10.742   5.593  69.474  1.00  0.00    -0.380 A  
HETATM   21  C   UNL     1     -11.130   6.745  70.154  1.00  0.00    -0.365 A  
ENDBRANCH  11  12
ENDBRANCH  10  11
ENDBRANCH   7  10
ENDBRANCH   6   7
ENDBRANCH   4   6
ENDBRANCH   2   4
TORSDOF 6
ENDMDL
MODEL      298
REMARK 921   NORMALIZED FREE ENERGY PREDICTED BY IDOCK:   -2.90 KCAL/MOL
REMARK 922        TOTAL FREE ENERGY PREDICTED BY IDOCK:   -4.59 KCAL/MOL
REMARK 923 INTER-LIGAND FREE ENERGY PREDICTED BY IDOCK:   -4.16 KCAL/MOL
REMARK 924 INTRA-LIGAND FREE ENERGY PREDICTED BY IDOCK:   -0.43 KCAL/MOL
REMARK 927      BINDING AFFINITY PREDICTED BY RF-SCORE:    0.00 PKD
ROOT
HETATM    1  C   UNL     1     -11.947  11.987  70.024  1.00  0.00    -0.400 C  
HETATM    2  C   UNL     1     -12.014  11.256  68.683  1.00  0.00    -0.243 C  
HETATM    3  C   UNL     1     -11.690  12.230  67.548  1.00  0.00    -0.402 C  
ENDROOT
BRANCH   2   4
HETATM    4  N   UNL     1     -11.069  10.138  68.725  1.00  0.00    -0.351 NA 
HETATM    5  H   UNL     1     -11.271   9.465  67.987  1.00  0.00     0.000 HD 
BRANCH   4   6
HETATM    6  C   UNL     1      -9.663  10.562  68.673  1.00  0.00    -0.173 C  
BRANCH   6   7
HETATM    7  C   UNL     1      -8.784   9.514  69.372  1.00  0.00    -0.165 C  
HETATM    8  O   UNL     1      -8.520   9.925  70.723  1.00  0.00    -0.379 OA 
HETATM    9  H   UNL     1      -7.976   9.277  71.156  1.00  0.00     0.000 HD 
BRANCH   7  10
HETATM   10  C   UNL     1      -9.443   8.131  69.373  1.00  0.00    -0.162 C  
BRANCH  10  11
HETATM   11  O   UNL     1      -8.448   7.102  69.515  1.00  0.00    -0.131 OA 
BRANCH  11  12
HETATM   12  C   UNL     1      -8.878   5.973  70.183  1.00  0.00    -0.143 A  
HETATM   13  C   UNL     1      -9.274   6.009  71.527  1.00  0.00    -0.151 A  
HETATM   14  C   UNL     1      -9.703   4.856  72.175  1.00  0.00    -0.213 A  
HETATM   15  C   UNL     1      -9.767   3.655  71.479  1.00  0.00    -0.238 A  
HETATM   16  C   UNL     1      -9.417   3.593  70.124  1.00  0.00    -0.258 A  
HETATM   17  C   UNL     1      -8.964   4.758  69.452  1.00  0.00    -0.135 A  
HETATM   18  C   UNL     1      -8.620   4.631  68.086  1.00  0.00    -0.108 A  
HETATM   19  C   UNL     1      -8.730   3.408  67.412  1.00  0.00    -0.133 A  
HETATM   20  C   UNL     1      -9.184   2.280  68.087  1.00  0.00    -0.247 A  
HETATM   21  C   UNL     1      -9.521   2.373  69.435  1.00  0.00    -0.126 A  
ENDBRANCH  11  12
ENDBRANCH  10  11
ENDBRANCH   7  10
ENDBRANCH   6   7
ENDBRANCH   4   6
ENDBRANCH   2   4
TORSDOF 6
ENDMDL
MODEL      299
REMARK 921   NORMALIZED FREE ENERGY PREDICTED BY IDOCK:   -2.88 KCAL/MOL
REMARK 922        TOTAL FREE ENERGY PREDICTED BY IDOCK:   -4.57 KCAL/MOL
REMARK 923 INTER-LIGAND FREE ENERGY PREDICTED BY IDOCK:   -3.86 KCAL/MOL
REMARK 924 INTRA-LIGAND FREE ENERGY PREDICTED BY IDOCK:   -0.71 KCAL/MOL
REMARK 927      BINDING AFFINITY PREDICTED BY RF-SCORE:    0.00 PKD
ROOT
HETATM    1  C   UNL     1     -12.522  12.539  64.448  1.00  0.00    -0.530 C  
HETATM    2  C   UNL     1     -11.420  13.573  64.682  1.00  0.00    -0.358 C  
HETATM    3  C   UNL     1     -12.041  14.964  64.830  1.00  0.00    -0.335 C  
ENDROOT
BRANCH   2   4
HETATM    4  N   UNL     1     -10.676  13.182  65.882  1.00  0.00    -0.271 NA 
HETATM    5  H   UNL     1      -9.939  13.856  66.086  1.00  0.00     0.000 HD 
BRANCH   4   6
HETATM    6  C   UNL     1     -11.533  12.974  67.057  1.00  0.00    -0.333 C  
BRANCH   6   7
HETATM    7  C   UNL     1     -10.786  13.418  68.322  1.00  0.00    -0.258 C  
HETATM    8  O   UNL     1     -11.715  13.577  69.406  1.00  0.00    -0.286 OA 
HETATM    9  H   UNL     1     -11.253  13.852  70.189  1.00  0.00     0.000 HD 
BRANCH   7  10
HETATM   10  C   UNL     1      -9.696  12.416  68.720  1.00  0.00     0.044 C  
BRANCH  10  11
HETATM   11  O   UNL     1      -9.828  11.204  67.957  1.00  0.00    -0.166 OA 
BRANCH  11  12
HETATM   12  C   UNL     1      -9.894  10.052  68.713  1.00  0.00    -0.167 A  
HETATM   13  C   UNL     1     -11.034   9.711  69.454  1.00  0.00    -0.215 A  
HETATM   14  C   UNL     1     -11.074   8.543  70.206  1.00  0.00    -0.222 A  
HETATM   15  C   UNL     1      -9.982   7.684  70.208  1.00  0.00    -0.189 A  
HETATM   16  C   UNL     1      -8.842   7.974  69.447  1.00  0.00    -0.144 A  
HETATM   17  C   UNL     1      -8.780   9.170  68.684  1.00  0.00    -0.129 A  
HETATM   18  C   UNL     1      -7.601   9.409  67.941  1.00  0.00    -0.087 A  
HETATM   19  C   UNL     1      -6.534   8.502  67.943  1.00  0.00    -0.057 A  
HETATM   20  C   UNL     1      -6.619   7.332  68.691  1.00  0.00    -0.045 A  
HETATM   21  C   UNL     1      -7.764   7.074  69.441  1.00  0.00    -0.108 A  
ENDBRANCH  11  12
ENDBRANCH  10  11
ENDBRANCH   7  10
ENDBRANCH   6   7
ENDBRANCH   4   6
ENDBRANCH   2   4
TORSDOF 6
ENDMDL
MODEL      300
REMARK 921   NORMALIZED FREE ENERGY PREDICTED BY IDOCK:   -2.88 KCAL/MOL
REMARK 922        TOTAL FREE ENERGY PREDICTED BY IDOCK:   -4.57 KCAL/MOL
REMARK 923 INTER-LIGAND FREE ENERGY PREDICTED BY IDOCK:   -3.65 KCAL/MOL
REMARK 924 INTRA-LIGAND FREE ENERGY PREDICTED BY IDOCK:   -0.92 KCAL/MOL
REMARK 927      BINDING AFFINITY PREDICTED BY RF-SCORE:    0.00 PKD
ROOT
HETATM    1  C   UNL     1     -12.123  10.658  71.453  1.00  0.00    -0.342 C  
HETATM    2  C   UNL     1     -12.239  10.205  69.997  1.00  0.00    -0.051 C  
HETATM    3  C   UNL     1     -12.046  11.404  69.066  1.00  0.00    -0.316 C  
ENDROOT
BRANCH   2   4
HETATM    4  N   UNL     1     -11.232   9.168  69.762  1.00  0.00    -0.420 NA 
HETATM    5  H   UNL     1     -10.893   9.205  68.801  1.00  0.00     0.000 HD 
BRANCH   4   6
HETATM    6  C   UNL     1     -10.112   9.216  70.712  1.00  0.00    -0.268 C  
BRANCH   6   7
HETATM    7  C   UNL     1      -9.480   7.822  70.831  1.00  0.00    -0.160 C  
HETATM    8  O   UNL     1     -10.508   6.834  71.000  1.00  0.00    -0.209 OA 
HETATM    9  H   UNL     1     -10.117   5.971  71.074  1.00  0.00     0.000 HD 
BRANCH   7  10
HETATM   10  C   UNL     1      -8.631   7.477  69.603  1.00  0.00    -0.136 C  
BRANCH  10  11
HETATM   11  O   UNL     1      -8.069   8.670  69.030  1.00  0.00    -0.116 OA 
BRANCH  11  12
HETATM   12  C   UNL     1      -8.441   8.912  67.723  1.00  0.00    -0.125 A  
HETATM   13  C   UNL     1      -8.615   7.878  66.794  1.00  0.00    -0.133 A  
HETATM   14  C   UNL     1      -8.990   8.151  65.484  1.00  0.00    -0.082 A  
HETATM   15  C   UNL     1      -9.224   9.462  65.091  1.00  0.00    -0.287 A  
HETATM   16  C   UNL     1      -9.099  10.517  66.005  1.00  0.00    -0.191 A  
HETATM   17  C   UNL     1      -8.703  10.256  67.343  1.00  0.00    -0.128 A  
HETATM   18  C   UNL     1      -8.589  11.363  68.216  1.00  0.00    -0.156 A  
HETATM   19  C   UNL     1      -8.866  12.668  67.789  1.00  0.00    -0.179 A  
HETATM   20  C   UNL     1      -9.261  12.900  66.475  1.00  0.00    -0.186 A  
HETATM   21  C   UNL     1      -9.372  11.831  65.590  1.00  0.00    -0.165 A  
ENDBRANCH  11  12
ENDBRANCH  10  11
ENDBRANCH   7  10
ENDBRANCH   6   7
ENDBRANCH   4   6
ENDBRANCH   2   4
TORSDOF 6
ENDMDL
MODEL      301
REMARK 921   NORMALIZED FREE ENERGY PREDICTED BY IDOCK:   -2.87 KCAL/MOL
REMARK 922        TOTAL FREE ENERGY PREDICTED BY IDOCK:   -4.56 KCAL/MOL
REMARK 923 INTER-LIGAND FREE ENERGY PREDICTED BY IDOCK:   -3.77 KCAL/MOL
REMARK 924 INTRA-LIGAND FREE ENERGY PREDICTED BY IDOCK:   -0.79 KCAL/MOL
REMARK 927      BINDING AFFINITY PREDICTED BY RF-SCORE:    0.00 PKD
ROOT
HETATM    1  C   UNL     1     -10.637  10.203  68.374  1.00  0.00    -0.249 C  
HETATM    2  C   UNL     1     -10.995  10.327  69.856  1.00  0.00    -0.303 C  
HETATM    3  C   UNL     1     -11.662  11.680  70.114  1.00  0.00    -0.381 C  
ENDROOT
BRANCH   2   4
HETATM    4  N   UNL     1     -11.877   9.212  70.206  1.00  0.00    -0.468 NA 
HETATM    5  H   UNL     1     -11.652   8.385  69.653  1.00  0.00     0.000 HD 
BRANCH   4   6
HETATM    6  C   UNL     1     -11.876   8.897  71.641  1.00  0.00    -0.345 C  
BRANCH   6   7
HETATM    7  C   UNL     1     -11.153   7.562  71.872  1.00  0.00    -0.239 C  
HETATM    8  O   UNL     1     -11.947   6.720  72.724  1.00  0.00    -0.485 OA 
HETATM    9  H   UNL     1     -11.499   5.894  72.867  1.00  0.00     0.000 HD 
BRANCH   7  10
HETATM   10  C   UNL     1     -10.865   6.836  70.554  1.00  0.00    -0.258 C  
BRANCH  10  11
HETATM   11  O   UNL     1      -9.505   6.369  70.526  1.00  0.00    -0.161 OA 
BRANCH  11  12
HETATM   12  C   UNL     1      -8.907   6.412  69.282  1.00  0.00    -0.128 A  
HETATM   13  C   UNL     1      -9.279   5.545  68.246  1.00  0.00    -0.118 A  
HETATM   14  C   UNL     1      -8.659   5.611  67.004  1.00  0.00    -0.109 A  
HETATM   15  C   UNL     1      -7.676   6.564  66.771  1.00  0.00    -0.099 A  
HETATM   16  C   UNL     1      -7.308   7.473  67.772  1.00  0.00    -0.103 A  
HETATM   17  C   UNL     1      -7.922   7.410  69.051  1.00  0.00    -0.122 A  
HETATM   18  C   UNL     1      -7.505   8.351  70.021  1.00  0.00    -0.063 A  
HETATM   19  C   UNL     1      -6.533   9.318  69.736  1.00  0.00    -0.040 A  
HETATM   20  C   UNL     1      -5.951   9.368  68.474  1.00  0.00    -0.044 A  
HETATM   21  C   UNL     1      -6.334   8.448  67.502  1.00  0.00    -0.057 A  
ENDBRANCH  11  12
ENDBRANCH  10  11
ENDBRANCH   7  10
ENDBRANCH   6   7
ENDBRANCH   4   6
ENDBRANCH   2   4
TORSDOF 6
ENDMDL
MODEL      302
REMARK 921   NORMALIZED FREE ENERGY PREDICTED BY IDOCK:   -2.87 KCAL/MOL
REMARK 922        TOTAL FREE ENERGY PREDICTED BY IDOCK:   -4.56 KCAL/MOL
REMARK 923 INTER-LIGAND FREE ENERGY PREDICTED BY IDOCK:   -4.15 KCAL/MOL
REMARK 924 INTRA-LIGAND FREE ENERGY PREDICTED BY IDOCK:   -0.41 KCAL/MOL
REMARK 927      BINDING AFFINITY PREDICTED BY RF-SCORE:    0.00 PKD
ROOT
HETATM    1  C   UNL     1      -7.446   6.584  65.200  1.00  0.00    -0.083 C  
HETATM    2  C   UNL     1      -7.800   7.013  66.624  1.00  0.00    -0.106 C  
HETATM    3  C   UNL     1      -6.678   6.604  67.580  1.00  0.00    -0.070 C  
ENDROOT
BRANCH   2   4
HETATM    4  N   UNL     1      -8.011   8.462  66.624  1.00  0.00    -0.096 NA 
HETATM    5  H   UNL     1      -8.320   8.783  65.707  1.00  0.00     0.000 HD 
BRANCH   4   6
HETATM    6  C   UNL     1      -8.935   8.916  67.673  1.00  0.00    -0.134 C  
BRANCH   6   7
HETATM    7  C   UNL     1     -10.275   9.316  67.040  1.00  0.00    -0.262 C  
HETATM    8  O   UNL     1     -11.273   9.459  68.063  1.00  0.00    -0.515 OA 
HETATM    9  H   UNL     1     -12.102   9.706  67.671  1.00  0.00     0.000 HD 
BRANCH   7  10
HETATM   10  C   UNL     1     -10.161  10.620  66.244  1.00  0.00    -0.235 C  
BRANCH  10  11
HETATM   11  O   UNL     1      -9.511  11.632  67.031  1.00  0.00    -0.178 OA 
BRANCH  11  12
HETATM   12  C   UNL     1      -9.578  12.906  66.503  1.00  0.00    -0.259 A  
HETATM   13  C   UNL     1     -10.529  13.262  65.536  1.00  0.00    -0.295 A  
HETATM   14  C   UNL     1     -10.574  14.552  65.022  1.00  0.00    -0.458 A  
HETATM   15  C   UNL     1      -9.685  15.513  65.486  1.00  0.00    -0.307 A  
HETATM   16  C   UNL     1      -8.749  15.202  66.481  1.00  0.00    -0.280 A  
HETATM   17  C   UNL     1      -8.681  13.885  67.007  1.00  0.00    -0.215 A  
HETATM   18  C   UNL     1      -7.711  13.631  68.005  1.00  0.00    -0.143 A  
HETATM   19  C   UNL     1      -6.855  14.637  68.470  1.00  0.00    -0.098 A  
HETATM   20  C   UNL     1      -6.944  15.923  67.947  1.00  0.00    -0.155 A  
HETATM   21  C   UNL     1      -7.883  16.200  66.957  1.00  0.00    -0.258 A  
ENDBRANCH  11  12
ENDBRANCH  10  11
ENDBRANCH   7  10
ENDBRANCH   6   7
ENDBRANCH   4   6
ENDBRANCH   2   4
TORSDOF 6
ENDMDL
MODEL      303
REMARK 921   NORMALIZED FREE ENERGY PREDICTED BY IDOCK:   -2.86 KCAL/MOL
REMARK 922        TOTAL FREE ENERGY PREDICTED BY IDOCK:   -4.54 KCAL/MOL
REMARK 923 INTER-LIGAND FREE ENERGY PREDICTED BY IDOCK:   -4.20 KCAL/MOL
REMARK 924 INTRA-LIGAND FREE ENERGY PREDICTED BY IDOCK:   -0.34 KCAL/MOL
REMARK 927      BINDING AFFINITY PREDICTED BY RF-SCORE:    0.00 PKD
ROOT
HETATM    1  C   UNL     1      -7.048   8.306  71.607  1.00  0.00    -0.084 C  
HETATM    2  C   UNL     1      -8.420   8.022  72.219  1.00  0.00    -0.155 C  
HETATM    3  C   UNL     1      -8.294   7.915  73.741  1.00  0.00    -0.292 C  
ENDROOT
BRANCH   2   4
HETATM    4  N   UNL     1      -9.327   9.101  71.824  1.00  0.00    -0.327 NA 
HETATM    5  H   UNL     1      -9.109   9.432  70.885  1.00  0.00     0.000 HD 
BRANCH   4   6
HETATM    6  C   UNL     1     -10.747   8.739  71.934  1.00  0.00    -0.359 C  
BRANCH   6   7
HETATM    7  C   UNL     1     -11.380   8.715  70.535  1.00  0.00    -0.218 C  
HETATM    8  O   UNL     1     -12.706   9.263  70.591  1.00  0.00    -0.507 OA 
HETATM    9  H   UNL     1     -13.097   9.248  69.726  1.00  0.00     0.000 HD 
BRANCH   7  10
HETATM   10  C   UNL     1     -10.541   9.497  69.519  1.00  0.00    -0.221 C  
BRANCH  10  11
HETATM   11  O   UNL     1     -11.025   9.265  68.185  1.00  0.00    -0.138 OA 
BRANCH  11  12
HETATM   12  C   UNL     1     -10.373   8.258  67.502  1.00  0.00    -0.265 A  
HETATM   13  C   UNL     1     -10.643   6.903  67.736  1.00  0.00    -0.305 A  
HETATM   14  C   UNL     1      -9.972   5.910  67.033  1.00  0.00    -0.195 A  
HETATM   15  C   UNL     1      -9.038   6.258  66.065  1.00  0.00    -0.126 A  
HETATM   16  C   UNL     1      -8.773   7.604  65.777  1.00  0.00    -0.151 A  
HETATM   17  C   UNL     1      -9.441   8.630  66.496  1.00  0.00    -0.278 A  
HETATM   18  C   UNL     1      -9.127   9.968  66.164  1.00  0.00    -0.188 A  
HETATM   19  C   UNL     1      -8.203  10.278  65.158  1.00  0.00    -0.161 A  
HETATM   20  C   UNL     1      -7.566   9.257  64.460  1.00  0.00    -0.107 A  
HETATM   21  C   UNL     1      -7.848   7.930  64.772  1.00  0.00    -0.125 A  
ENDBRANCH  11  12
ENDBRANCH  10  11
ENDBRANCH   7  10
ENDBRANCH   6   7
ENDBRANCH   4   6
ENDBRANCH   2   4
TORSDOF 6
ENDMDL
MODEL      304
REMARK 921   NORMALIZED FREE ENERGY PREDICTED BY IDOCK:   -2.84 KCAL/MOL
REMARK 922        TOTAL FREE ENERGY PREDICTED BY IDOCK:   -4.51 KCAL/MOL
REMARK 923 INTER-LIGAND FREE ENERGY PREDICTED BY IDOCK:   -3.37 KCAL/MOL
REMARK 924 INTRA-LIGAND FREE ENERGY PREDICTED BY IDOCK:   -1.15 KCAL/MOL
REMARK 927      BINDING AFFINITY PREDICTED BY RF-SCORE:    0.00 PKD
ROOT
HETATM    1  C   UNL     1      -9.350   8.452  68.687  1.00  0.00    -0.143 C  
HETATM    2  C   UNL     1     -10.028   9.823  68.659  1.00  0.00    -0.167 C  
HETATM    3  C   UNL     1     -11.392   9.738  69.349  1.00  0.00    -0.090 C  
ENDROOT
BRANCH   2   4
HETATM    4  N   UNL     1      -9.143  10.782  69.324  1.00  0.00    -0.376 NA 
HETATM    5  H   UNL     1      -9.659  11.338  70.005  1.00  0.00     0.000 HD 
BRANCH   4   6
HETATM    6  C   UNL     1      -7.967  10.157  69.944  1.00  0.00    -0.135 C  
BRANCH   6   7
HETATM    7  C   UNL     1      -6.694  10.866  69.461  1.00  0.00    -0.117 C  
HETATM    8  O   UNL     1      -5.603  10.565  70.345  1.00  0.00    -0.059 OA 
HETATM    9  H   UNL     1      -4.815  11.003  70.046  1.00  0.00     0.000 HD 
BRANCH   7  10
HETATM   10  C   UNL     1      -6.325  10.458  68.030  1.00  0.00    -0.059 C  
BRANCH  10  11
HETATM   11  O   UNL     1      -6.956  11.335  67.081  1.00  0.00    -0.096 OA 
BRANCH  11  12
HETATM   12  C   UNL     1      -7.581  10.693  66.031  1.00  0.00    -0.142 A  
HETATM   13  C   UNL     1      -7.109   9.480  65.512  1.00  0.00    -0.090 A  
HETATM   14  C   UNL     1      -7.759   8.856  64.455  1.00  0.00    -0.120 A  
HETATM   15  C   UNL     1      -8.906   9.424  63.915  1.00  0.00    -0.205 A  
HETATM   16  C   UNL     1      -9.428  10.615  64.436  1.00  0.00    -0.317 A  
HETATM   17  C   UNL     1      -8.769  11.272  65.508  1.00  0.00    -0.038 A  
HETATM   18  C   UNL     1      -9.341  12.474  65.986  1.00  0.00    -0.091 A  
HETATM   19  C   UNL     1     -10.518  12.997  65.437  1.00  0.00    -0.308 A  
HETATM   20  C   UNL     1     -11.153  12.332  64.393  1.00  0.00    -0.381 A  
HETATM   21  C   UNL     1     -10.607  11.152  63.895  1.00  0.00    -0.431 A  
ENDBRANCH  11  12
ENDBRANCH  10  11
ENDBRANCH   7  10
ENDBRANCH   6   7
ENDBRANCH   4   6
ENDBRANCH   2   4
TORSDOF 6
ENDMDL
MODEL      305
REMARK 921   NORMALIZED FREE ENERGY PREDICTED BY IDOCK:   -2.81 KCAL/MOL
REMARK 922        TOTAL FREE ENERGY PREDICTED BY IDOCK:   -4.48 KCAL/MOL
REMARK 923 INTER-LIGAND FREE ENERGY PREDICTED BY IDOCK:   -4.12 KCAL/MOL
REMARK 924 INTRA-LIGAND FREE ENERGY PREDICTED BY IDOCK:   -0.36 KCAL/MOL
REMARK 927      BINDING AFFINITY PREDICTED BY RF-SCORE:    0.00 PKD
ROOT
HETATM    1  C   UNL     1     -12.265  14.074  64.059  1.00  0.00    -0.395 C  
HETATM    2  C   UNL     1     -11.046  14.296  64.955  1.00  0.00    -0.390 C  
HETATM    3  C   UNL     1     -11.503  14.580  66.387  1.00  0.00    -0.362 C  
ENDROOT
BRANCH   2   4
HETATM    4  N   UNL     1     -10.203  13.101  64.881  1.00  0.00    -0.470 NA 
HETATM    5  H   UNL     1      -9.217  13.349  64.960  1.00  0.00     0.000 HD 
BRANCH   4   6
HETATM    6  C   UNL     1     -10.563  12.073  65.867  1.00  0.00    -0.265 C  
BRANCH   6   7
HETATM    7  C   UNL     1      -9.824  10.767  65.539  1.00  0.00    -0.255 C  
HETATM    8  O   UNL     1      -8.405  10.985  65.589  1.00  0.00    -0.274 OA 
HETATM    9  H   UNL     1      -7.948  10.178  65.386  1.00  0.00     0.000 HD 
BRANCH   7  10
HETATM   10  C   UNL     1     -10.207   9.640  66.505  1.00  0.00    -0.224 C  
BRANCH  10  11
HETATM   11  O   UNL     1      -9.736   8.375  66.011  1.00  0.00    -0.195 OA 
BRANCH  11  12
HETATM   12  C   UNL     1      -8.931   7.677  66.889  1.00  0.00    -0.138 A  
HETATM   13  C   UNL     1      -8.059   8.323  67.774  1.00  0.00    -0.127 A  
HETATM   14  C   UNL     1      -7.261   7.595  68.648  1.00  0.00    -0.082 A  
HETATM   15  C   UNL     1      -7.343   6.208  68.667  1.00  0.00    -0.086 A  
HETATM   16  C   UNL     1      -8.234   5.532  67.823  1.00  0.00    -0.100 A  
HETATM   17  C   UNL     1      -9.047   6.261  66.916  1.00  0.00    -0.132 A  
HETATM   18  C   UNL     1      -9.922   5.522  66.086  1.00  0.00    -0.133 A  
HETATM   19  C   UNL     1      -9.999   4.125  66.159  1.00  0.00    -0.188 A  
HETATM   20  C   UNL     1      -9.200   3.431  67.062  1.00  0.00    -0.208 A  
HETATM   21  C   UNL     1      -8.322   4.131  67.885  1.00  0.00    -0.097 A  
ENDBRANCH  11  12
ENDBRANCH  10  11
ENDBRANCH   7  10
ENDBRANCH   6   7
ENDBRANCH   4   6
ENDBRANCH   2   4
TORSDOF 6
ENDMDL
MODEL      306
REMARK 921   NORMALIZED FREE ENERGY PREDICTED BY IDOCK:   -2.80 KCAL/MOL
REMARK 922        TOTAL FREE ENERGY PREDICTED BY IDOCK:   -4.46 KCAL/MOL
REMARK 923 INTER-LIGAND FREE ENERGY PREDICTED BY IDOCK:   -4.04 KCAL/MOL
REMARK 924 INTRA-LIGAND FREE ENERGY PREDICTED BY IDOCK:   -0.42 KCAL/MOL
REMARK 927      BINDING AFFINITY PREDICTED BY RF-SCORE:    0.00 PKD
ROOT
HETATM    1  C   UNL     1     -11.366  16.127  71.403  1.00  0.00    -0.325 C  
HETATM    2  C   UNL     1     -12.226  14.863  71.456  1.00  0.00    -0.343 C  
HETATM    3  C   UNL     1     -13.663  15.233  71.834  1.00  0.00    -0.601 C  
ENDROOT
BRANCH   2   4
HETATM    4  N   UNL     1     -12.161  14.212  70.146  1.00  0.00    -0.325 NA 
HETATM    5  H   UNL     1     -13.036  14.334  69.638  1.00  0.00     0.000 HD 
BRANCH   4   6
HETATM    6  C   UNL     1     -11.020  14.653  69.332  1.00  0.00    -0.257 C  
BRANCH   6   7
HETATM    7  C   UNL     1     -11.530  15.253  68.014  1.00  0.00    -0.341 C  
HETATM    8  O   UNL     1     -12.960  15.128  67.944  1.00  0.00     0.834 OA 
HETATM    9  H   UNL     1     -13.275  15.499  67.129  1.00  0.00     0.000 HD 
BRANCH   7  10
HETATM   10  C   UNL     1     -11.133  16.725  67.869  1.00  0.00    -0.178 C  
BRANCH  10  11
HETATM   11  O   UNL     1     -10.346  16.918  66.681  1.00  0.00    -0.306 OA 
BRANCH  11  12
HETATM   12  C   UNL     1      -9.391  17.910  66.777  1.00  0.00    -0.275 A  
HETATM   13  C   UNL     1      -9.731  19.268  66.832  1.00  0.00    -0.406 A  
HETATM   14  C   UNL     1      -8.748  20.246  66.929  1.00  0.00    -0.385 A  
HETATM   15  C   UNL     1      -7.410  19.877  67.000  1.00  0.00    -0.272 A  
HETATM   16  C   UNL     1      -7.038  18.526  66.989  1.00  0.00    -0.211 A  
HETATM   17  C   UNL     1      -8.029  17.516  66.876  1.00  0.00    -0.254 A  
HETATM   18  C   UNL     1      -7.591  16.171  66.865  1.00  0.00    -0.275 A  
HETATM   19  C   UNL     1      -6.234  15.840  66.972  1.00  0.00     0.216 A  
HETATM   20  C   UNL     1      -5.280  16.846  67.090  1.00  0.00    -0.181 A  
HETATM   21  C   UNL     1      -5.681  18.179  67.094  1.00  0.00    -0.154 A  
ENDBRANCH  11  12
ENDBRANCH  10  11
ENDBRANCH   7  10
ENDBRANCH   6   7
ENDBRANCH   4   6
ENDBRANCH   2   4
TORSDOF 6
ENDMDL
MODEL      307
REMARK 921   NORMALIZED FREE ENERGY PREDICTED BY IDOCK:   -2.79 KCAL/MOL
REMARK 922        TOTAL FREE ENERGY PREDICTED BY IDOCK:   -4.45 KCAL/MOL
REMARK 923 INTER-LIGAND FREE ENERGY PREDICTED BY IDOCK:   -4.44 KCAL/MOL
REMARK 924 INTRA-LIGAND FREE ENERGY PREDICTED BY IDOCK:   -0.01 KCAL/MOL
REMARK 927      BINDING AFFINITY PREDICTED BY RF-SCORE:    0.00 PKD
ROOT
HETATM    1  C   UNL     1     -13.511  15.279  71.121  1.00  0.00    -0.559 C  
HETATM    2  C   UNL     1     -12.323  14.324  71.243  1.00  0.00    -0.363 C  
HETATM    3  C   UNL     1     -12.816  12.941  71.677  1.00  0.00    -0.368 C  
ENDROOT
BRANCH   2   4
HETATM    4  N   UNL     1     -11.642  14.275  69.948  1.00  0.00    -0.284 NA 
HETATM    5  H   UNL     1     -10.646  14.461  70.056  1.00  0.00     0.000 HD 
BRANCH   4   6
HETATM    6  C   UNL     1     -11.863  13.017  69.220  1.00  0.00    -0.316 C  
BRANCH   6   7
HETATM    7  C   UNL     1     -10.956  12.975  67.981  1.00  0.00    -0.250 C  
HETATM    8  O   UNL     1     -11.138  14.170  67.205  1.00  0.00    -0.293 OA 
HETATM    9  H   UNL     1     -10.578  14.144  66.438  1.00  0.00     0.000 HD 
BRANCH   7  10
HETATM   10  C   UNL     1      -9.480  12.828  68.363  1.00  0.00    -0.162 C  
BRANCH  10  11
HETATM   11  O   UNL     1      -9.235  11.527  68.925  1.00  0.00    -0.113 OA 
BRANCH  11  12
HETATM   12  C   UNL     1      -9.326  10.484  68.025  1.00  0.00    -0.145 A  
HETATM   13  C   UNL     1     -10.445   9.642  67.971  1.00  0.00    -0.276 A  
HETATM   14  C   UNL     1     -10.509   8.600  67.054  1.00  0.00    -0.354 A  
HETATM   15  C   UNL     1      -9.466   8.400  66.159  1.00  0.00    -0.263 A  
HETATM   16  C   UNL     1      -8.350   9.248  66.159  1.00  0.00    -0.122 A  
HETATM   17  C   UNL     1      -8.263  10.309  67.098  1.00  0.00    -0.121 A  
HETATM   18  C   UNL     1      -7.110  11.127  67.052  1.00  0.00    -0.124 A  
HETATM   19  C   UNL     1      -6.094  10.913  66.112  1.00  0.00    -0.135 A  
HETATM   20  C   UNL     1      -6.204   9.872  65.195  1.00  0.00    -0.100 A  
HETATM   21  C   UNL     1      -7.323   9.045  65.223  1.00  0.00    -0.092 A  
ENDBRANCH  11  12
ENDBRANCH  10  11
ENDBRANCH   7  10
ENDBRANCH   6   7
ENDBRANCH   4   6
ENDBRANCH   2   4
TORSDOF 6
ENDMDL
MODEL      308
REMARK 921   NORMALIZED FREE ENERGY PREDICTED BY IDOCK:   -2.77 KCAL/MOL
REMARK 922        TOTAL FREE ENERGY PREDICTED BY IDOCK:   -4.41 KCAL/MOL
REMARK 923 INTER-LIGAND FREE ENERGY PREDICTED BY IDOCK:   -3.77 KCAL/MOL
REMARK 924 INTRA-LIGAND FREE ENERGY PREDICTED BY IDOCK:   -0.65 KCAL/MOL
REMARK 927      BINDING AFFINITY PREDICTED BY RF-SCORE:    0.00 PKD
ROOT
HETATM    1  C   UNL     1      -8.496   4.214  63.537  1.00  0.00    -0.100 C  
HETATM    2  C   UNL     1      -7.693   4.192  64.838  1.00  0.00    -0.078 C  
HETATM    3  C   UNL     1      -6.321   4.831  64.608  1.00  0.00    -0.034 C  
ENDROOT
BRANCH   2   4
HETATM    4  N   UNL     1      -8.460   4.908  65.859  1.00  0.00    -0.117 NA 
HETATM    5  H   UNL     1      -9.131   5.543  65.428  1.00  0.00     0.000 HD 
BRANCH   4   6
HETATM    6  C   UNL     1      -9.127   4.017  66.818  1.00  0.00    -0.143 C  
BRANCH   6   7
HETATM    7  C   UNL     1      -8.980   4.587  68.236  1.00  0.00    -0.116 C  
HETATM    8  O   UNL     1      -7.644   5.079  68.427  1.00  0.00    -0.077 OA 
HETATM    9  H   UNL     1      -7.553   5.431  69.304  1.00  0.00     0.000 HD 
BRANCH   7  10
HETATM   10  C   UNL     1      -9.987   5.710  68.504  1.00  0.00    -0.157 C  
BRANCH  10  11
HETATM   11  O   UNL     1      -9.487   6.961  68.002  1.00  0.00    -0.126 OA 
BRANCH  11  12
HETATM   12  C   UNL     1     -10.008   8.080  68.622  1.00  0.00    -0.189 A  
HETATM   13  C   UNL     1     -10.165   8.156  70.012  1.00  0.00    -0.202 A  
HETATM   14  C   UNL     1     -10.691   9.296  70.608  1.00  0.00    -0.331 A  
HETATM   15  C   UNL     1     -11.044  10.387  69.824  1.00  0.00    -0.352 A  
HETATM   16  C   UNL     1     -10.861  10.360  68.435  1.00  0.00    -0.289 A  
HETATM   17  C   UNL     1     -10.337   9.198  67.809  1.00  0.00    -0.302 A  
HETATM   18  C   UNL     1     -10.182   9.230  66.404  1.00  0.00    -0.298 A  
HETATM   19  C   UNL     1     -10.518  10.362  65.652  1.00  0.00    -0.185 A  
HETATM   20  C   UNL     1     -11.022  11.493  66.287  1.00  0.00    -0.328 A  
HETATM   21  C   UNL     1     -11.196  11.488  67.669  1.00  0.00    -0.343 A  
ENDBRANCH  11  12
ENDBRANCH  10  11
ENDBRANCH   7  10
ENDBRANCH   6   7
ENDBRANCH   4   6
ENDBRANCH   2   4
TORSDOF 6
ENDMDL
MODEL      309
REMARK 921   NORMALIZED FREE ENERGY PREDICTED BY IDOCK:   -2.76 KCAL/MOL
REMARK 922        TOTAL FREE ENERGY PREDICTED BY IDOCK:   -4.41 KCAL/MOL
REMARK 923 INTER-LIGAND FREE ENERGY PREDICTED BY IDOCK:   -3.68 KCAL/MOL
REMARK 924 INTRA-LIGAND FREE ENERGY PREDICTED BY IDOCK:   -0.72 KCAL/MOL
REMARK 927      BINDING AFFINITY PREDICTED BY RF-SCORE:    0.00 PKD
ROOT
HETATM    1  C   UNL     1     -10.147   4.371  65.830  1.00  0.00    -0.262 C  
HETATM    2  C   UNL     1      -8.890   5.175  65.498  1.00  0.00    -0.148 C  
HETATM    3  C   UNL     1      -8.458   4.885  64.058  1.00  0.00    -0.137 C  
ENDROOT
BRANCH   2   4
HETATM    4  N   UNL     1      -9.190   6.594  65.698  1.00  0.00    -0.376 NA 
HETATM    5  H   UNL     1      -9.550   6.758  66.638  1.00  0.00     0.000 HD 
BRANCH   4   6
HETATM    6  C   UNL     1      -8.050   7.477  65.415  1.00  0.00    -0.133 C  
BRANCH   6   7
HETATM    7  C   UNL     1      -6.993   7.320  66.517  1.00  0.00    -0.073 C  
HETATM    8  O   UNL     1      -5.691   7.623  65.991  1.00  0.00    -0.035 OA 
HETATM    9  H   UNL     1      -5.038   7.526  66.673  1.00  0.00     0.000 HD 
BRANCH   7  10
HETATM   10  C   UNL     1      -7.287   8.224  67.719  1.00  0.00    -0.093 C  
BRANCH  10  11
HETATM   11  O   UNL     1      -8.530   7.848  68.337  1.00  0.00    -0.127 OA 
BRANCH  11  12
HETATM   12  C   UNL     1      -8.547   7.962  69.712  1.00  0.00    -0.133 A  
HETATM   13  C   UNL     1      -7.467   8.494  70.429  1.00  0.00    -0.069 A  
HETATM   14  C   UNL     1      -7.512   8.598  71.814  1.00  0.00    -0.114 A  
HETATM   15  C   UNL     1      -8.650   8.195  72.502  1.00  0.00    -0.255 A  
HETATM   16  C   UNL     1      -9.763   7.696  71.812  1.00  0.00    -0.196 A  
HETATM   17  C   UNL     1      -9.728   7.571  70.399  1.00  0.00    -0.179 A  
HETATM   18  C   UNL     1     -10.881   7.056  69.761  1.00  0.00    -0.276 A  
HETATM   19  C   UNL     1     -12.021   6.692  70.487  1.00  0.00    -0.377 A  
HETATM   20  C   UNL     1     -12.038   6.830  71.871  1.00  0.00    -0.375 A  
HETATM   21  C   UNL     1     -10.914   7.325  72.527  1.00  0.00    -0.322 A  
ENDBRANCH  11  12
ENDBRANCH  10  11
ENDBRANCH   7  10
ENDBRANCH   6   7
ENDBRANCH   4   6
ENDBRANCH   2   4
TORSDOF 6
ENDMDL
MODEL      310
REMARK 921   NORMALIZED FREE ENERGY PREDICTED BY IDOCK:   -2.75 KCAL/MOL
REMARK 922        TOTAL FREE ENERGY PREDICTED BY IDOCK:   -4.39 KCAL/MOL
REMARK 923 INTER-LIGAND FREE ENERGY PREDICTED BY IDOCK:   -3.83 KCAL/MOL
REMARK 924 INTRA-LIGAND FREE ENERGY PREDICTED BY IDOCK:   -0.56 KCAL/MOL
REMARK 927      BINDING AFFINITY PREDICTED BY RF-SCORE:    0.00 PKD
ROOT
HETATM    1  C   UNL     1     -11.068  15.834  64.878  1.00  0.00    -0.411 C  
HETATM    2  C   UNL     1     -10.194  15.011  65.825  1.00  0.00    -0.338 C  
HETATM    3  C   UNL     1      -9.436  15.946  66.771  1.00  0.00    -0.254 C  
ENDROOT
BRANCH   2   4
HETATM    4  N   UNL     1     -11.062  14.087  66.558  1.00  0.00    -0.309 NA 
HETATM    5  H   UNL     1     -11.600  14.582  67.268  1.00  0.00     0.000 HD 
BRANCH   4   6
HETATM    6  C   UNL     1     -11.947  13.302  65.686  1.00  0.00    -0.412 C  
BRANCH   6   7
HETATM    7  C   UNL     1     -11.279  11.961  65.350  1.00  0.00    -0.295 C  
HETATM    8  O   UNL     1     -10.323  12.144  64.293  1.00  0.00    -0.294 OA 
HETATM    9  H   UNL     1      -9.911  11.314  64.085  1.00  0.00     0.000 HD 
BRANCH   7  10
HETATM   10  C   UNL     1     -10.586  11.350  66.572  1.00  0.00    -0.263 C  
BRANCH  10  11
HETATM   11  O   UNL     1      -9.250  10.937  66.236  1.00  0.00    -0.167 OA 
BRANCH  11  12
HETATM   12  C   UNL     1      -8.288  11.288  67.162  1.00  0.00    -0.151 A  
HETATM   13  C   UNL     1      -7.622  12.520  67.113  1.00  0.00    -0.087 A  
HETATM   14  C   UNL     1      -6.658  12.847  68.059  1.00  0.00    -0.107 A  
HETATM   15  C   UNL     1      -6.365  11.957  69.085  1.00  0.00    -0.092 A  
HETATM   16  C   UNL     1      -7.041  10.734  69.187  1.00  0.00    -0.101 A  
HETATM   17  C   UNL     1      -8.019  10.379  68.221  1.00  0.00    -0.111 A  
HETATM   18  C   UNL     1      -8.663   9.129  68.374  1.00  0.00    -0.129 A  
HETATM   19  C   UNL     1      -8.362   8.274  69.441  1.00  0.00    -0.122 A  
HETATM   20  C   UNL     1      -7.406   8.645  70.382  1.00  0.00    -0.060 A  
HETATM   21  C   UNL     1      -6.749   9.866  70.251  1.00  0.00    -0.126 A  
ENDBRANCH  11  12
ENDBRANCH  10  11
ENDBRANCH   7  10
ENDBRANCH   6   7
ENDBRANCH   4   6
ENDBRANCH   2   4
TORSDOF 6
ENDMDL
MODEL      311
REMARK 921   NORMALIZED FREE ENERGY PREDICTED BY IDOCK:   -2.74 KCAL/MOL
REMARK 922        TOTAL FREE ENERGY PREDICTED BY IDOCK:   -4.38 KCAL/MOL
REMARK 923 INTER-LIGAND FREE ENERGY PREDICTED BY IDOCK:   -3.77 KCAL/MOL
REMARK 924 INTRA-LIGAND FREE ENERGY PREDICTED BY IDOCK:   -0.61 KCAL/MOL
REMARK 927      BINDING AFFINITY PREDICTED BY RF-SCORE:    0.00 PKD
ROOT
HETATM    1  C   UNL     1     -12.984   7.081  71.534  1.00  0.00    -0.411 C  
HETATM    2  C   UNL     1     -12.001   8.135  71.023  1.00  0.00    -0.240 C  
HETATM    3  C   UNL     1     -11.081   8.578  72.164  1.00  0.00    -0.436 C  
ENDROOT
BRANCH   2   4
HETATM    4  N   UNL     1     -11.245   7.552  69.913  1.00  0.00    -0.435 NA 
HETATM    5  H   UNL     1     -10.686   8.264  69.443  1.00  0.00     0.000 HD 
BRANCH   4   6
HETATM    6  C   UNL     1     -10.408   6.412  70.311  1.00  0.00    -0.205 C  
BRANCH   6   7
HETATM    7  C   UNL     1      -8.943   6.701  69.953  1.00  0.00    -0.144 C  
HETATM    8  O   UNL     1      -8.076   6.079  70.914  1.00  0.00    -0.116 OA 
HETATM    9  H   UNL     1      -7.169   6.257  70.693  1.00  0.00     0.000 HD 
BRANCH   7  10
HETATM   10  C   UNL     1      -8.594   6.204  68.546  1.00  0.00    -0.113 C  
BRANCH  10  11
HETATM   11  O   UNL     1      -9.702   5.483  67.980  1.00  0.00    -0.121 OA 
BRANCH  11  12
HETATM   12  C   UNL     1      -9.431   4.169  67.658  1.00  0.00    -0.180 A  
HETATM   13  C   UNL     1      -9.349   3.164  68.631  1.00  0.00    -0.236 A  
HETATM   14  C   UNL     1      -9.075   1.849  68.278  1.00  0.00    -0.207 A  
HETATM   15  C   UNL     1      -8.904   1.513  66.940  1.00  0.00    -0.127 A  
HETATM   16  C   UNL     1      -9.020   2.485  65.938  1.00  0.00    -0.122 A  
HETATM   17  C   UNL     1      -9.286   3.836  66.284  1.00  0.00    -0.190 A  
HETATM   18  C   UNL     1      -9.386   4.772  65.227  1.00  0.00    -0.148 A  
HETATM   19  C   UNL     1      -9.240   4.387  63.889  1.00  0.00    -0.128 A  
HETATM   20  C   UNL     1      -8.988   3.056  63.572  1.00  0.00    -0.092 A  
HETATM   21  C   UNL     1      -8.875   2.114  64.591  1.00  0.00    -0.115 A  
ENDBRANCH  11  12
ENDBRANCH  10  11
ENDBRANCH   7  10
ENDBRANCH   6   7
ENDBRANCH   4   6
ENDBRANCH   2   4
TORSDOF 6
ENDMDL
MODEL      312
REMARK 921   NORMALIZED FREE ENERGY PREDICTED BY IDOCK:   -2.73 KCAL/MOL
REMARK 922        TOTAL FREE ENERGY PREDICTED BY IDOCK:   -4.36 KCAL/MOL
REMARK 923 INTER-LIGAND FREE ENERGY PREDICTED BY IDOCK:   -4.05 KCAL/MOL
REMARK 924 INTRA-LIGAND FREE ENERGY PREDICTED BY IDOCK:   -0.31 KCAL/MOL
REMARK 927      BINDING AFFINITY PREDICTED BY RF-SCORE:    0.00 PKD
ROOT
HETATM    1  C   UNL     1      -6.116  13.118  67.565  1.00  0.00    -0.112 C  
HETATM    2  C   UNL     1      -7.247  13.997  68.099  1.00  0.00    -0.129 C  
HETATM    3  C   UNL     1      -7.260  15.332  67.351  1.00  0.00    -0.235 C  
ENDROOT
BRANCH   2   4
HETATM    4  N   UNL     1      -8.507  13.270  67.930  1.00  0.00    -0.164 NA 
HETATM    5  H   UNL     1      -8.883  13.410  66.993  1.00  0.00     0.000 HD 
BRANCH   4   6
HETATM    6  C   UNL     1      -8.399  11.837  68.240  1.00  0.00    -0.159 C  
BRANCH   6   7
HETATM    7  C   UNL     1      -9.748  11.152  67.976  1.00  0.00    -0.176 C  
HETATM    8  O   UNL     1     -10.012  11.124  66.564  1.00  0.00    -0.202 OA 
HETATM    9  H   UNL     1     -10.846  10.700  66.401  1.00  0.00     0.000 HD 
BRANCH   7  10
HETATM   10  C   UNL     1      -9.779   9.726  68.535  1.00  0.00    -0.154 C  
BRANCH  10  11
HETATM   11  O   UNL     1      -9.681   9.748  69.970  1.00  0.00    -0.229 OA 
BRANCH  11  12
HETATM   12  C   UNL     1     -10.641   9.001  70.624  1.00  0.00    -0.236 A  
HETATM   13  C   UNL     1     -11.952   9.462  70.799  1.00  0.00    -0.298 A  
HETATM   14  C   UNL     1     -12.898   8.688  71.461  1.00  0.00    -0.351 A  
HETATM   15  C   UNL     1     -12.552   7.429  71.936  1.00  0.00    -0.322 A  
HETATM   16  C   UNL     1     -11.260   6.921  71.742  1.00  0.00    -0.284 A  
HETATM   17  C   UNL     1     -10.279   7.705  71.079  1.00  0.00    -0.200 A  
HETATM   18  C   UNL     1      -8.993   7.139  70.919  1.00  0.00    -0.151 A  
HETATM   19  C   UNL     1      -8.693   5.852  71.384  1.00  0.00    -0.133 A  
HETATM   20  C   UNL     1      -9.672   5.098  72.023  1.00  0.00    -0.205 A  
HETATM   21  C   UNL     1     -10.945   5.633  72.204  1.00  0.00    -0.307 A  
ENDBRANCH  11  12
ENDBRANCH  10  11
ENDBRANCH   7  10
ENDBRANCH   6   7
ENDBRANCH   4   6
ENDBRANCH   2   4
TORSDOF 6
ENDMDL
MODEL      313
REMARK 921   NORMALIZED FREE ENERGY PREDICTED BY IDOCK:   -2.68 KCAL/MOL
REMARK 922        TOTAL FREE ENERGY PREDICTED BY IDOCK:   -4.30 KCAL/MOL
REMARK 923 INTER-LIGAND FREE ENERGY PREDICTED BY IDOCK:   -3.90 KCAL/MOL
REMARK 924 INTRA-LIGAND FREE ENERGY PREDICTED BY IDOCK:   -0.40 KCAL/MOL
REMARK 927      BINDING AFFINITY PREDICTED BY RF-SCORE:    0.00 PKD
ROOT
HETATM    1  C   UNL     1      -7.802   7.155  71.962  1.00  0.00    -0.091 C  
HETATM    2  C   UNL     1      -9.021   7.956  71.505  1.00  0.00    -0.136 C  
HETATM    3  C   UNL     1     -10.049   8.022  72.637  1.00  0.00    -0.370 C  
ENDROOT
BRANCH   2   4
HETATM    4  N   UNL     1      -8.567   9.291  71.108  1.00  0.00    -0.308 NA 
HETATM    5  H   UNL     1      -8.714   9.962  71.861  1.00  0.00     0.000 HD 
BRANCH   4   6
HETATM    6  C   UNL     1      -7.171   9.319  70.650  1.00  0.00    -0.117 C  
BRANCH   6   7
HETATM    7  C   UNL     1      -6.960  10.520  69.717  1.00  0.00    -0.144 C  
HETATM    8  O   UNL     1      -5.861  10.260  68.829  1.00  0.00    -0.041 OA 
HETATM    9  H   UNL     1      -5.731  11.003  68.252  1.00  0.00     0.000 HD 
BRANCH   7  10
HETATM   10  C   UNL     1      -8.219  10.832  68.901  1.00  0.00    -0.149 C  
BRANCH  10  11
HETATM   11  O   UNL     1      -7.897  11.685  67.790  1.00  0.00    -0.116 OA 
BRANCH  11  12
HETATM   12  C   UNL     1      -8.434  12.955  67.863  1.00  0.00    -0.181 A  
HETATM   13  C   UNL     1      -7.908  13.938  68.712  1.00  0.00    -0.079 A  
HETATM   14  C   UNL     1      -8.469  15.209  68.765  1.00  0.00    -0.180 A  
HETATM   15  C   UNL     1      -9.549  15.523  67.950  1.00  0.00    -0.206 A  
HETATM   16  C   UNL     1     -10.073  14.576  67.060  1.00  0.00    -0.254 A  
HETATM   17  C   UNL     1      -9.520  13.270  67.003  1.00  0.00    -0.243 A  
HETATM   18  C   UNL     1     -10.097  12.357  66.089  1.00  0.00    -0.265 A  
HETATM   19  C   UNL     1     -11.164  12.724  65.260  1.00  0.00    -0.328 A  
HETATM   20  C   UNL     1     -11.685  14.012  65.325  1.00  0.00    -0.349 A  
HETATM   21  C   UNL     1     -11.144  14.929  66.223  1.00  0.00    -0.340 A  
ENDBRANCH  11  12
ENDBRANCH  10  11
ENDBRANCH   7  10
ENDBRANCH   6   7
ENDBRANCH   4   6
ENDBRANCH   2   4
TORSDOF 6
ENDMDL
MODEL      314
REMARK 921   NORMALIZED FREE ENERGY PREDICTED BY IDOCK:   -2.68 KCAL/MOL
REMARK 922        TOTAL FREE ENERGY PREDICTED BY IDOCK:   -4.29 KCAL/MOL
REMARK 923 INTER-LIGAND FREE ENERGY PREDICTED BY IDOCK:   -4.20 KCAL/MOL
REMARK 924 INTRA-LIGAND FREE ENERGY PREDICTED BY IDOCK:   -0.09 KCAL/MOL
REMARK 927      BINDING AFFINITY PREDICTED BY RF-SCORE:    0.00 PKD
ROOT
HETATM    1  C   UNL     1     -10.365   8.333  68.605  1.00  0.00    -0.225 C  
HETATM    2  C   UNL     1      -9.796   9.600  69.245  1.00  0.00    -0.189 C  
HETATM    3  C   UNL     1     -10.028   9.562  70.758  1.00  0.00    -0.334 C  
ENDROOT
BRANCH   2   4
HETATM    4  N   UNL     1      -8.371   9.676  68.917  1.00  0.00    -0.112 NA 
HETATM    5  H   UNL     1      -7.807   9.725  69.765  1.00  0.00     0.000 HD 
BRANCH   4   6
HETATM    6  C   UNL     1      -7.914   8.582  68.049  1.00  0.00    -0.111 C  
BRANCH   6   7
HETATM    7  C   UNL     1      -7.404   9.160  66.721  1.00  0.00    -0.086 C  
HETATM    8  O   UNL     1      -7.193   8.097  65.777  1.00  0.00    -0.066 OA 
HETATM    9  H   UNL     1      -6.877   8.455  64.956  1.00  0.00     0.000 HD 
BRANCH   7  10
HETATM   10  C   UNL     1      -8.383  10.183  66.134  1.00  0.00    -0.131 C  
BRANCH  10  11
HETATM   11  O   UNL     1      -7.831  11.508  66.215  1.00  0.00    -0.086 OA 
BRANCH  11  12
HETATM   12  C   UNL     1      -8.628  12.425  66.870  1.00  0.00    -0.171 A  
HETATM   13  C   UNL     1      -8.227  13.043  68.063  1.00  0.00    -0.161 A  
HETATM   14  C   UNL     1      -9.050  13.964  68.700  1.00  0.00    -0.085 A  
HETATM   15  C   UNL     1     -10.276  14.300  68.141  1.00  0.00    -0.231 A  
HETATM   16  C   UNL     1     -10.690  13.731  66.928  1.00  0.00    -0.280 A  
HETATM   17  C   UNL     1      -9.867  12.779  66.271  1.00  0.00    -0.269 A  
HETATM   18  C   UNL     1     -10.342  12.237  65.054  1.00  0.00    -0.321 A  
HETATM   19  C   UNL     1     -11.570  12.627  64.506  1.00  0.00    -0.399 A  
HETATM   20  C   UNL     1     -12.357  13.568  65.162  1.00  0.00    -0.488 A  
HETATM   21  C   UNL     1     -11.919  14.112  66.367  1.00  0.00    -0.457 A  
ENDBRANCH  11  12
ENDBRANCH  10  11
ENDBRANCH   7  10
ENDBRANCH   6   7
ENDBRANCH   4   6
ENDBRANCH   2   4
TORSDOF 6
ENDMDL
MODEL      315
REMARK 921   NORMALIZED FREE ENERGY PREDICTED BY IDOCK:   -2.67 KCAL/MOL
REMARK 922        TOTAL FREE ENERGY PREDICTED BY IDOCK:   -4.29 KCAL/MOL
REMARK 923 INTER-LIGAND FREE ENERGY PREDICTED BY IDOCK:   -3.62 KCAL/MOL
REMARK 924 INTRA-LIGAND FREE ENERGY PREDICTED BY IDOCK:   -0.67 KCAL/MOL
REMARK 927      BINDING AFFINITY PREDICTED BY RF-SCORE:    0.00 PKD
ROOT
HETATM    1  C   UNL     1      -6.234   8.003  64.752  1.00  0.00    -0.049 C  
HETATM    2  C   UNL     1      -7.021   9.285  64.482  1.00  0.00    -0.093 C  
HETATM    3  C   UNL     1      -8.447   8.934  64.049  1.00  0.00    -0.146 C  
ENDROOT
BRANCH   2   4
HETATM    4  N   UNL     1      -7.010  10.093  65.703  1.00  0.00    -0.118 NA 
HETATM    5  H   UNL     1      -6.196  10.707  65.724  1.00  0.00     0.000 HD 
BRANCH   4   6
HETATM    6  C   UNL     1      -8.247  10.860  65.907  1.00  0.00    -0.133 C  
BRANCH   6   7
HETATM    7  C   UNL     1      -7.991  11.988  66.917  1.00  0.00    -0.112 C  
HETATM    8  O   UNL     1      -8.807  13.125  66.593  1.00  0.00    -0.378 OA 
HETATM    9  H   UNL     1      -8.649  13.822  67.218  1.00  0.00     0.000 HD 
BRANCH   7  10
HETATM   10  C   UNL     1      -8.278  11.539  68.354  1.00  0.00    -0.152 C  
BRANCH  10  11
HETATM   11  O   UNL     1      -9.435  10.685  68.390  1.00  0.00    -0.153 OA 
BRANCH  11  12
HETATM   12  C   UNL     1      -9.273   9.527  69.124  1.00  0.00    -0.163 A  
HETATM   13  C   UNL     1      -8.666   9.524  70.387  1.00  0.00    -0.265 A  
HETATM   14  C   UNL     1      -8.518   8.344  71.104  1.00  0.00    -0.178 A  
HETATM   15  C   UNL     1      -8.998   7.150  70.580  1.00  0.00    -0.155 A  
HETATM   16  C   UNL     1      -9.647   7.124  69.338  1.00  0.00    -0.153 A  
HETATM   17  C   UNL     1      -9.795   8.320  68.587  1.00  0.00    -0.186 A  
HETATM   18  C   UNL     1     -10.453   8.228  67.338  1.00  0.00    -0.353 A  
HETATM   19  C   UNL     1     -10.953   7.011  66.859  1.00  0.00    -0.271 A  
HETATM   20  C   UNL     1     -10.805   5.852  67.616  1.00  0.00    -0.331 A  
HETATM   21  C   UNL     1     -10.152   5.911  68.844  1.00  0.00    -0.231 A  
ENDBRANCH  11  12
ENDBRANCH  10  11
ENDBRANCH   7  10
ENDBRANCH   6   7
ENDBRANCH   4   6
ENDBRANCH   2   4
TORSDOF 6
ENDMDL
MODEL      316
REMARK 921   NORMALIZED FREE ENERGY PREDICTED BY IDOCK:   -2.67 KCAL/MOL
REMARK 922        TOTAL FREE ENERGY PREDICTED BY IDOCK:   -4.28 KCAL/MOL
REMARK 923 INTER-LIGAND FREE ENERGY PREDICTED BY IDOCK:   -3.87 KCAL/MOL
REMARK 924 INTRA-LIGAND FREE ENERGY PREDICTED BY IDOCK:   -0.41 KCAL/MOL
REMARK 927      BINDING AFFINITY PREDICTED BY RF-SCORE:    0.00 PKD
ROOT
HETATM    1  C   UNL     1      -6.285  13.699  68.117  1.00  0.00    -0.117 C  
HETATM    2  C   UNL     1      -7.476  14.655  68.177  1.00  0.00    -0.123 C  
HETATM    3  C   UNL     1      -7.228  15.847  67.249  1.00  0.00    -0.251 C  
ENDROOT
BRANCH   2   4
HETATM    4  N   UNL     1      -8.678  13.911  67.794  1.00  0.00    -0.175 NA 
HETATM    5  H   UNL     1      -8.827  13.959  66.787  1.00  0.00     0.000 HD 
BRANCH   4   6
HETATM    6  C   UNL     1      -8.671  12.516  68.255  1.00  0.00    -0.171 C  
BRANCH   6   7
HETATM    7  C   UNL     1      -9.159  11.599  67.123  1.00  0.00    -0.171 C  
HETATM    8  O   UNL     1      -8.563  12.001  65.880  1.00  0.00    -0.392 OA 
HETATM    9  H   UNL     1      -8.865  11.435  65.180  1.00  0.00     0.000 HD 
BRANCH   7  10
HETATM   10  C   UNL     1      -8.829  10.129  67.402  1.00  0.00    -0.131 C  
BRANCH  10  11
HETATM   11  O   UNL     1      -9.731   9.590  68.383  1.00  0.00    -0.150 OA 
BRANCH  11  12
HETATM   12  C   UNL     1      -9.951   8.231  68.278  1.00  0.00    -0.191 A  
HETATM   13  C   UNL     1     -10.434   7.643  67.102  1.00  0.00    -0.412 A  
HETATM   14  C   UNL     1     -10.645   6.272  67.025  1.00  0.00    -0.386 A  
HETATM   15  C   UNL     1     -10.353   5.464  68.116  1.00  0.00    -0.210 A  
HETATM   16  C   UNL     1      -9.830   6.014  69.294  1.00  0.00    -0.191 A  
HETATM   17  C   UNL     1      -9.621   7.415  69.394  1.00  0.00    -0.155 A  
HETATM   18  C   UNL     1      -9.097   7.911  70.610  1.00  0.00    -0.153 A  
HETATM   19  C   UNL     1      -8.784   7.059  71.677  1.00  0.00    -0.116 A  
HETATM   20  C   UNL     1      -8.988   5.688  71.555  1.00  0.00    -0.148 A  
HETATM   21  C   UNL     1      -9.512   5.173  70.373  1.00  0.00    -0.229 A  
ENDBRANCH  11  12
ENDBRANCH  10  11
ENDBRANCH   7  10
ENDBRANCH   6   7
ENDBRANCH   4   6
ENDBRANCH   2   4
TORSDOF 6
ENDMDL
MODEL      317
REMARK 921   NORMALIZED FREE ENERGY PREDICTED BY IDOCK:   -2.66 KCAL/MOL
REMARK 922        TOTAL FREE ENERGY PREDICTED BY IDOCK:   -4.27 KCAL/MOL
REMARK 923 INTER-LIGAND FREE ENERGY PREDICTED BY IDOCK:   -3.73 KCAL/MOL
REMARK 924 INTRA-LIGAND FREE ENERGY PREDICTED BY IDOCK:   -0.55 KCAL/MOL
REMARK 927      BINDING AFFINITY PREDICTED BY RF-SCORE:    0.00 PKD
ROOT
HETATM    1  C   UNL     1      -9.229   5.938  67.034  1.00  0.00    -0.120 C  
HETATM    2  C   UNL     1      -8.094   6.465  67.913  1.00  0.00    -0.115 C  
HETATM    3  C   UNL     1      -6.785   5.766  67.538  1.00  0.00    -0.059 C  
ENDROOT
BRANCH   2   4
HETATM    4  N   UNL     1      -8.007   7.915  67.725  1.00  0.00    -0.122 NA 
HETATM    5  H   UNL     1      -8.202   8.166  66.756  1.00  0.00     0.000 HD 
BRANCH   4   6
HETATM    6  C   UNL     1      -8.867   8.674  68.643  1.00  0.00    -0.142 C  
BRANCH   6   7
HETATM    7  C   UNL     1      -9.801   9.587  67.836  1.00  0.00    -0.156 C  
HETATM    8  O   UNL     1     -11.169   9.304  68.171  1.00  0.00    -0.493 OA 
HETATM    9  H   UNL     1     -11.746   9.869  67.671  1.00  0.00     0.000 HD 
BRANCH   7  10
HETATM   10  C   UNL     1      -9.504  11.069  68.089  1.00  0.00    -0.172 C  
BRANCH  10  11
HETATM   11  O   UNL     1      -8.738  11.619  67.003  1.00  0.00    -0.160 OA 
BRANCH  11  12
HETATM   12  C   UNL     1      -9.319  11.478  65.759  1.00  0.00    -0.221 A  
HETATM   13  C   UNL     1     -10.562  12.044  65.448  1.00  0.00    -0.319 A  
HETATM   14  C   UNL     1     -11.122  11.886  64.186  1.00  0.00    -0.441 A  
HETATM   15  C   UNL     1     -10.434  11.180  63.207  1.00  0.00    -0.323 A  
HETATM   16  C   UNL     1      -9.170  10.636  63.472  1.00  0.00    -0.283 A  
HETATM   17  C   UNL     1      -8.590  10.777  64.760  1.00  0.00    -0.079 A  
HETATM   18  C   UNL     1      -7.315  10.201  64.967  1.00  0.00    -0.139 A  
HETATM   19  C   UNL     1      -6.639   9.526  63.944  1.00  0.00    -0.101 A  
HETATM   20  C   UNL     1      -7.222   9.407  62.686  1.00  0.00    -0.100 A  
HETATM   21  C   UNL     1      -8.480   9.955  62.455  1.00  0.00    -0.179 A  
ENDBRANCH  11  12
ENDBRANCH  10  11
ENDBRANCH   7  10
ENDBRANCH   6   7
ENDBRANCH   4   6
ENDBRANCH   2   4
TORSDOF 6
ENDMDL
MODEL      318
REMARK 921   NORMALIZED FREE ENERGY PREDICTED BY IDOCK:   -2.64 KCAL/MOL
REMARK 922        TOTAL FREE ENERGY PREDICTED BY IDOCK:   -4.25 KCAL/MOL
REMARK 923 INTER-LIGAND FREE ENERGY PREDICTED BY IDOCK:   -3.35 KCAL/MOL
REMARK 924 INTRA-LIGAND FREE ENERGY PREDICTED BY IDOCK:   -0.90 KCAL/MOL
REMARK 927      BINDING AFFINITY PREDICTED BY RF-SCORE:    0.00 PKD
ROOT
HETATM    1  C   UNL     1      -9.759   8.919  68.734  1.00  0.00    -0.170 C  
HETATM    2  C   UNL     1     -10.567   9.364  69.953  1.00  0.00    -0.234 C  
HETATM    3  C   UNL     1     -11.310  10.664  69.633  1.00  0.00    -0.360 C  
ENDROOT
BRANCH   2   4
HETATM    4  N   UNL     1     -11.491   8.285  70.306  1.00  0.00    -0.459 NA 
HETATM    5  H   UNL     1     -11.065   7.651  70.982  1.00  0.00     0.000 HD 
BRANCH   4   6
HETATM    6  C   UNL     1     -12.792   8.766  70.790  1.00  0.00     0.268 C  
BRANCH   6   7
HETATM    7  C   UNL     1     -12.990   8.332  72.249  1.00  0.00    -0.257 C  
HETATM    8  O   UNL     1     -14.392   8.300  72.562  1.00  0.00    -0.650 OA 
HETATM    9  H   UNL     1     -14.514   8.032  73.465  1.00  0.00     0.000 HD 
BRANCH   7  10
HETATM   10  C   UNL     1     -12.370   6.958  72.522  1.00  0.00     0.152 C  
BRANCH  10  11
HETATM   11  O   UNL     1     -11.061   7.104  73.099  1.00  0.00    -0.307 OA 
BRANCH  11  12
HETATM   12  C   UNL     1     -10.394   5.917  73.324  1.00  0.00    -0.217 A  
HETATM   13  C   UNL     1     -10.893   4.935  74.190  1.00  0.00    -0.226 A  
HETATM   14  C   UNL     1     -10.201   3.748  74.397  1.00  0.00    -0.237 A  
HETATM   15  C   UNL     1      -9.010   3.514  73.720  1.00  0.00    -0.087 A  
HETATM   16  C   UNL     1      -8.503   4.458  72.816  1.00  0.00    -0.106 A  
HETATM   17  C   UNL     1      -9.192   5.681  72.604  1.00  0.00    -0.141 A  
HETATM   18  C   UNL     1      -8.627   6.595  71.683  1.00  0.00    -0.123 A  
HETATM   19  C   UNL     1      -7.442   6.308  70.996  1.00  0.00    -0.085 A  
HETATM   20  C   UNL     1      -6.788   5.099  71.213  1.00  0.00    -0.047 A  
HETATM   21  C   UNL     1      -7.314   4.184  72.121  1.00  0.00    -0.065 A  
ENDBRANCH  11  12
ENDBRANCH  10  11
ENDBRANCH   7  10
ENDBRANCH   6   7
ENDBRANCH   4   6
ENDBRANCH   2   4
TORSDOF 6
ENDMDL
MODEL      319
REMARK 921   NORMALIZED FREE ENERGY PREDICTED BY IDOCK:   -2.62 KCAL/MOL
REMARK 922        TOTAL FREE ENERGY PREDICTED BY IDOCK:   -4.22 KCAL/MOL
REMARK 923 INTER-LIGAND FREE ENERGY PREDICTED BY IDOCK:   -3.76 KCAL/MOL
REMARK 924 INTRA-LIGAND FREE ENERGY PREDICTED BY IDOCK:   -0.46 KCAL/MOL
REMARK 927      BINDING AFFINITY PREDICTED BY RF-SCORE:    0.00 PKD
ROOT
HETATM    1  C   UNL     1      -7.640   6.792  72.074  1.00  0.00    -0.094 C  
HETATM    2  C   UNL     1      -8.993   7.495  71.957  1.00  0.00    -0.125 C  
HETATM    3  C   UNL     1      -9.867   7.136  73.161  1.00  0.00    -0.251 C  
ENDROOT
BRANCH   2   4
HETATM    4  N   UNL     1      -8.751   8.937  71.874  1.00  0.00    -0.370 NA 
HETATM    5  H   UNL     1      -8.788   9.364  72.799  1.00  0.00     0.000 HD 
BRANCH   4   6
HETATM    6  C   UNL     1      -7.495   9.279  71.192  1.00  0.00    -0.013 C  
BRANCH   6   7
HETATM    7  C   UNL     1      -7.781  10.267  70.052  1.00  0.00    -0.074 C  
HETATM    8  O   UNL     1      -7.007  11.463  70.239  1.00  0.00    -0.457 OA 
HETATM    9  H   UNL     1      -7.185  12.074  69.534  1.00  0.00     0.000 HD 
BRANCH   7  10
HETATM   10  C   UNL     1      -7.469   9.659  68.681  1.00  0.00    -0.075 C  
BRANCH  10  11
HETATM   11  O   UNL     1      -7.124  10.691  67.742  1.00  0.00    -0.081 OA 
BRANCH  11  12
HETATM   12  C   UNL     1      -7.826  10.647  66.554  1.00  0.00    -0.140 A  
HETATM   13  C   UNL     1      -7.529   9.718  65.547  1.00  0.00    -0.115 A  
HETATM   14  C   UNL     1      -8.252   9.695  64.361  1.00  0.00    -0.157 A  
HETATM   15  C   UNL     1      -9.302  10.586  64.174  1.00  0.00    -0.309 A  
HETATM   16  C   UNL     1      -9.652  11.501  65.176  1.00  0.00    -0.235 A  
HETATM   17  C   UNL     1      -8.914  11.545  66.388  1.00  0.00    -0.200 A  
HETATM   18  C   UNL     1      -9.312  12.494  67.359  1.00  0.00    -0.187 A  
HETATM   19  C   UNL     1     -10.398  13.352  67.146  1.00  0.00    -0.246 A  
HETATM   20  C   UNL     1     -11.113  13.286  65.954  1.00  0.00    -0.301 A  
HETATM   21  C   UNL     1     -10.738  12.368  64.976  1.00  0.00    -0.329 A  
ENDBRANCH  11  12
ENDBRANCH  10  11
ENDBRANCH   7  10
ENDBRANCH   6   7
ENDBRANCH   4   6
ENDBRANCH   2   4
TORSDOF 6
ENDMDL
MODEL      320
REMARK 921   NORMALIZED FREE ENERGY PREDICTED BY IDOCK:   -2.60 KCAL/MOL
REMARK 922        TOTAL FREE ENERGY PREDICTED BY IDOCK:   -4.19 KCAL/MOL
REMARK 923 INTER-LIGAND FREE ENERGY PREDICTED BY IDOCK:   -3.89 KCAL/MOL
REMARK 924 INTRA-LIGAND FREE ENERGY PREDICTED BY IDOCK:   -0.30 KCAL/MOL
REMARK 927      BINDING AFFINITY PREDICTED BY RF-SCORE:    0.00 PKD
ROOT
HETATM    1  C   UNL     1     -12.161   7.034  71.086  1.00  0.00    -0.427 C  
HETATM    2  C   UNL     1     -10.965   7.954  70.841  1.00  0.00    -0.243 C  
HETATM    3  C   UNL     1     -10.159   8.108  72.134  1.00  0.00    -0.320 C  
ENDROOT
BRANCH   2   4
HETATM    4  N   UNL     1     -10.157   7.375  69.765  1.00  0.00    -0.189 NA 
HETATM    5  H   UNL     1     -10.386   6.390  69.632  1.00  0.00     0.000 HD 
BRANCH   4   6
HETATM    6  C   UNL     1     -10.262   8.111  68.498  1.00  0.00    -0.208 C  
BRANCH   6   7
HETATM    7  C   UNL     1      -9.947   7.167  67.329  1.00  0.00    -0.186 C  
HETATM    8  O   UNL     1     -11.132   6.946  66.549  1.00  0.00    -0.435 OA 
HETATM    9  H   UNL     1     -10.938   6.362  65.826  1.00  0.00     0.000 HD 
BRANCH   7  10
HETATM   10  C   UNL     1      -8.836   7.725  66.432  1.00  0.00    -0.155 C  
BRANCH  10  11
HETATM   11  O   UNL     1      -8.715   9.146  66.609  1.00  0.00    -0.124 OA 
BRANCH  11  12
HETATM   12  C   UNL     1      -9.018   9.894  65.489  1.00  0.00    -0.174 A  
HETATM   13  C   UNL     1     -10.283  10.463  65.292  1.00  0.00    -0.332 A  
HETATM   14  C   UNL     1     -10.559  11.212  64.155  1.00  0.00    -0.436 A  
HETATM   15  C   UNL     1      -9.564  11.427  63.209  1.00  0.00    -0.373 A  
HETATM   16  C   UNL     1      -8.276  10.907  63.395  1.00  0.00     0.130 A  
HETATM   17  C   UNL     1      -7.982  10.128  64.544  1.00  0.00    -0.147 A  
HETATM   18  C   UNL     1      -6.666   9.626  64.672  1.00  0.00    -0.101 A  
HETATM   19  C   UNL     1      -5.682   9.892  63.712  1.00  0.00    -0.115 A  
HETATM   20  C   UNL     1      -5.989  10.666  62.597  1.00  0.00    -0.137 A  
HETATM   21  C   UNL     1      -7.279  11.164  62.440  1.00  0.00     0.079 A  
ENDBRANCH  11  12
ENDBRANCH  10  11
ENDBRANCH   7  10
ENDBRANCH   6   7
ENDBRANCH   4   6
ENDBRANCH   2   4
TORSDOF 6
ENDMDL
MODEL      321
REMARK 921   NORMALIZED FREE ENERGY PREDICTED BY IDOCK:   -2.58 KCAL/MOL
REMARK 922        TOTAL FREE ENERGY PREDICTED BY IDOCK:   -4.16 KCAL/MOL
REMARK 923 INTER-LIGAND FREE ENERGY PREDICTED BY IDOCK:   -3.93 KCAL/MOL
REMARK 924 INTRA-LIGAND FREE ENERGY PREDICTED BY IDOCK:   -0.23 KCAL/MOL
REMARK 927      BINDING AFFINITY PREDICTED BY RF-SCORE:    0.00 PKD
ROOT
HETATM    1  C   UNL     1      -8.105   9.114  70.886  1.00  0.00    -0.201 C  
HETATM    2  C   UNL     1      -7.715   9.494  69.457  1.00  0.00    -0.100 C  
HETATM    3  C   UNL     1      -8.899   9.252  68.518  1.00  0.00    -0.129 C  
ENDROOT
BRANCH   2   4
HETATM    4  N   UNL     1      -7.301  10.898  69.456  1.00  0.00    -0.257 NA 
HETATM    5  H   UNL     1      -6.494  11.038  70.064  1.00  0.00     0.000 HD 
BRANCH   4   6
HETATM    6  C   UNL     1      -7.037  11.427  68.110  1.00  0.00    -0.075 C  
BRANCH   6   7
HETATM    7  C   UNL     1      -6.069  12.615  68.206  1.00  0.00    -0.068 C  
HETATM    8  O   UNL     1      -5.222  12.646  67.046  1.00  0.00    -0.334 OA 
HETATM    9  H   UNL     1      -4.622  13.381  67.106  1.00  0.00     0.000 HD 
BRANCH   7  10
HETATM   10  C   UNL     1      -6.815  13.947  68.336  1.00  0.00    -0.101 C  
BRANCH  10  11
HETATM   11  O   UNL     1      -8.097  13.745  68.953  1.00  0.00    -0.072 OA 
BRANCH  11  12
HETATM   12  C   UNL     1      -9.171  14.193  68.211  1.00  0.00    -0.198 A  
HETATM   13  C   UNL     1     -10.083  13.312  67.613  1.00  0.00    -0.229 A  
HETATM   14  C   UNL     1     -11.155  13.791  66.871  1.00  0.00    -0.311 A  
HETATM   15  C   UNL     1     -11.348  15.161  66.738  1.00  0.00    -0.248 A  
HETATM   16  C   UNL     1     -10.479  16.069  67.357  1.00  0.00    -0.308 A  
HETATM   17  C   UNL     1      -9.370  15.596  68.107  1.00  0.00    -0.194 A  
HETATM   18  C   UNL     1      -8.526  16.562  68.703  1.00  0.00    -0.243 A  
HETATM   19  C   UNL     1      -8.774  17.934  68.573  1.00  0.00    -0.297 A  
HETATM   20  C   UNL     1      -9.871  18.376  67.840  1.00  0.00    -0.348 A  
HETATM   21  C   UNL     1     -10.714  17.449  67.234  1.00  0.00    -0.219 A  
ENDBRANCH  11  12
ENDBRANCH  10  11
ENDBRANCH   7  10
ENDBRANCH   6   7
ENDBRANCH   4   6
ENDBRANCH   2   4
TORSDOF 6
ENDMDL
MODEL      322
REMARK 921   NORMALIZED FREE ENERGY PREDICTED BY IDOCK:   -2.55 KCAL/MOL
REMARK 922        TOTAL FREE ENERGY PREDICTED BY IDOCK:   -4.12 KCAL/MOL
REMARK 923 INTER-LIGAND FREE ENERGY PREDICTED BY IDOCK:   -3.68 KCAL/MOL
REMARK 924 INTRA-LIGAND FREE ENERGY PREDICTED BY IDOCK:   -0.45 KCAL/MOL
REMARK 927      BINDING AFFINITY PREDICTED BY RF-SCORE:    0.00 PKD
ROOT
HETATM    1  C   UNL     1     -10.502   4.250  65.205  1.00  0.00    -0.196 C  
HETATM    2  C   UNL     1      -9.088   4.671  65.606  1.00  0.00    -0.142 C  
HETATM    3  C   UNL     1      -8.172   4.632  64.381  1.00  0.00    -0.112 C  
ENDROOT
BRANCH   2   4
HETATM    4  N   UNL     1      -9.159   6.013  66.188  1.00  0.00    -0.151 NA 
HETATM    5  H   UNL     1      -9.822   6.037  66.962  1.00  0.00     0.000 HD 
BRANCH   4   6
HETATM    6  C   UNL     1      -7.851   6.536  66.606  1.00  0.00    -0.104 C  
BRANCH   6   7
HETATM    7  C   UNL     1      -7.589   6.155  68.070  1.00  0.00    -0.101 C  
HETATM    8  O   UNL     1      -6.175   6.127  68.320  1.00  0.00    -0.028 OA 
HETATM    9  H   UNL     1      -6.013   5.891  69.225  1.00  0.00     0.000 HD 
BRANCH   7  10
HETATM   10  C   UNL     1      -8.265   7.129  69.040  1.00  0.00    -0.125 C  
BRANCH  10  11
HETATM   11  O   UNL     1      -9.693   7.096  68.870  1.00  0.00    -0.145 OA 
BRANCH  11  12
HETATM   12  C   UNL     1     -10.416   7.382  70.010  1.00  0.00    -0.226 A  
HETATM   13  C   UNL     1     -11.012   8.632  70.221  1.00  0.00    -0.251 A  
HETATM   14  C   UNL     1     -11.735   8.891  71.379  1.00  0.00    -0.385 A  
HETATM   15  C   UNL     1     -11.896   7.894  72.332  1.00  0.00    -0.402 A  
HETATM   16  C   UNL     1     -11.348   6.620  72.134  1.00  0.00    -0.309 A  
HETATM   17  C   UNL     1     -10.595   6.343  70.963  1.00  0.00    -0.282 A  
HETATM   18  C   UNL     1     -10.062   5.040  70.824  1.00  0.00    -0.307 A  
HETATM   19  C   UNL     1     -10.274   4.052  71.793  1.00  0.00    -0.135 A  
HETATM   20  C   UNL     1     -11.023   4.342  72.929  1.00  0.00    -0.200 A  
HETATM   21  C   UNL     1     -11.551   5.619  73.098  1.00  0.00    -0.076 A  
ENDBRANCH  11  12
ENDBRANCH  10  11
ENDBRANCH   7  10
ENDBRANCH   6   7
ENDBRANCH   4   6
ENDBRANCH   2   4
TORSDOF 6
ENDMDL
MODEL      323
REMARK 921   NORMALIZED FREE ENERGY PREDICTED BY IDOCK:   -2.50 KCAL/MOL
REMARK 922        TOTAL FREE ENERGY PREDICTED BY IDOCK:   -4.06 KCAL/MOL
REMARK 923 INTER-LIGAND FREE ENERGY PREDICTED BY IDOCK:   -3.61 KCAL/MOL
REMARK 924 INTRA-LIGAND FREE ENERGY PREDICTED BY IDOCK:   -0.44 KCAL/MOL
REMARK 927      BINDING AFFINITY PREDICTED BY RF-SCORE:    0.00 PKD
ROOT
HETATM    1  C   UNL     1     -12.207  12.398  69.599  1.00  0.00    -0.171 C  
HETATM    2  C   UNL     1     -12.060  11.592  68.308  1.00  0.00    -0.002 C  
HETATM    3  C   UNL     1     -11.495  12.487  67.203  1.00  0.00    -0.414 C  
ENDROOT
BRANCH   2   4
HETATM    4  N   UNL     1     -11.184  10.450  68.581  1.00  0.00    -0.360 NA 
HETATM    5  H   UNL     1     -11.635   9.576  68.312  1.00  0.00     0.000 HD 
BRANCH   4   6
HETATM    6  C   UNL     1      -9.860  10.569  67.956  1.00  0.00    -0.147 C  
BRANCH   6   7
HETATM    7  C   UNL     1      -8.797   9.968  68.887  1.00  0.00    -0.148 C  
HETATM    8  O   UNL     1      -8.186  11.009  69.665  1.00  0.00    -0.366 OA 
HETATM    9  H   UNL     1      -7.528  10.637  70.240  1.00  0.00     0.000 HD 
BRANCH   7  10
HETATM   10  C   UNL     1      -9.393   8.908  69.820  1.00  0.00    -0.166 C  
BRANCH  10  11
HETATM   11  O   UNL     1      -8.363   8.025  70.297  1.00  0.00    -0.121 OA 
BRANCH  11  12
HETATM   12  C   UNL     1      -8.581   7.518  71.563  1.00  0.00    -0.116 A  
HETATM   13  C   UNL     1      -8.644   8.341  72.695  1.00  0.00    -0.264 A  
HETATM   14  C   UNL     1      -8.865   7.803  73.957  1.00  0.00    -0.304 A  
HETATM   15  C   UNL     1      -9.053   6.434  74.102  1.00  0.00    -0.172 A  
HETATM   16  C   UNL     1      -9.037   5.587  72.986  1.00  0.00    -0.125 A  
HETATM   17  C   UNL     1      -8.799   6.120  71.691  1.00  0.00    -0.138 A  
HETATM   18  C   UNL     1      -8.789   5.213  70.605  1.00  0.00    -0.150 A  
HETATM   19  C   UNL     1      -9.016   3.844  70.789  1.00  0.00    -0.153 A  
HETATM   20  C   UNL     1      -9.256   3.344  72.066  1.00  0.00    -0.172 A  
HETATM   21  C   UNL     1      -9.261   4.211  73.155  1.00  0.00    -0.123 A  
ENDBRANCH  11  12
ENDBRANCH  10  11
ENDBRANCH   7  10
ENDBRANCH   6   7
ENDBRANCH   4   6
ENDBRANCH   2   4
TORSDOF 6
ENDMDL
MODEL      324
REMARK 921   NORMALIZED FREE ENERGY PREDICTED BY IDOCK:   -2.43 KCAL/MOL
REMARK 922        TOTAL FREE ENERGY PREDICTED BY IDOCK:   -3.96 KCAL/MOL
REMARK 923 INTER-LIGAND FREE ENERGY PREDICTED BY IDOCK:   -3.49 KCAL/MOL
REMARK 924 INTRA-LIGAND FREE ENERGY PREDICTED BY IDOCK:   -0.46 KCAL/MOL
REMARK 927      BINDING AFFINITY PREDICTED BY RF-SCORE:    0.00 PKD
ROOT
HETATM    1  C   UNL     1      -9.130   8.051  69.431  1.00  0.00    -0.148 C  
HETATM    2  C   UNL     1     -10.619   7.705  69.394  1.00  0.00    -0.215 C  
HETATM    3  C   UNL     1     -10.836   6.456  68.536  1.00  0.00    -0.382 C  
ENDROOT
BRANCH   2   4
HETATM    4  N   UNL     1     -11.074   7.503  70.771  1.00  0.00    -0.260 NA 
HETATM    5  H   UNL     1     -10.367   7.012  71.317  1.00  0.00     0.000 HD 
BRANCH   4   6
HETATM    6  C   UNL     1     -11.479   8.747  71.439  1.00  0.00    -0.297 C  
BRANCH   6   7
HETATM    7  C   UNL     1     -12.049   9.725  70.401  1.00  0.00    -0.106 C  
HETATM    8  O   UNL     1     -13.481   9.767  70.507  1.00  0.00    -0.606 OA 
HETATM    9  H   UNL     1     -13.833  10.372  69.865  1.00  0.00     0.000 HD 
BRANCH   7  10
HETATM   10  C   UNL     1     -11.477  11.136  70.576  1.00  0.00    -0.065 C  
BRANCH  10  11
HETATM   11  O   UNL     1     -11.021  11.652  69.315  1.00  0.00    -0.232 OA 
BRANCH  11  12
HETATM   12  C   UNL     1     -10.887  13.026  69.268  1.00  0.00     0.003 A  
HETATM   13  C   UNL     1     -11.961  13.888  69.529  1.00  0.00    -0.396 A  
HETATM   14  C   UNL     1     -11.797  15.267  69.476  1.00  0.00    -0.368 A  
HETATM   15  C   UNL     1     -10.549  15.805  69.187  1.00  0.00    -0.242 A  
HETATM   16  C   UNL     1      -9.445  14.971  68.961  1.00  0.00    -0.210 A  
HETATM   17  C   UNL     1      -9.599  13.561  68.999  1.00  0.00     0.251 A  
HETATM   18  C   UNL     1      -8.449  12.773  68.757  1.00  0.00     0.161 A  
HETATM   19  C   UNL     1      -7.201  13.354  68.502  1.00  0.00    -0.110 A  
HETATM   20  C   UNL     1      -7.070  14.739  68.478  1.00  0.00    -0.110 A  
HETATM   21  C   UNL     1      -8.187  15.540  68.703  1.00  0.00    -0.162 A  
ENDBRANCH  11  12
ENDBRANCH  10  11
ENDBRANCH   7  10
ENDBRANCH   6   7
ENDBRANCH   4   6
ENDBRANCH   2   4
TORSDOF 6
ENDMDL
MODEL      325
REMARK 921   NORMALIZED FREE ENERGY PREDICTED BY IDOCK:   -2.36 KCAL/MOL
REMARK 922        TOTAL FREE ENERGY PREDICTED BY IDOCK:   -3.86 KCAL/MOL
REMARK 923 INTER-LIGAND FREE ENERGY PREDICTED BY IDOCK:   -3.38 KCAL/MOL
REMARK 924 INTRA-LIGAND FREE ENERGY PREDICTED BY IDOCK:   -0.49 KCAL/MOL
REMARK 927      BINDING AFFINITY PREDICTED BY RF-SCORE:    0.00 PKD
ROOT
HETATM    1  C   UNL     1     -10.893   9.931  67.147  1.00  0.00    -0.227 C  
HETATM    2  C   UNL     1      -9.558   9.873  66.403  1.00  0.00    -0.200 C  
HETATM    3  C   UNL     1      -9.802   9.972  64.896  1.00  0.00    -0.352 C  
ENDROOT
BRANCH   2   4
HETATM    4  N   UNL     1      -8.718  10.970  66.889  1.00  0.00    -0.144 NA 
HETATM    5  H   UNL     1      -9.222  11.856  66.849  1.00  0.00     0.000 HD 
BRANCH   4   6
HETATM    6  C   UNL     1      -8.177  10.738  68.235  1.00  0.00    -0.124 C  
BRANCH   6   7
HETATM    7  C   UNL     1      -7.377   9.427  68.247  1.00  0.00    -0.078 C  
HETATM    8  O   UNL     1      -5.986   9.704  68.020  1.00  0.00    -0.043 OA 
HETATM    9  H   UNL     1      -5.491   8.893  68.027  1.00  0.00     0.000 HD 
BRANCH   7  10
HETATM   10  C   UNL     1      -7.543   8.673  69.570  1.00  0.00    -0.088 C  
BRANCH  10  11
HETATM   11  O   UNL     1      -7.971   7.322  69.327  1.00  0.00    -0.114 OA 
BRANCH  11  12
HETATM   12  C   UNL     1      -8.272   6.599  70.464  1.00  0.00    -0.118 A  
HETATM   13  C   UNL     1      -7.284   5.956  71.222  1.00  0.00    -0.078 A  
HETATM   14  C   UNL     1      -7.616   5.236  72.363  1.00  0.00    -0.097 A  
HETATM   15  C   UNL     1      -8.940   5.169  72.778  1.00  0.00    -0.123 A  
HETATM   16  C   UNL     1      -9.947   5.834  72.067  1.00  0.00    -0.208 A  
HETATM   17  C   UNL     1      -9.626   6.563  70.891  1.00  0.00    -0.186 A  
HETATM   18  C   UNL     1     -10.688   7.208  70.214  1.00  0.00    -0.258 A  
HETATM   19  C   UNL     1     -12.005   7.144  70.684  1.00  0.00    -0.312 A  
HETATM   20  C   UNL     1     -12.297   6.431  71.843  1.00  0.00    -0.279 A  
HETATM   21  C   UNL     1     -11.274   5.778  72.525  1.00  0.00    -0.347 A  
ENDBRANCH  11  12
ENDBRANCH  10  11
ENDBRANCH   7  10
ENDBRANCH   6   7
ENDBRANCH   4   6
ENDBRANCH   2   4
TORSDOF 6
ENDMDL
MODEL      326
REMARK 921   NORMALIZED FREE ENERGY PREDICTED BY IDOCK:   -2.30 KCAL/MOL
REMARK 922        TOTAL FREE ENERGY PREDICTED BY IDOCK:   -3.79 KCAL/MOL
REMARK 923 INTER-LIGAND FREE ENERGY PREDICTED BY IDOCK:   -3.42 KCAL/MOL
REMARK 924 INTRA-LIGAND FREE ENERGY PREDICTED BY IDOCK:   -0.37 KCAL/MOL
REMARK 927      BINDING AFFINITY PREDICTED BY RF-SCORE:    0.00 PKD
ROOT
HETATM    1  C   UNL     1     -11.983  11.222  69.071  1.00  0.00    -0.393 C  
HETATM    2  C   UNL     1     -11.764  10.876  70.544  1.00  0.00    -0.342 C  
HETATM    3  C   UNL     1     -13.007  10.178  71.101  1.00  0.00    -0.488 C  
ENDROOT
BRANCH   2   4
HETATM    4  N   UNL     1     -10.576  10.027  70.641  1.00  0.00    -0.376 NA 
HETATM    5  H   UNL     1     -10.799   9.143  71.098  1.00  0.00     0.000 HD 
BRANCH   4   6
HETATM    6  C   UNL     1      -9.919   9.794  69.347  1.00  0.00    -0.205 C  
BRANCH   6   7
HETATM    7  C   UNL     1      -8.559  10.506  69.326  1.00  0.00    -0.126 C  
HETATM    8  O   UNL     1      -7.583   9.713  70.020  1.00  0.00    -0.109 OA 
HETATM    9  H   UNL     1      -6.742  10.154  70.007  1.00  0.00     0.000 HD 
BRANCH   7  10
HETATM   10  C   UNL     1      -8.081  10.777  67.896  1.00  0.00    -0.112 C  
BRANCH  10  11
HETATM   11  O   UNL     1      -7.787   9.540  67.224  1.00  0.00    -0.098 OA 
BRANCH  11  12
HETATM   12  C   UNL     1      -8.030   9.551  65.865  1.00  0.00    -0.111 A  
HETATM   13  C   UNL     1      -8.877  10.493  65.267  1.00  0.00    -0.205 A  
HETATM   14  C   UNL     1      -9.102  10.481  63.895  1.00  0.00    -0.257 A  
HETATM   15  C   UNL     1      -8.462   9.541  63.097  1.00  0.00    -0.199 A  
HETATM   16  C   UNL     1      -7.578   8.610  63.658  1.00  0.00    -0.127 A  
HETATM   17  C   UNL     1      -7.347   8.601  65.058  1.00  0.00    -0.086 A  
HETATM   18  C   UNL     1      -6.447   7.634  65.564  1.00  0.00    -0.042 A  
HETATM   19  C   UNL     1      -5.797   6.724  64.722  1.00  0.00    -0.035 A  
HETATM   20  C   UNL     1      -6.030   6.756  63.351  1.00  0.00    -0.035 A  
HETATM   21  C   UNL     1      -6.918   7.691  62.825  1.00  0.00    -0.076 A  
ENDBRANCH  11  12
ENDBRANCH  10  11
ENDBRANCH   7  10
ENDBRANCH   6   7
ENDBRANCH   4   6
ENDBRANCH   2   4
TORSDOF 6
ENDMDL
MODEL      327
REMARK 921   NORMALIZED FREE ENERGY PREDICTED BY IDOCK:   -2.27 KCAL/MOL
REMARK 922        TOTAL FREE ENERGY PREDICTED BY IDOCK:   -3.75 KCAL/MOL
REMARK 923 INTER-LIGAND FREE ENERGY PREDICTED BY IDOCK:   -3.18 KCAL/MOL
REMARK 924 INTRA-LIGAND FREE ENERGY PREDICTED BY IDOCK:   -0.57 KCAL/MOL
REMARK 927      BINDING AFFINITY PREDICTED BY RF-SCORE:    0.00 PKD
ROOT
HETATM    1  C   UNL     1      -8.010  12.227  68.159  1.00  0.00    -0.155 C  
HETATM    2  C   UNL     1      -9.492  12.470  67.874  1.00  0.00    -0.196 C  
HETATM    3  C   UNL     1      -9.660  13.047  66.467  1.00  0.00    -0.260 C  
ENDROOT
BRANCH   2   4
HETATM    4  N   UNL     1     -10.200  11.197  68.026  1.00  0.00    -0.176 NA 
HETATM    5  H   UNL     1      -9.567  10.412  67.879  1.00  0.00     0.000 HD 
BRANCH   4   6
HETATM    6  C   UNL     1     -10.900  11.069  69.312  1.00  0.00    -0.238 C  
BRANCH   6   7
HETATM    7  C   UNL     1     -10.853   9.607  69.778  1.00  0.00    -0.250 C  
HETATM    8  O   UNL     1     -12.025   9.306  70.553  1.00  0.00    -0.435 OA 
HETATM    9  H   UNL     1     -11.996   8.401  70.841  1.00  0.00     0.000 HD 
BRANCH   7  10
HETATM   10  C   UNL     1     -10.753   8.637  68.596  1.00  0.00    -0.051 C  
BRANCH  10  11
HETATM   11  O   UNL     1      -9.423   8.647  68.051  1.00  0.00    -0.139 OA 
BRANCH  11  12
HETATM   12  C   UNL     1      -8.990   7.429  67.566  1.00  0.00    -0.126 A  
HETATM   13  C   UNL     1      -9.022   6.264  68.343  1.00  0.00    -0.116 A  
HETATM   14  C   UNL     1      -8.580   5.051  67.828  1.00  0.00    -0.103 A  
HETATM   15  C   UNL     1      -8.123   4.981  66.518  1.00  0.00    -0.108 A  
HETATM   16  C   UNL     1      -8.115   6.119  65.701  1.00  0.00    -0.128 A  
HETATM   17  C   UNL     1      -8.551   7.368  66.216  1.00  0.00    -0.148 A  
HETATM   18  C   UNL     1      -8.514   8.481  65.343  1.00  0.00    -0.190 A  
HETATM   19  C   UNL     1      -8.077   8.362  64.019  1.00  0.00    -0.142 A  
HETATM   20  C   UNL     1      -7.662   7.126  63.531  1.00  0.00    -0.119 A  
HETATM   21  C   UNL     1      -7.678   6.015  64.370  1.00  0.00    -0.104 A  
ENDBRANCH  11  12
ENDBRANCH  10  11
ENDBRANCH   7  10
ENDBRANCH   6   7
ENDBRANCH   4   6
ENDBRANCH   2   4
TORSDOF 6
ENDMDL
MODEL      328
REMARK 921   NORMALIZED FREE ENERGY PREDICTED BY IDOCK:   -2.18 KCAL/MOL
REMARK 922        TOTAL FREE ENERGY PREDICTED BY IDOCK:   -3.62 KCAL/MOL
REMARK 923 INTER-LIGAND FREE ENERGY PREDICTED BY IDOCK:   -3.09 KCAL/MOL
REMARK 924 INTRA-LIGAND FREE ENERGY PREDICTED BY IDOCK:   -0.54 KCAL/MOL
REMARK 927      BINDING AFFINITY PREDICTED BY RF-SCORE:    0.00 PKD
ROOT
HETATM    1  C   UNL     1      -6.575  16.842  68.678  1.00  0.00    -0.173 C  
HETATM    2  C   UNL     1      -7.536  16.004  69.522  1.00  0.00    -0.125 C  
HETATM    3  C   UNL     1      -8.976  16.452  69.262  1.00  0.00    -0.130 C  
ENDROOT
BRANCH   2   4
HETATM    4  N   UNL     1      -7.336  14.595  69.177  1.00  0.00    -0.138 NA 
HETATM    5  H   UNL     1      -8.182  14.198  68.770  1.00  0.00     0.000 HD 
BRANCH   4   6
HETATM    6  C   UNL     1      -6.180  14.369  68.299  1.00  0.00    -0.120 C  
BRANCH   6   7
HETATM    7  C   UNL     1      -6.394  13.081  67.490  1.00  0.00    -0.149 C  
HETATM    8  O   UNL     1      -5.213  12.784  66.728  1.00  0.00    -0.318 OA 
HETATM    9  H   UNL     1      -5.345  11.987  66.228  1.00  0.00     0.000 HD 
BRANCH   7  10
HETATM   10  C   UNL     1      -6.736  11.893  68.395  1.00  0.00    -0.067 C  
BRANCH  10  11
HETATM   11  O   UNL     1      -6.740  10.671  67.638  1.00  0.00    -0.070 OA 
BRANCH  11  12
HETATM   12  C   UNL     1      -7.887  10.452  66.902  1.00  0.00    -0.114 A  
HETATM   13  C   UNL     1      -9.162  10.480  67.483  1.00  0.00    -0.152 A  
HETATM   14  C   UNL     1     -10.300  10.257  66.718  1.00  0.00    -0.288 A  
HETATM   15  C   UNL     1     -10.181  10.028  65.353  1.00  0.00    -0.226 A  
HETATM   16  C   UNL     1      -8.925  10.033  64.732  1.00  0.00    -0.247 A  
HETATM   17  C   UNL     1      -7.751  10.246  65.503  1.00  0.00    -0.149 A  
HETATM   18  C   UNL     1      -6.513  10.235  64.820  1.00  0.00    -0.105 A  
HETATM   19  C   UNL     1      -6.438  10.033  63.436  1.00  0.00    -0.136 A  
HETATM   20  C   UNL     1      -7.601   9.835  62.699  1.00  0.00    -0.122 A  
HETATM   21  C   UNL     1      -8.834   9.831  63.345  1.00  0.00    -0.258 A  
ENDBRANCH  11  12
ENDBRANCH  10  11
ENDBRANCH   7  10
ENDBRANCH   6   7
ENDBRANCH   4   6
ENDBRANCH   2   4
TORSDOF 6
ENDMDL
MODEL      329
REMARK 921   NORMALIZED FREE ENERGY PREDICTED BY IDOCK:   -2.16 KCAL/MOL
REMARK 922        TOTAL FREE ENERGY PREDICTED BY IDOCK:   -3.60 KCAL/MOL
REMARK 923 INTER-LIGAND FREE ENERGY PREDICTED BY IDOCK:   -2.94 KCAL/MOL
REMARK 924 INTRA-LIGAND FREE ENERGY PREDICTED BY IDOCK:   -0.66 KCAL/MOL
REMARK 927      BINDING AFFINITY PREDICTED BY RF-SCORE:    0.00 PKD
ROOT
HETATM    1  C   UNL     1      -9.502   8.736  71.505  1.00  0.00    -0.341 C  
HETATM    2  C   UNL     1      -9.666   7.576  72.487  1.00  0.00    -0.168 C  
HETATM    3  C   UNL     1     -11.112   7.524  72.987  1.00  0.00    -0.413 C  
ENDROOT
BRANCH   2   4
HETATM    4  N   UNL     1      -9.285   6.340  71.800  1.00  0.00    -0.144 NA 
HETATM    5  H   UNL     1      -9.651   6.328  70.848  1.00  0.00     0.000 HD 
BRANCH   4   6
HETATM    6  C   UNL     1      -7.837   6.093  71.806  1.00  0.00    -0.102 C  
BRANCH   6   7
HETATM    7  C   UNL     1      -7.288   6.222  70.377  1.00  0.00    -0.089 C  
HETATM    8  O   UNL     1      -5.852   6.210  70.405  1.00  0.00    -0.017 OA 
HETATM    9  H   UNL     1      -5.513   6.290  69.521  1.00  0.00     0.000 HD 
BRANCH   7  10
HETATM   10  C   UNL     1      -7.796   5.096  69.471  1.00  0.00    -0.076 C  
BRANCH  10  11
HETATM   11  O   UNL     1      -7.729   5.495  68.091  1.00  0.00    -0.084 OA 
BRANCH  11  12
HETATM   12  C   UNL     1      -8.568   6.537  67.751  1.00  0.00    -0.117 A  
HETATM   13  C   UNL     1      -9.955   6.470  67.944  1.00  0.00    -0.148 A  
HETATM   14  C   UNL     1     -10.776   7.535  67.593  1.00  0.00    -0.266 A  
HETATM   15  C   UNL     1     -10.219   8.694  67.067  1.00  0.00    -0.360 A  
HETATM   16  C   UNL     1      -8.832   8.810  66.899  1.00  0.00    -0.142 A  
HETATM   17  C   UNL     1      -7.981   7.726  67.240  1.00  0.00    -0.118 A  
HETATM   18  C   UNL     1      -6.592   7.901  67.043  1.00  0.00    -0.060 A  
HETATM   19  C   UNL     1      -6.066   9.098  66.541  1.00  0.00    -0.064 A  
HETATM   20  C   UNL     1      -6.918  10.151  66.221  1.00  0.00    -0.109 A  
HETATM   21  C   UNL     1      -8.291  10.004  66.396  1.00  0.00    -0.126 A  
ENDBRANCH  11  12
ENDBRANCH  10  11
ENDBRANCH   7  10
ENDBRANCH   6   7
ENDBRANCH   4   6
ENDBRANCH   2   4
TORSDOF 6
ENDMDL
MODEL      330
REMARK 921   NORMALIZED FREE ENERGY PREDICTED BY IDOCK:   -2.14 KCAL/MOL
REMARK 922        TOTAL FREE ENERGY PREDICTED BY IDOCK:   -3.57 KCAL/MOL
REMARK 923 INTER-LIGAND FREE ENERGY PREDICTED BY IDOCK:   -3.79 KCAL/MOL
REMARK 924 INTRA-LIGAND FREE ENERGY PREDICTED BY IDOCK:    0.22 KCAL/MOL
REMARK 927      BINDING AFFINITY PREDICTED BY RF-SCORE:    0.00 PKD
ROOT
HETATM    1  C   UNL     1      -6.092  12.802  67.643  1.00  0.00    -0.152 C  
HETATM    2  C   UNL     1      -7.154  13.703  68.276  1.00  0.00    -0.110 C  
HETATM    3  C   UNL     1      -7.326  14.968  67.432  1.00  0.00    -0.231 C  
ENDROOT
BRANCH   2   4
HETATM    4  N   UNL     1      -8.400  12.940  68.372  1.00  0.00    -0.247 NA 
HETATM    5  H   UNL     1      -9.020  13.161  67.593  1.00  0.00     0.000 HD 
BRANCH   4   6
HETATM    6  C   UNL     1      -8.190  11.490  68.475  1.00  0.00    -0.148 C  
BRANCH   6   7
HETATM    7  C   UNL     1      -9.456  10.826  69.035  1.00  0.00    -0.166 C  
HETATM    8  O   UNL     1     -10.608  11.620  68.707  1.00  0.00    -0.206 OA 
HETATM    9  H   UNL     1     -11.391  11.210  69.054  1.00  0.00     0.000 HD 
BRANCH   7  10
HETATM   10  C   UNL     1      -9.639   9.405  68.494  1.00  0.00    -0.147 C  
BRANCH  10  11
HETATM   11  O   UNL     1      -8.663   8.520  69.069  1.00  0.00    -0.132 OA 
BRANCH  11  12
HETATM   12  C   UNL     1      -8.783   8.336  70.432  1.00  0.00    -0.139 A  
HETATM   13  C   UNL     1      -7.774   8.715  71.327  1.00  0.00    -0.141 A  
HETATM   14  C   UNL     1      -7.924   8.519  72.695  1.00  0.00    -0.093 A  
HETATM   15  C   UNL     1      -9.097   7.963  73.190  1.00  0.00    -0.322 A  
HETATM   16  C   UNL     1     -10.142   7.610  72.326  1.00  0.00    -0.260 A  
HETATM   17  C   UNL     1     -10.000   7.792  70.925  1.00  0.00    -0.190 A  
HETATM   18  C   UNL     1     -11.088   7.411  70.105  1.00  0.00    -0.265 A  
HETATM   19  C   UNL     1     -12.267   6.885  70.646  1.00  0.00    -0.311 A  
HETATM   20  C   UNL     1     -12.388   6.723  72.023  1.00  0.00    -0.311 A  
HETATM   21  C   UNL     1     -11.330   7.080  72.855  1.00  0.00    -0.219 A  
ENDBRANCH  11  12
ENDBRANCH  10  11
ENDBRANCH   7  10
ENDBRANCH   6   7
ENDBRANCH   4   6
ENDBRANCH   2   4
TORSDOF 6
ENDMDL
MODEL      331
REMARK 921   NORMALIZED FREE ENERGY PREDICTED BY IDOCK:   -2.02 KCAL/MOL
REMARK 922        TOTAL FREE ENERGY PREDICTED BY IDOCK:   -3.41 KCAL/MOL
REMARK 923 INTER-LIGAND FREE ENERGY PREDICTED BY IDOCK:   -3.81 KCAL/MOL
REMARK 924 INTRA-LIGAND FREE ENERGY PREDICTED BY IDOCK:    0.40 KCAL/MOL
REMARK 927      BINDING AFFINITY PREDICTED BY RF-SCORE:    0.00 PKD
ROOT
HETATM    1  C   UNL     1      -5.799  17.576  65.696  1.00  0.00     0.124 C  
HETATM    2  C   UNL     1      -5.144  16.964  66.934  1.00  0.00    -0.114 C  
HETATM    3  C   UNL     1      -5.185  17.967  68.089  1.00  0.00    -0.155 C  
ENDROOT
BRANCH   2   4
HETATM    4  N   UNL     1      -5.859  15.729  67.264  1.00  0.00    -0.332 NA 
HETATM    5  H   UNL     1      -5.725  15.028  66.535  1.00  0.00     0.000 HD 
BRANCH   4   6
HETATM    6  C   UNL     1      -5.505  15.185  68.582  1.00  0.00    -0.092 C  
BRANCH   6   7
HETATM    7  C   UNL     1      -6.757  15.138  69.471  1.00  0.00    -0.171 C  
HETATM    8  O   UNL     1      -7.088  16.463  69.916  1.00  0.00     0.005 OA 
HETATM    9  H   UNL     1      -7.862  16.434  70.466  1.00  0.00     0.000 HD 
BRANCH   7  10
HETATM   10  C   UNL     1      -7.953  14.527  68.734  1.00  0.00    -0.142 C  
BRANCH  10  11
HETATM   11  O   UNL     1      -9.148  15.277  69.011  1.00  0.00    -0.197 OA 
BRANCH  11  12
HETATM   12  C   UNL     1      -9.719  15.879  67.908  1.00  0.00    -0.216 A  
HETATM   13  C   UNL     1      -9.908  17.266  67.831  1.00  0.00    -0.283 A  
HETATM   14  C   UNL     1     -10.484  17.846  66.708  1.00  0.00    -0.315 A  
HETATM   15  C   UNL     1     -10.857  17.049  65.632  1.00  0.00    -0.063 A  
HETATM   16  C   UNL     1     -10.645  15.664  65.660  1.00  0.00    -0.393 A  
HETATM   17  C   UNL     1     -10.070  15.055  66.805  1.00  0.00    -0.257 A  
HETATM   18  C   UNL     1      -9.886  13.653  66.775  1.00  0.00    -0.271 A  
HETATM   19  C   UNL     1     -10.245  12.889  65.657  1.00  0.00    -0.295 A  
HETATM   20  C   UNL     1     -10.800  13.508  64.541  1.00  0.00    -0.422 A  
HETATM   21  C   UNL     1     -11.001  14.885  64.547  1.00  0.00    -0.216 A  
ENDBRANCH  11  12
ENDBRANCH  10  11
ENDBRANCH   7  10
ENDBRANCH   6   7
ENDBRANCH   4   6
ENDBRANCH   2   4
TORSDOF 6
ENDMDL
MODEL      332
REMARK 921   NORMALIZED FREE ENERGY PREDICTED BY IDOCK:   -1.96 KCAL/MOL
REMARK 922        TOTAL FREE ENERGY PREDICTED BY IDOCK:   -3.32 KCAL/MOL
REMARK 923 INTER-LIGAND FREE ENERGY PREDICTED BY IDOCK:   -2.62 KCAL/MOL
REMARK 924 INTRA-LIGAND FREE ENERGY PREDICTED BY IDOCK:   -0.71 KCAL/MOL
REMARK 927      BINDING AFFINITY PREDICTED BY RF-SCORE:    0.00 PKD
ROOT
HETATM    1  C   UNL     1      -8.590   9.653  62.998  1.00  0.00    -0.207 C  
HETATM    2  C   UNL     1      -7.826   8.341  63.181  1.00  0.00    -0.148 C  
HETATM    3  C   UNL     1      -6.342   8.562  62.880  1.00  0.00    -0.087 C  
ENDROOT
BRANCH   2   4
HETATM    4  N   UNL     1      -8.037   7.879  64.555  1.00  0.00    -0.216 NA 
HETATM    5  H   UNL     1      -8.586   8.557  65.084  1.00  0.00     0.000 HD 
BRANCH   4   6
HETATM    6  C   UNL     1      -8.642   6.543  64.634  1.00  0.00     0.212 C  
BRANCH   6   7
HETATM    7  C   UNL     1      -8.790   6.132  66.106  1.00  0.00    -0.152 C  
HETATM    8  O   UNL     1      -8.195   4.841  66.313  1.00  0.00    -0.107 OA 
HETATM    9  H   UNL     1      -8.287   4.587  67.224  1.00  0.00     0.000 HD 
BRANCH   7  10
HETATM   10  C   UNL     1      -8.145   7.154  67.048  1.00  0.00    -0.117 C  
BRANCH  10  11
HETATM   11  O   UNL     1      -9.116   8.122  67.479  1.00  0.00    -0.136 OA 
BRANCH  11  12
HETATM   12  C   UNL     1      -8.649   9.419  67.542  1.00  0.00    -0.122 A  
HETATM   13  C   UNL     1      -7.281   9.716  67.605  1.00  0.00    -0.089 A  
HETATM   14  C   UNL     1      -6.839  11.032  67.666  1.00  0.00    -0.081 A  
HETATM   15  C   UNL     1      -7.758  12.073  67.639  1.00  0.00    -0.144 A  
HETATM   16  C   UNL     1      -9.131  11.813  67.536  1.00  0.00    -0.175 A  
HETATM   17  C   UNL     1      -9.600  10.474  67.485  1.00  0.00    -0.181 A  
HETATM   18  C   UNL     1     -10.997  10.275  67.386  1.00  0.00    -0.317 A  
HETATM   19  C   UNL     1     -11.890  11.353  67.328  1.00  0.00     0.032 A  
HETATM   20  C   UNL     1     -11.408  12.658  67.370  1.00  0.00    -0.367 A  
HETATM   21  C   UNL     1     -10.039  12.883  67.478  1.00  0.00    -0.214 A  
ENDBRANCH  11  12
ENDBRANCH  10  11
ENDBRANCH   7  10
ENDBRANCH   6   7
ENDBRANCH   4   6
ENDBRANCH   2   4
TORSDOF 6
ENDMDL
MODEL      333
REMARK 921   NORMALIZED FREE ENERGY PREDICTED BY IDOCK:   -1.92 KCAL/MOL
REMARK 922        TOTAL FREE ENERGY PREDICTED BY IDOCK:   -3.28 KCAL/MOL
REMARK 923 INTER-LIGAND FREE ENERGY PREDICTED BY IDOCK:   -2.72 KCAL/MOL
REMARK 924 INTRA-LIGAND FREE ENERGY PREDICTED BY IDOCK:   -0.55 KCAL/MOL
REMARK 927      BINDING AFFINITY PREDICTED BY RF-SCORE:    0.00 PKD
ROOT
HETATM    1  C   UNL     1     -10.160   4.357  65.824  1.00  0.00    -0.262 C  
HETATM    2  C   UNL     1      -8.912   5.209  65.591  1.00  0.00    -0.154 C  
HETATM    3  C   UNL     1      -8.418   5.019  64.155  1.00  0.00    -0.136 C  
ENDROOT
BRANCH   2   4
HETATM    4  N   UNL     1      -9.256   6.606  65.866  1.00  0.00    -0.363 NA 
HETATM    5  H   UNL     1      -9.708   6.694  66.776  1.00  0.00     0.000 HD 
BRANCH   4   6
HETATM    6  C   UNL     1      -8.110   7.520  65.761  1.00  0.00    -0.127 C  
BRANCH   6   7
HETATM    7  C   UNL     1      -7.140   7.263  66.923  1.00  0.00    -0.086 C  
HETATM    8  O   UNL     1      -5.827   7.729  66.574  1.00  0.00    -0.038 OA 
HETATM    9  H   UNL     1      -5.227   7.570  67.292  1.00  0.00     0.000 HD 
BRANCH   7  10
HETATM   10  C   UNL     1      -7.604   7.948  68.213  1.00  0.00    -0.116 C  
BRANCH  10  11
HETATM   11  O   UNL     1      -8.869   7.413  68.638  1.00  0.00    -0.128 OA 
BRANCH  11  12
HETATM   12  C   UNL     1      -9.007   7.276  70.004  1.00  0.00    -0.142 A  
HETATM   13  C   UNL     1      -9.724   8.200  70.777  1.00  0.00    -0.189 A  
HETATM   14  C   UNL     1      -9.848   8.037  72.151  1.00  0.00    -0.286 A  
HETATM   15  C   UNL     1      -9.277   6.932  72.771  1.00  0.00    -0.152 A  
HETATM   16  C   UNL     1      -8.588   5.968  72.023  1.00  0.00    -0.136 A  
HETATM   17  C   UNL     1      -8.442   6.127  70.620  1.00  0.00    -0.134 A  
HETATM   18  C   UNL     1      -7.731   5.123  69.921  1.00  0.00    -0.068 A  
HETATM   19  C   UNL     1      -7.199   4.007  70.578  1.00  0.00    -0.041 A  
HETATM   20  C   UNL     1      -7.362   3.866  71.953  1.00  0.00    -0.059 A  
HETATM   21  C   UNL     1      -8.048   4.844  72.668  1.00  0.00    -0.104 A  
ENDBRANCH  11  12
ENDBRANCH  10  11
ENDBRANCH   7  10
ENDBRANCH   6   7
ENDBRANCH   4   6
ENDBRANCH   2   4
TORSDOF 6
ENDMDL
MODEL      334
REMARK 921   NORMALIZED FREE ENERGY PREDICTED BY IDOCK:   -1.83 KCAL/MOL
REMARK 922        TOTAL FREE ENERGY PREDICTED BY IDOCK:   -3.15 KCAL/MOL
REMARK 923 INTER-LIGAND FREE ENERGY PREDICTED BY IDOCK:   -2.60 KCAL/MOL
REMARK 924 INTRA-LIGAND FREE ENERGY PREDICTED BY IDOCK:   -0.56 KCAL/MOL
REMARK 927      BINDING AFFINITY PREDICTED BY RF-SCORE:    0.00 PKD
ROOT
HETATM    1  C   UNL     1      -6.750  12.702  68.927  1.00  0.00    -0.098 C  
HETATM    2  C   UNL     1      -8.064  13.484  68.919  1.00  0.00     0.121 C  
HETATM    3  C   UNL     1      -7.929  14.711  68.014  1.00  0.00    -0.137 C  
ENDROOT
BRANCH   2   4
HETATM    4  N   UNL     1      -9.126  12.585  68.459  1.00  0.00    -0.371 NA 
HETATM    5  H   UNL     1      -9.189  12.592  67.441  1.00  0.00     0.000 HD 
BRANCH   4   6
HETATM    6  C   UNL     1      -8.987  11.213  68.965  1.00  0.00    -0.015 C  
BRANCH   6   7
HETATM    7  C   UNL     1      -9.489  10.222  67.905  1.00  0.00    -0.141 C  
HETATM    8  O   UNL     1     -10.018   9.050  68.545  1.00  0.00    -0.165 OA 
HETATM    9  H   UNL     1     -10.329   8.437  67.890  1.00  0.00     0.000 HD 
BRANCH   7  10
HETATM   10  C   UNL     1     -10.562  10.847  67.006  1.00  0.00    -0.257 C  
BRANCH  10  11
HETATM   11  O   UNL     1      -9.964  11.774  66.084  1.00  0.00    -0.214 OA 
BRANCH  11  12
HETATM   12  C   UNL     1     -10.793  12.179  65.056  1.00  0.00    -0.300 A  
HETATM   13  C   UNL     1     -11.490  11.264  64.256  1.00  0.00    -0.021 A  
HETATM   14  C   UNL     1     -12.318  11.700  63.229  1.00  0.00    -0.274 A  
HETATM   15  C   UNL     1     -12.482  13.061  63.003  1.00  0.00     0.071 A  
HETATM   16  C   UNL     1     -11.832  14.004  63.811  1.00  0.00    -0.160 A  
HETATM   17  C   UNL     1     -10.972  13.575  64.856  1.00  0.00    -0.359 A  
HETATM   18  C   UNL     1     -10.340  14.574  65.633  1.00  0.00    -0.367 A  
HETATM   19  C   UNL     1     -10.558  15.936  65.394  1.00  0.00    -0.439 A  
HETATM   20  C   UNL     1     -11.411  16.336  64.371  1.00  0.00    -0.114 A  
HETATM   21  C   UNL     1     -12.039  15.374  63.583  1.00  0.00     0.643 A  
ENDBRANCH  11  12
ENDBRANCH  10  11
ENDBRANCH   7  10
ENDBRANCH   6   7
ENDBRANCH   4   6
ENDBRANCH   2   4
TORSDOF 6
ENDMDL
MODEL      335
REMARK 921   NORMALIZED FREE ENERGY PREDICTED BY IDOCK:   -1.83 KCAL/MOL
REMARK 922        TOTAL FREE ENERGY PREDICTED BY IDOCK:   -3.15 KCAL/MOL
REMARK 923 INTER-LIGAND FREE ENERGY PREDICTED BY IDOCK:   -4.24 KCAL/MOL
REMARK 924 INTRA-LIGAND FREE ENERGY PREDICTED BY IDOCK:    1.09 KCAL/MOL
REMARK 927      BINDING AFFINITY PREDICTED BY RF-SCORE:    0.00 PKD
ROOT
HETATM    1  C   UNL     1      -7.043   8.389  71.842  1.00  0.00    -0.103 C  
HETATM    2  C   UNL     1      -7.756   8.932  70.604  1.00  0.00    -0.107 C  
HETATM    3  C   UNL     1      -7.232   8.222  69.353  1.00  0.00    -0.059 C  
ENDROOT
BRANCH   2   4
HETATM    4  N   UNL     1      -9.196   8.727  70.780  1.00  0.00    -0.180 NA 
HETATM    5  H   UNL     1      -9.394   8.322  71.695  1.00  0.00     0.000 HD 
BRANCH   4   6
HETATM    6  C   UNL     1      -9.989   9.945  70.566  1.00  0.00    -0.098 C  
BRANCH   6   7
HETATM    7  C   UNL     1      -9.764  10.460  69.136  1.00  0.00    -0.220 C  
HETATM    8  O   UNL     1      -9.299   9.388  68.301  1.00  0.00    -0.134 OA 
HETATM    9  H   UNL     1      -9.160   9.706  67.417  1.00  0.00     0.000 HD 
BRANCH   7  10
HETATM   10  C   UNL     1     -11.042  11.060  68.542  1.00  0.00    -0.243 C  
BRANCH  10  11
HETATM   11  O   UNL     1     -11.145  12.454  68.880  1.00  0.00    -0.241 OA 
BRANCH  11  12
HETATM   12  C   UNL     1     -11.163  13.310  67.797  1.00  0.00    -0.280 A  
HETATM   13  C   UNL     1     -12.262  13.396  66.933  1.00  0.00    -0.343 A  
HETATM   14  C   UNL     1     -12.253  14.267  65.851  1.00  0.00    -0.422 A  
HETATM   15  C   UNL     1     -11.152  15.087  65.632  1.00  0.00    -0.349 A  
HETATM   16  C   UNL     1     -10.053  15.055  66.500  1.00  0.00    -0.286 A  
HETATM   17  C   UNL     1     -10.041  14.161  67.603  1.00  0.00    -0.236 A  
HETATM   18  C   UNL     1      -8.901  14.172  68.439  1.00  0.00    -0.187 A  
HETATM   19  C   UNL     1      -7.825  15.037  68.204  1.00  0.00    -0.121 A  
HETATM   20  C   UNL     1      -7.861  15.912  67.122  1.00  0.00    -0.249 A  
HETATM   21  C   UNL     1      -8.966  15.916  66.276  1.00  0.00    -0.381 A  
ENDBRANCH  11  12
ENDBRANCH  10  11
ENDBRANCH   7  10
ENDBRANCH   6   7
ENDBRANCH   4   6
ENDBRANCH   2   4
TORSDOF 6
ENDMDL
MODEL      336
REMARK 921   NORMALIZED FREE ENERGY PREDICTED BY IDOCK:   -1.60 KCAL/MOL
REMARK 922        TOTAL FREE ENERGY PREDICTED BY IDOCK:   -2.84 KCAL/MOL
REMARK 923 INTER-LIGAND FREE ENERGY PREDICTED BY IDOCK:   -2.73 KCAL/MOL
REMARK 924 INTRA-LIGAND FREE ENERGY PREDICTED BY IDOCK:   -0.11 KCAL/MOL
REMARK 927      BINDING AFFINITY PREDICTED BY RF-SCORE:    0.00 PKD
ROOT
HETATM    1  C   UNL     1      -9.250   8.834  71.632  1.00  0.00    -0.333 C  
HETATM    2  C   UNL     1      -9.117   7.747  72.699  1.00  0.00    -0.173 C  
HETATM    3  C   UNL     1     -10.501   7.193  73.047  1.00  0.00    -0.331 C  
ENDROOT
BRANCH   2   4
HETATM    4  N   UNL     1      -8.230   6.704  72.180  1.00  0.00    -0.106 NA 
HETATM    5  H   UNL     1      -8.462   6.482  71.212  1.00  0.00     0.000 HD 
BRANCH   4   6
HETATM    6  C   UNL     1      -6.804   7.032  72.313  1.00  0.00    -0.061 C  
BRANCH   6   7
HETATM    7  C   UNL     1      -6.449   8.178  71.355  1.00  0.00    -0.042 C  
HETATM    8  O   UNL     1      -5.419   8.995  71.934  1.00  0.00    -0.048 OA 
HETATM    9  H   UNL     1      -5.200   9.704  71.342  1.00  0.00     0.000 HD 
BRANCH   7  10
HETATM   10  C   UNL     1      -5.987   7.656  69.991  1.00  0.00    -0.023 C  
BRANCH  10  11
HETATM   11  O   UNL     1      -6.412   8.544  68.943  1.00  0.00    -0.047 OA 
BRANCH  11  12
HETATM   12  C   UNL     1      -7.738   8.415  68.581  1.00  0.00    -0.107 A  
HETATM   13  C   UNL     1      -8.325   7.166  68.336  1.00  0.00    -0.125 A  
HETATM   14  C   UNL     1      -9.663   7.066  67.973  1.00  0.00    -0.140 A  
HETATM   15  C   UNL     1     -10.441   8.213  67.875  1.00  0.00    -0.259 A  
HETATM   16  C   UNL     1      -9.896   9.474  68.152  1.00  0.00    -0.177 A  
HETATM   17  C   UNL     1      -8.528   9.594  68.511  1.00  0.00    -0.118 A  
HETATM   18  C   UNL     1      -8.035  10.894  68.774  1.00  0.00    -0.139 A  
HETATM   19  C   UNL     1      -8.860  12.022  68.696  1.00  0.00    -0.024 A  
HETATM   20  C   UNL     1     -10.201  11.881  68.351  1.00  0.00    -0.205 A  
HETATM   21  C   UNL     1     -10.711  10.615  68.077  1.00  0.00    -0.275 A  
ENDBRANCH  11  12
ENDBRANCH  10  11
ENDBRANCH   7  10
ENDBRANCH   6   7
ENDBRANCH   4   6
ENDBRANCH   2   4
TORSDOF 6
ENDMDL
MODEL      337
REMARK 921   NORMALIZED FREE ENERGY PREDICTED BY IDOCK:   -1.58 KCAL/MOL
REMARK 922        TOTAL FREE ENERGY PREDICTED BY IDOCK:   -2.81 KCAL/MOL
REMARK 923 INTER-LIGAND FREE ENERGY PREDICTED BY IDOCK:   -4.15 KCAL/MOL
REMARK 924 INTRA-LIGAND FREE ENERGY PREDICTED BY IDOCK:    1.33 KCAL/MOL
REMARK 927      BINDING AFFINITY PREDICTED BY RF-SCORE:    0.00 PKD
ROOT
HETATM    1  C   UNL     1      -6.425  18.785  68.555  1.00  0.00    -0.240 C  
HETATM    2  C   UNL     1      -6.148  17.651  67.568  1.00  0.00    -0.153 C  
HETATM    3  C   UNL     1      -5.297  18.173  66.408  1.00  0.00    -0.192 C  
ENDROOT
BRANCH   2   4
HETATM    4  N   UNL     1      -5.472  16.572  68.293  1.00  0.00    -0.105 NA 
HETATM    5  H   UNL     1      -5.608  16.671  69.298  1.00  0.00     0.000 HD 
BRANCH   4   6
HETATM    6  C   UNL     1      -5.868  15.230  67.842  1.00  0.00    -0.146 C  
BRANCH   6   7
HETATM    7  C   UNL     1      -6.788  14.588  68.891  1.00  0.00    -0.099 C  
HETATM    8  O   UNL     1      -6.920  15.461  70.023  1.00  0.00    -0.133 OA 
HETATM    9  H   UNL     1      -7.489  15.064  70.672  1.00  0.00     0.000 HD 
BRANCH   7  10
HETATM   10  C   UNL     1      -8.174  14.275  68.316  1.00  0.00    -0.148 C  
BRANCH  10  11
HETATM   11  O   UNL     1      -8.187  12.965  67.726  1.00  0.00    -0.147 OA 
BRANCH  11  12
HETATM   12  C   UNL     1      -8.957  12.854  66.585  1.00  0.00    -0.136 A  
HETATM   13  C   UNL     1      -9.091  11.644  65.891  1.00  0.00    -0.155 A  
HETATM   14  C   UNL     1      -9.874  11.562  64.746  1.00  0.00    -0.286 A  
HETATM   15  C   UNL     1     -10.557  12.684  64.292  1.00  0.00    -0.408 A  
HETATM   16  C   UNL     1     -10.477  13.899  64.985  1.00  0.00    -0.428 A  
HETATM   17  C   UNL     1      -9.671  14.003  66.149  1.00  0.00    -0.300 A  
HETATM   18  C   UNL     1      -9.627  15.257  66.802  1.00  0.00    -0.257 A  
HETATM   19  C   UNL     1     -10.357  16.356  66.331  1.00  0.00    -0.319 A  
HETATM   20  C   UNL     1     -11.147  16.230  65.193  1.00  0.00    -0.219 A  
HETATM   21  C   UNL     1     -11.202  15.010  64.524  1.00  0.00    -0.276 A  
ENDBRANCH  11  12
ENDBRANCH  10  11
ENDBRANCH   7  10
ENDBRANCH   6   7
ENDBRANCH   4   6
ENDBRANCH   2   4
TORSDOF 6
ENDMDL
MODEL      338
REMARK 921   NORMALIZED FREE ENERGY PREDICTED BY IDOCK:   -1.54 KCAL/MOL
REMARK 922        TOTAL FREE ENERGY PREDICTED BY IDOCK:   -2.76 KCAL/MOL
REMARK 923 INTER-LIGAND FREE ENERGY PREDICTED BY IDOCK:   -2.59 KCAL/MOL
REMARK 924 INTRA-LIGAND FREE ENERGY PREDICTED BY IDOCK:   -0.17 KCAL/MOL
REMARK 927      BINDING AFFINITY PREDICTED BY RF-SCORE:    0.00 PKD
ROOT
HETATM    1  C   UNL     1     -14.228  16.408  73.416  1.00  0.00     1.094 C  
HETATM    2  C   UNL     1     -12.730  16.700  73.330  1.00  0.00     0.016 C  
HETATM    3  C   UNL     1     -12.002  16.007  74.485  1.00  0.00    -0.185 C  
ENDROOT
BRANCH   2   4
HETATM    4  N   UNL     1     -12.249  16.232  72.028  1.00  0.00    -0.597 NA 
HETATM    5  H   UNL     1     -11.303  16.568  71.851  1.00  0.00     0.000 HD 
BRANCH   4   6
HETATM    6  C   UNL     1     -12.324  14.774  71.869  1.00  0.00    -0.345 C  
BRANCH   6   7
HETATM    7  C   UNL     1     -11.651  14.366  70.550  1.00  0.00    -0.209 C  
HETATM    8  O   UNL     1     -12.387  13.295  69.939  1.00  0.00    -0.259 OA 
HETATM    9  H   UNL     1     -11.970  13.042  69.123  1.00  0.00     0.000 HD 
BRANCH   7  10
HETATM   10  C   UNL     1     -11.550  15.545  69.576  1.00  0.00    -0.350 C  
BRANCH  10  11
HETATM   11  O   UNL     1     -11.302  15.072  68.241  1.00  0.00    -0.290 OA 
BRANCH  11  12
HETATM   12  C   UNL     1     -10.497  15.895  67.479  1.00  0.00    -0.298 A  
HETATM   13  C   UNL     1     -11.025  16.786  66.535  1.00  0.00     0.142 A  
HETATM   14  C   UNL     1     -10.191  17.604  65.782  1.00  0.00    -0.160 A  
HETATM   15  C   UNL     1      -8.817  17.560  65.980  1.00  0.00    -0.066 A  
HETATM   16  C   UNL     1      -8.259  16.710  66.944  1.00  0.00    -0.247 A  
HETATM   17  C   UNL     1      -9.096  15.859  67.712  1.00  0.00    -0.196 A  
HETATM   18  C   UNL     1      -8.473  15.019  68.665  1.00  0.00    -0.168 A  
HETATM   19  C   UNL     1      -7.086  15.029  68.858  1.00  0.00    -0.119 A  
HETATM   20  C   UNL     1      -6.285  15.878  68.100  1.00  0.00    -0.128 A  
HETATM   21  C   UNL     1      -6.869  16.708  67.147  1.00  0.00    -0.223 A  
ENDBRANCH  11  12
ENDBRANCH  10  11
ENDBRANCH   7  10
ENDBRANCH   6   7
ENDBRANCH   4   6
ENDBRANCH   2   4
TORSDOF 6
ENDMDL
MODEL      339
REMARK 921   NORMALIZED FREE ENERGY PREDICTED BY IDOCK:   -1.52 KCAL/MOL
REMARK 922        TOTAL FREE ENERGY PREDICTED BY IDOCK:   -2.73 KCAL/MOL
REMARK 923 INTER-LIGAND FREE ENERGY PREDICTED BY IDOCK:   -2.91 KCAL/MOL
REMARK 924 INTRA-LIGAND FREE ENERGY PREDICTED BY IDOCK:    0.18 KCAL/MOL
REMARK 927      BINDING AFFINITY PREDICTED BY RF-SCORE:    0.00 PKD
ROOT
HETATM    1  C   UNL     1      -6.086  12.809  67.645  1.00  0.00    -0.152 C  
HETATM    2  C   UNL     1      -7.199  13.602  68.330  1.00  0.00    -0.111 C  
HETATM    3  C   UNL     1      -7.444  14.908  67.570  1.00  0.00    -0.224 C  
ENDROOT
BRANCH   2   4
HETATM    4  N   UNL     1      -8.399  12.764  68.368  1.00  0.00    -0.251 NA 
HETATM    5  H   UNL     1      -9.051  13.031  67.630  1.00  0.00     0.000 HD 
BRANCH   4   6
HETATM    6  C   UNL     1      -8.107  11.326  68.311  1.00  0.00    -0.137 C  
BRANCH   6   7
HETATM    7  C   UNL     1      -9.383  10.557  67.935  1.00  0.00    -0.143 C  
HETATM    8  O   UNL     1     -10.257  11.408  67.176  1.00  0.00    -0.195 OA 
HETATM    9  H   UNL     1     -11.046  10.933  66.944  1.00  0.00     0.000 HD 
BRANCH   7  10
HETATM   10  C   UNL     1      -9.067   9.293  67.129  1.00  0.00    -0.130 C  
BRANCH  10  11
HETATM   11  O   UNL     1      -8.462   8.299  67.974  1.00  0.00    -0.130 OA 
BRANCH  11  12
HETATM   12  C   UNL     1      -8.934   7.016  67.782  1.00  0.00    -0.121 A  
HETATM   13  C   UNL     1      -9.655   6.332  68.770  1.00  0.00    -0.128 A  
HETATM   14  C   UNL     1     -10.119   5.041  68.550  1.00  0.00    -0.184 A  
HETATM   15  C   UNL     1      -9.890   4.423  67.327  1.00  0.00    -0.207 A  
HETATM   16  C   UNL     1      -9.207   5.093  66.303  1.00  0.00    -0.147 A  
HETATM   17  C   UNL     1      -8.715   6.407  66.517  1.00  0.00    -0.133 A  
HETATM   18  C   UNL     1      -8.030   7.029  65.447  1.00  0.00    -0.129 A  
HETATM   19  C   UNL     1      -7.848   6.384  64.218  1.00  0.00    -0.114 A  
HETATM   20  C   UNL     1      -8.345   5.098  64.026  1.00  0.00    -0.132 A  
HETATM   21  C   UNL     1      -9.016   4.458  65.065  1.00  0.00    -0.145 A  
ENDBRANCH  11  12
ENDBRANCH  10  11
ENDBRANCH   7  10
ENDBRANCH   6   7
ENDBRANCH   4   6
ENDBRANCH   2   4
TORSDOF 6
ENDMDL
MODEL      340
REMARK 921   NORMALIZED FREE ENERGY PREDICTED BY IDOCK:   -1.51 KCAL/MOL
REMARK 922        TOTAL FREE ENERGY PREDICTED BY IDOCK:   -2.72 KCAL/MOL
REMARK 923 INTER-LIGAND FREE ENERGY PREDICTED BY IDOCK:   -2.81 KCAL/MOL
REMARK 924 INTRA-LIGAND FREE ENERGY PREDICTED BY IDOCK:    0.09 KCAL/MOL
REMARK 927      BINDING AFFINITY PREDICTED BY RF-SCORE:    0.00 PKD
ROOT
HETATM    1  C   UNL     1      -8.724   9.406  65.162  1.00  0.00    -0.210 C  
HETATM    2  C   UNL     1      -8.741   9.547  66.684  1.00  0.00    -0.134 C  
HETATM    3  C   UNL     1     -10.163   9.857  67.158  1.00  0.00    -0.285 C  
ENDROOT
BRANCH   2   4
HETATM    4  N   UNL     1      -8.236   8.301  67.263  1.00  0.00    -0.119 NA 
HETATM    5  H   UNL     1      -8.426   8.264  68.265  1.00  0.00     0.000 HD 
BRANCH   4   6
HETATM    6  C   UNL     1      -8.745   7.098  66.591  1.00  0.00    -0.128 C  
BRANCH   6   7
HETATM    7  C   UNL     1     -10.194   6.839  67.030  1.00  0.00    -0.237 C  
HETATM    8  O   UNL     1     -10.858   6.020  66.055  1.00  0.00    -0.454 OA 
HETATM    9  H   UNL     1     -11.755   5.860  66.326  1.00  0.00     0.000 HD 
BRANCH   7  10
HETATM   10  C   UNL     1     -10.259   6.162  68.403  1.00  0.00    -0.175 C  
BRANCH  10  11
HETATM   11  O   UNL     1      -9.337   6.785  69.313  1.00  0.00    -0.144 OA 
BRANCH  11  12
HETATM   12  C   UNL     1      -8.403   5.930  69.862  1.00  0.00    -0.121 A  
HETATM   13  C   UNL     1      -7.466   5.246  69.075  1.00  0.00    -0.070 A  
HETATM   14  C   UNL     1      -6.536   4.392  69.655  1.00  0.00    -0.032 A  
HETATM   15  C   UNL     1      -6.512   4.229  71.035  1.00  0.00    -0.029 A  
HETATM   16  C   UNL     1      -7.407   4.929  71.854  1.00  0.00    -0.080 A  
HETATM   17  C   UNL     1      -8.372   5.795  71.276  1.00  0.00    -0.127 A  
HETATM   18  C   UNL     1      -9.252   6.470  72.155  1.00  0.00    -0.139 A  
HETATM   19  C   UNL     1      -9.174   6.304  73.543  1.00  0.00    -0.137 A  
HETATM   20  C   UNL     1      -8.214   5.457  74.089  1.00  0.00    -0.109 A  
HETATM   21  C   UNL     1      -7.341   4.772  73.248  1.00  0.00    -0.082 A  
ENDBRANCH  11  12
ENDBRANCH  10  11
ENDBRANCH   7  10
ENDBRANCH   6   7
ENDBRANCH   4   6
ENDBRANCH   2   4
TORSDOF 6
ENDMDL
MODEL      341
REMARK 921   NORMALIZED FREE ENERGY PREDICTED BY IDOCK:   -1.50 KCAL/MOL
REMARK 922        TOTAL FREE ENERGY PREDICTED BY IDOCK:   -2.70 KCAL/MOL
REMARK 923 INTER-LIGAND FREE ENERGY PREDICTED BY IDOCK:   -2.38 KCAL/MOL
REMARK 924 INTRA-LIGAND FREE ENERGY PREDICTED BY IDOCK:   -0.33 KCAL/MOL
REMARK 927      BINDING AFFINITY PREDICTED BY RF-SCORE:    0.00 PKD
ROOT
HETATM    1  C   UNL     1      -6.124   7.814  64.759  1.00  0.00    -0.041 C  
HETATM    2  C   UNL     1      -6.369   9.194  65.371  1.00  0.00    -0.064 C  
HETATM    3  C   UNL     1      -7.868   9.501  65.368  1.00  0.00    -0.109 C  
ENDROOT
BRANCH   2   4
HETATM    4  N   UNL     1      -5.818   9.194  66.728  1.00  0.00    -0.051 NA 
HETATM    5  H   UNL     1      -4.805   9.303  66.707  1.00  0.00     0.000 HD 
BRANCH   4   6
HETATM    6  C   UNL     1      -6.433  10.199  67.606  1.00  0.00    -0.063 C  
BRANCH   6   7
HETATM    7  C   UNL     1      -5.674  10.247  68.940  1.00  0.00    -0.041 C  
HETATM    8  O   UNL     1      -5.741  11.573  69.490  1.00  0.00    -0.058 OA 
HETATM    9  H   UNL     1      -5.272  11.603  70.315  1.00  0.00     0.000 HD 
BRANCH   7  10
HETATM   10  C   UNL     1      -6.237   9.241  69.950  1.00  0.00    -0.039 C  
BRANCH  10  11
HETATM   11  O   UNL     1      -7.644   9.047  69.733  1.00  0.00    -0.067 OA 
BRANCH  11  12
HETATM   12  C   UNL     1      -8.054   7.728  69.750  1.00  0.00    -0.117 A  
HETATM   13  C   UNL     1      -7.640   6.833  70.746  1.00  0.00    -0.092 A  
HETATM   14  C   UNL     1      -8.069   5.511  70.740  1.00  0.00    -0.113 A  
HETATM   15  C   UNL     1      -8.939   5.071  69.750  1.00  0.00    -0.141 A  
HETATM   16  C   UNL     1      -9.404   5.950  68.763  1.00  0.00    -0.133 A  
HETATM   17  C   UNL     1      -8.965   7.300  68.748  1.00  0.00    -0.129 A  
HETATM   18  C   UNL     1      -9.466   8.137  67.723  1.00  0.00    -0.164 A  
HETATM   19  C   UNL     1     -10.368   7.663  66.763  1.00  0.00    -0.343 A  
HETATM   20  C   UNL     1     -10.792   6.338  66.801  1.00  0.00    -0.367 A  
HETATM   21  C   UNL     1     -10.308   5.489  67.792  1.00  0.00    -0.246 A  
ENDBRANCH  11  12
ENDBRANCH  10  11
ENDBRANCH   7  10
ENDBRANCH   6   7
ENDBRANCH   4   6
ENDBRANCH   2   4
TORSDOF 6
ENDMDL
MODEL      342
REMARK 921   NORMALIZED FREE ENERGY PREDICTED BY IDOCK:   -1.43 KCAL/MOL
REMARK 922        TOTAL FREE ENERGY PREDICTED BY IDOCK:   -2.61 KCAL/MOL
REMARK 923 INTER-LIGAND FREE ENERGY PREDICTED BY IDOCK:   -2.44 KCAL/MOL
REMARK 924 INTRA-LIGAND FREE ENERGY PREDICTED BY IDOCK:   -0.17 KCAL/MOL
REMARK 927      BINDING AFFINITY PREDICTED BY RF-SCORE:    0.00 PKD
ROOT
HETATM    1  C   UNL     1     -13.748  14.690  71.562  1.00  0.00    -0.495 C  
HETATM    2  C   UNL     1     -12.635  13.683  71.854  1.00  0.00    -0.153 C  
HETATM    3  C   UNL     1     -13.241  12.388  72.401  1.00  0.00    -0.212 C  
ENDROOT
BRANCH   2   4
HETATM    4  N   UNL     1     -11.893  13.452  70.613  1.00  0.00    -0.528 NA 
HETATM    5  H   UNL     1     -10.895  13.356  70.801  1.00  0.00     0.000 HD 
BRANCH   4   6
HETATM    6  C   UNL     1     -12.391  12.305  69.841  1.00  0.00    -0.052 C  
BRANCH   6   7
HETATM    7  C   UNL     1     -11.206  11.546  69.226  1.00  0.00    -0.272 C  
HETATM    8  O   UNL     1     -10.391  12.450  68.465  1.00  0.00    -0.228 OA 
HETATM    9  H   UNL     1      -9.658  11.981  68.085  1.00  0.00     0.000 HD 
BRANCH   7  10
HETATM   10  C   UNL     1     -10.353  10.861  70.300  1.00  0.00     0.691 C  
BRANCH  10  11
HETATM   11  O   UNL     1     -10.690   9.467  70.394  1.00  0.00    -0.239 OA 
BRANCH  11  12
HETATM   12  C   UNL     1      -9.758   8.610  69.844  1.00  0.00    -0.173 A  
HETATM   13  C   UNL     1      -9.932   8.033  68.578  1.00  0.00    -0.206 A  
HETATM   14  C   UNL     1      -8.976   7.175  68.049  1.00  0.00    -0.127 A  
HETATM   15  C   UNL     1      -7.818   6.901  68.767  1.00  0.00    -0.118 A  
HETATM   16  C   UNL     1      -7.594   7.493  70.017  1.00  0.00    -0.088 A  
HETATM   17  C   UNL     1      -8.567   8.361  70.577  1.00  0.00    -0.137 A  
HETATM   18  C   UNL     1      -8.285   8.924  71.845  1.00  0.00    -0.008 A  
HETATM   19  C   UNL     1      -7.091   8.648  72.522  1.00  0.00    -0.012 A  
HETATM   20  C   UNL     1      -6.147   7.800  71.950  1.00  0.00    -0.039 A  
HETATM   21  C   UNL     1      -6.402   7.225  70.708  1.00  0.00    -0.039 A  
ENDBRANCH  11  12
ENDBRANCH  10  11
ENDBRANCH   7  10
ENDBRANCH   6   7
ENDBRANCH   4   6
ENDBRANCH   2   4
TORSDOF 6
ENDMDL
MODEL      343
REMARK 921   NORMALIZED FREE ENERGY PREDICTED BY IDOCK:    6.62 KCAL/MOL
REMARK 922        TOTAL FREE ENERGY PREDICTED BY IDOCK:    8.26 KCAL/MOL
REMARK 923 INTER-LIGAND FREE ENERGY PREDICTED BY IDOCK:    8.40 KCAL/MOL
REMARK 924 INTRA-LIGAND FREE ENERGY PREDICTED BY IDOCK:   -0.14 KCAL/MOL
REMARK 927      BINDING AFFINITY PREDICTED BY RF-SCORE:    0.00 PKD
ROOT
HETATM    1  C   UNL     1     -13.774  17.323  73.327  1.00  0.00     3.524 C  
HETATM    2  C   UNL     1     -12.589  17.150  72.376  1.00  0.00     2.710 C  
HETATM    3  C   UNL     1     -11.282  17.164  73.173  1.00  0.00     1.615 C  
ENDROOT
BRANCH   2   4
HETATM    4  N   UNL     1     -12.767  15.892  71.650  1.00  0.00    -0.494 NA 
HETATM    5  H   UNL     1     -11.939  15.672  71.097  1.00  0.00     0.000 HD 
BRANCH   4   6
HETATM    6  C   UNL     1     -13.129  14.763  72.518  1.00  0.00    -0.402 C  
BRANCH   6   7
HETATM    7  C   UNL     1     -13.454  13.535  71.656  1.00  0.00    -0.308 C  
HETATM    8  O   UNL     1     -14.405  12.701  72.336  1.00  0.00    -0.271 OA 
HETATM    9  H   UNL     1     -14.606  11.941  71.803  1.00  0.00     0.000 HD 
BRANCH   7  10
HETATM   10  C   UNL     1     -14.007  13.935  70.284  1.00  0.00     1.981 C  
BRANCH  10  11
HETATM   11  O   UNL     1     -13.462  13.088  69.258  1.00  0.00     2.415 OA 
BRANCH  11  12
HETATM   12  C   UNL     1     -12.218  13.470  68.796  1.00  0.00    -0.143 A  
HETATM   13  C   UNL     1     -11.716  14.764  68.991  1.00  0.00    -0.343 A  
HETATM   14  C   UNL     1     -10.459  15.120  68.517  1.00  0.00    -0.233 A  
HETATM   15  C   UNL     1      -9.675  14.179  67.861  1.00  0.00    -0.224 A  
HETATM   16  C   UNL     1     -10.130  12.866  67.685  1.00  0.00    -0.221 A  
HETATM   17  C   UNL     1     -11.416  12.489  68.152  1.00  0.00    -0.368 A  
HETATM   18  C   UNL     1     -11.821  11.151  67.940  1.00  0.00    -0.162 A  
HETATM   19  C   UNL     1     -10.987  10.223  67.304  1.00  0.00    -0.277 A  
HETATM   20  C   UNL     1      -9.726  10.611  66.861  1.00  0.00    -0.213 A  
HETATM   21  C   UNL     1      -9.304  11.925  67.048  1.00  0.00    -0.188 A  
ENDBRANCH  11  12
ENDBRANCH  10  11
ENDBRANCH   7  10
ENDBRANCH   6   7
ENDBRANCH   4   6
ENDBRANCH   2   4
TORSDOF 6
ENDMDL
MODEL      344
REMARK 921   NORMALIZED FREE ENERGY PREDICTED BY IDOCK:    9.54 KCAL/MOL
REMARK 922        TOTAL FREE ENERGY PREDICTED BY IDOCK:   12.21 KCAL/MOL
REMARK 923 INTER-LIGAND FREE ENERGY PREDICTED BY IDOCK:   12.59 KCAL/MOL
REMARK 924 INTRA-LIGAND FREE ENERGY PREDICTED BY IDOCK:   -0.37 KCAL/MOL
REMARK 927      BINDING AFFINITY PREDICTED BY RF-SCORE:    0.00 PKD
ROOT
HETATM    1  C   UNL     1     -11.874  12.324  69.382  1.00  0.00    -0.370 C  
HETATM    2  C   UNL     1     -12.068  11.995  70.862  1.00  0.00    -0.100 C  
HETATM    3  C   UNL     1     -12.838  10.680  71.001  1.00  0.00    -0.496 C  
ENDROOT
BRANCH   2   4
HETATM    4  N   UNL     1     -10.747  11.918  71.489  1.00  0.00     4.823 NA 
HETATM    5  H   UNL     1     -10.798  12.179  72.473  1.00  0.00     0.000 HD 
BRANCH   4   6
HETATM    6  C   UNL     1     -10.101  10.607  71.330  1.00  0.00     3.266 C  
BRANCH   6   7
HETATM    7  C   UNL     1      -9.176  10.636  70.104  1.00  0.00     0.880 C  
HETATM    8  O   UNL     1      -8.316  11.784  70.171  1.00  0.00     1.320 OA 
HETATM    9  H   UNL     1      -7.744  11.802  69.413  1.00  0.00     0.000 HD 
BRANCH   7  10
HETATM   10  C   UNL     1      -8.330   9.363  70.002  1.00  0.00    -0.180 C  
BRANCH  10  11
HETATM   11  O   UNL     1      -8.652   8.460  71.073  1.00  0.00    -0.131 OA 
BRANCH  11  12
HETATM   12  C   UNL     1      -8.974   7.179  70.671  1.00  0.00    -0.154 A  
HETATM   13  C   UNL     1      -8.069   6.367  69.974  1.00  0.00    -0.121 A  
HETATM   14  C   UNL     1      -8.420   5.081  69.582  1.00  0.00    -0.092 A  
HETATM   15  C   UNL     1      -9.674   4.578  69.904  1.00  0.00    -0.288 A  
HETATM   16  C   UNL     1     -10.589   5.348  70.635  1.00  0.00    -0.302 A  
HETATM   17  C   UNL     1     -10.250   6.668  71.031  1.00  0.00    -0.214 A  
HETATM   18  C   UNL     1     -11.217   7.397  71.762  1.00  0.00    -0.277 A  
HETATM   19  C   UNL     1     -12.459   6.842  72.095  1.00  0.00    -0.198 A  
HETATM   20  C   UNL     1     -12.767   5.542  71.704  1.00  0.00     1.808 A  
HETATM   21  C   UNL     1     -11.838   4.804  70.975  1.00  0.00     3.411 A  
ENDBRANCH  11  12
ENDBRANCH  10  11
ENDBRANCH   7  10
ENDBRANCH   6   7
ENDBRANCH   4   6
ENDBRANCH   2   4
TORSDOF 6
ENDMDL
