MODEL        1
REMARK 921   NORMALIZED FREE ENERGY PREDICTED BY IDOCK:   -2.78 KCAL/MOL
REMARK 922        TOTAL FREE ENERGY PREDICTED BY IDOCK:   -2.95 KCAL/MOL
REMARK 923 INTER-LIGAND FREE ENERGY PREDICTED BY IDOCK:   -2.95 KCAL/MOL
REMARK 924 INTRA-LIGAND FREE ENERGY PREDICTED BY IDOCK:    0.00 KCAL/MOL
REMARK 927      BINDING AFFINITY PREDICTED BY RF-SCORE:    0.00 PKD
ROOT
HETATM    1  C   UNL     1     -11.707  12.979  63.719  1.00  0.00    -0.547 C  
HETATM    2  C   UNL     1     -12.249  14.096  64.592  1.00  0.00    -0.465 C  
ENDROOT
BRANCH   2   3
HETATM    3  C   UNL     1     -11.248  15.232  64.744  1.00  0.00    -0.396 C  
HETATM    4  O   UNL     1     -11.546  16.264  63.813  1.00  0.00    -1.539 OA 
HETATM    5  H   UNL     1     -10.922  16.973  63.908  1.00  0.00     0.000 HD 
ENDBRANCH   2   3
TORSDOF 1
ENDMDL
MODEL        2
REMARK 921   NORMALIZED FREE ENERGY PREDICTED BY IDOCK:   -2.64 KCAL/MOL
REMARK 922        TOTAL FREE ENERGY PREDICTED BY IDOCK:   -2.80 KCAL/MOL
REMARK 923 INTER-LIGAND FREE ENERGY PREDICTED BY IDOCK:   -2.80 KCAL/MOL
REMARK 924 INTRA-LIGAND FREE ENERGY PREDICTED BY IDOCK:    0.00 KCAL/MOL
REMARK 927      BINDING AFFINITY PREDICTED BY RF-SCORE:    0.00 PKD
ROOT
HETATM    1  C   UNL     1     -14.393  15.090  71.942  1.00  0.00    -0.677 C  
HETATM    2  C   UNL     1     -13.321  14.323  72.697  1.00  0.00    -0.619 C  
ENDROOT
BRANCH   2   3
HETATM    3  C   UNL     1     -12.417  15.251  73.495  1.00  0.00    -0.548 C  
HETATM    4  O   UNL     1     -13.195  16.273  74.105  1.00  0.00    -0.954 OA 
HETATM    5  H   UNL     1     -12.631  16.852  74.603  1.00  0.00     0.000 HD 
ENDBRANCH   2   3
TORSDOF 1
ENDMDL
MODEL        3
REMARK 921   NORMALIZED FREE ENERGY PREDICTED BY IDOCK:   -2.62 KCAL/MOL
REMARK 922        TOTAL FREE ENERGY PREDICTED BY IDOCK:   -2.78 KCAL/MOL
REMARK 923 INTER-LIGAND FREE ENERGY PREDICTED BY IDOCK:   -2.78 KCAL/MOL
REMARK 924 INTRA-LIGAND FREE ENERGY PREDICTED BY IDOCK:    0.00 KCAL/MOL
REMARK 927      BINDING AFFINITY PREDICTED BY RF-SCORE:    0.00 PKD
ROOT
HETATM    1  C   UNL     1     -12.467  15.353  74.086  1.00  0.00    -0.785 C  
HETATM    2  C   UNL     1     -12.955  15.959  72.782  1.00  0.00    -0.575 C  
ENDROOT
BRANCH   2   3
HETATM    3  C   UNL     1     -14.120  15.176  72.195  1.00  0.00    -0.554 C  
HETATM    4  O   UNL     1     -14.270  15.495  70.818  1.00  0.00    -0.863 OA 
HETATM    5  H   UNL     1     -14.997  15.006  70.451  1.00  0.00     0.000 HD 
ENDBRANCH   2   3
TORSDOF 1
ENDMDL
MODEL        4
REMARK 921   NORMALIZED FREE ENERGY PREDICTED BY IDOCK:   -2.62 KCAL/MOL
REMARK 922        TOTAL FREE ENERGY PREDICTED BY IDOCK:   -2.77 KCAL/MOL
REMARK 923 INTER-LIGAND FREE ENERGY PREDICTED BY IDOCK:   -2.77 KCAL/MOL
REMARK 924 INTRA-LIGAND FREE ENERGY PREDICTED BY IDOCK:    0.00 KCAL/MOL
REMARK 927      BINDING AFFINITY PREDICTED BY RF-SCORE:    0.00 PKD
ROOT
HETATM    1  C   UNL     1     -12.057  10.509  70.832  1.00  0.00    -0.487 C  
HETATM    2  C   UNL     1     -13.097  10.459  71.938  1.00  0.00    -0.563 C  
ENDROOT
BRANCH   2   3
HETATM    3  C   UNL     1     -13.658   9.057  72.123  1.00  0.00    -0.469 C  
HETATM    4  O   UNL     1     -14.155   8.908  73.447  1.00  0.00    -1.256 OA 
HETATM    5  H   UNL     1     -14.506   8.034  73.562  1.00  0.00     0.000 HD 
ENDBRANCH   2   3
TORSDOF 1
ENDMDL
MODEL        5
REMARK 921   NORMALIZED FREE ENERGY PREDICTED BY IDOCK:   -2.60 KCAL/MOL
REMARK 922        TOTAL FREE ENERGY PREDICTED BY IDOCK:   -2.76 KCAL/MOL
REMARK 923 INTER-LIGAND FREE ENERGY PREDICTED BY IDOCK:   -2.76 KCAL/MOL
REMARK 924 INTRA-LIGAND FREE ENERGY PREDICTED BY IDOCK:    0.00 KCAL/MOL
REMARK 927      BINDING AFFINITY PREDICTED BY RF-SCORE:    0.00 PKD
ROOT
HETATM    1  C   UNL     1     -12.315  14.037  65.942  1.00  0.00    -0.515 C  
HETATM    2  C   UNL     1     -12.339  12.733  65.163  1.00  0.00    -0.555 C  
ENDROOT
BRANCH   2   3
HETATM    3  C   UNL     1     -12.027  12.949  63.689  1.00  0.00    -0.541 C  
HETATM    4  O   UNL     1     -12.522  14.214  63.272  1.00  0.00    -1.146 OA 
HETATM    5  H   UNL     1     -12.327  14.349  62.353  1.00  0.00     0.000 HD 
ENDBRANCH   2   3
TORSDOF 1
ENDMDL
MODEL        6
REMARK 921   NORMALIZED FREE ENERGY PREDICTED BY IDOCK:   -2.57 KCAL/MOL
REMARK 922        TOTAL FREE ENERGY PREDICTED BY IDOCK:   -2.72 KCAL/MOL
REMARK 923 INTER-LIGAND FREE ENERGY PREDICTED BY IDOCK:   -2.72 KCAL/MOL
REMARK 924 INTRA-LIGAND FREE ENERGY PREDICTED BY IDOCK:    0.00 KCAL/MOL
REMARK 927      BINDING AFFINITY PREDICTED BY RF-SCORE:    0.00 PKD
ROOT
HETATM    1  C   UNL     1     -12.171  12.000  63.640  1.00  0.00    -0.642 C  
HETATM    2  C   UNL     1     -12.459  12.654  64.980  1.00  0.00    -0.556 C  
ENDROOT
BRANCH   2   3
HETATM    3  C   UNL     1     -12.399  14.173  64.892  1.00  0.00    -0.430 C  
HETATM    4  O   UNL     1     -12.492  14.580  63.534  1.00  0.00    -1.089 OA 
HETATM    5  H   UNL     1     -12.455  15.527  63.479  1.00  0.00     0.000 HD 
ENDBRANCH   2   3
TORSDOF 1
ENDMDL
MODEL        7
REMARK 921   NORMALIZED FREE ENERGY PREDICTED BY IDOCK:   -2.41 KCAL/MOL
REMARK 922        TOTAL FREE ENERGY PREDICTED BY IDOCK:   -2.55 KCAL/MOL
REMARK 923 INTER-LIGAND FREE ENERGY PREDICTED BY IDOCK:   -2.55 KCAL/MOL
REMARK 924 INTRA-LIGAND FREE ENERGY PREDICTED BY IDOCK:    0.00 KCAL/MOL
REMARK 927      BINDING AFFINITY PREDICTED BY RF-SCORE:    0.00 PKD
ROOT
HETATM    1  C   UNL     1     -12.122   7.090  71.477  1.00  0.00    -0.392 C  
HETATM    2  C   UNL     1     -12.149   8.417  72.215  1.00  0.00    -0.456 C  
ENDROOT
BRANCH   2   3
HETATM    3  C   UNL     1     -13.521   9.073  72.149  1.00  0.00    -0.459 C  
HETATM    4  O   UNL     1     -14.202   8.891  73.383  1.00  0.00    -1.241 OA 
HETATM    5  H   UNL     1     -15.057   9.300  73.342  1.00  0.00     0.000 HD 
ENDBRANCH   2   3
TORSDOF 1
ENDMDL
MODEL        8
REMARK 921   NORMALIZED FREE ENERGY PREDICTED BY IDOCK:   -2.40 KCAL/MOL
REMARK 922        TOTAL FREE ENERGY PREDICTED BY IDOCK:   -2.54 KCAL/MOL
REMARK 923 INTER-LIGAND FREE ENERGY PREDICTED BY IDOCK:   -2.54 KCAL/MOL
REMARK 924 INTRA-LIGAND FREE ENERGY PREDICTED BY IDOCK:    0.00 KCAL/MOL
REMARK 927      BINDING AFFINITY PREDICTED BY RF-SCORE:    0.00 PKD
ROOT
HETATM    1  C   UNL     1     -10.433  13.898  64.840  1.00  0.00    -0.446 C  
HETATM    2  C   UNL     1     -10.801  12.596  64.151  1.00  0.00    -0.431 C  
ENDROOT
BRANCH   2   3
HETATM    3  C   UNL     1     -12.118  12.709  63.396  1.00  0.00    -0.525 C  
HETATM    4  O   UNL     1     -12.518  14.071  63.326  1.00  0.00    -1.139 OA 
HETATM    5  H   UNL     1     -13.339  14.142  62.855  1.00  0.00     0.000 HD 
ENDBRANCH   2   3
TORSDOF 1
ENDMDL
MODEL        9
REMARK 921   NORMALIZED FREE ENERGY PREDICTED BY IDOCK:   -2.35 KCAL/MOL
REMARK 922        TOTAL FREE ENERGY PREDICTED BY IDOCK:   -2.49 KCAL/MOL
REMARK 923 INTER-LIGAND FREE ENERGY PREDICTED BY IDOCK:   -2.49 KCAL/MOL
REMARK 924 INTRA-LIGAND FREE ENERGY PREDICTED BY IDOCK:    0.00 KCAL/MOL
REMARK 927      BINDING AFFINITY PREDICTED BY RF-SCORE:    0.00 PKD
ROOT
HETATM    1  C   UNL     1     -11.743  15.504  71.858  1.00  0.00    -0.527 C  
HETATM    2  C   UNL     1     -13.135  15.446  71.254  1.00  0.00    -0.564 C  
ENDROOT
BRANCH   2   3
HETATM    3  C   UNL     1     -14.218  15.580  72.314  1.00  0.00    -0.524 C  
HETATM    4  O   UNL     1     -13.662  16.121  73.505  1.00  0.00    -0.875 OA 
HETATM    5  H   UNL     1     -14.338  16.206  74.166  1.00  0.00     0.000 HD 
ENDBRANCH   2   3
TORSDOF 1
ENDMDL
MODEL       10
REMARK 921   NORMALIZED FREE ENERGY PREDICTED BY IDOCK:   -2.32 KCAL/MOL
REMARK 922        TOTAL FREE ENERGY PREDICTED BY IDOCK:   -2.45 KCAL/MOL
REMARK 923 INTER-LIGAND FREE ENERGY PREDICTED BY IDOCK:   -2.45 KCAL/MOL
REMARK 924 INTRA-LIGAND FREE ENERGY PREDICTED BY IDOCK:    0.00 KCAL/MOL
REMARK 927      BINDING AFFINITY PREDICTED BY RF-SCORE:    0.00 PKD
ROOT
HETATM    1  C   UNL     1     -12.779  13.905  65.225  1.00  0.00    -0.485 C  
HETATM    2  C   UNL     1     -12.259  12.523  64.873  1.00  0.00    -0.534 C  
ENDROOT
BRANCH   2   3
HETATM    3  C   UNL     1     -11.848  12.430  63.410  1.00  0.00    -0.484 C  
HETATM    4  O   UNL     1     -12.565  11.380  62.775  1.00  0.00    -0.952 OA 
HETATM    5  H   UNL     1     -12.309  11.321  61.863  1.00  0.00     0.000 HD 
ENDBRANCH   2   3
TORSDOF 1
ENDMDL
MODEL       11
REMARK 921   NORMALIZED FREE ENERGY PREDICTED BY IDOCK:   -2.31 KCAL/MOL
REMARK 922        TOTAL FREE ENERGY PREDICTED BY IDOCK:   -2.45 KCAL/MOL
REMARK 923 INTER-LIGAND FREE ENERGY PREDICTED BY IDOCK:   -2.45 KCAL/MOL
REMARK 924 INTRA-LIGAND FREE ENERGY PREDICTED BY IDOCK:    0.00 KCAL/MOL
REMARK 927      BINDING AFFINITY PREDICTED BY RF-SCORE:    0.00 PKD
ROOT
HETATM    1  C   UNL     1      -9.036  16.107  66.013  1.00  0.00    -0.354 C  
HETATM    2  C   UNL     1     -10.380  15.408  66.115  1.00  0.00    -0.325 C  
ENDROOT
BRANCH   2   3
HETATM    3  C   UNL     1     -11.027  15.224  64.750  1.00  0.00    -0.386 C  
HETATM    4  O   UNL     1     -11.366  16.490  64.203  1.00  0.00    -1.381 OA 
HETATM    5  H   UNL     1     -11.769  16.376  63.351  1.00  0.00     0.000 HD 
ENDBRANCH   2   3
TORSDOF 1
ENDMDL
MODEL       12
REMARK 921   NORMALIZED FREE ENERGY PREDICTED BY IDOCK:   -2.22 KCAL/MOL
REMARK 922        TOTAL FREE ENERGY PREDICTED BY IDOCK:   -2.35 KCAL/MOL
REMARK 923 INTER-LIGAND FREE ENERGY PREDICTED BY IDOCK:   -2.35 KCAL/MOL
REMARK 924 INTRA-LIGAND FREE ENERGY PREDICTED BY IDOCK:    0.00 KCAL/MOL
REMARK 927      BINDING AFFINITY PREDICTED BY RF-SCORE:    0.00 PKD
ROOT
HETATM    1  C   UNL     1     -12.560  15.649  74.017  1.00  0.00    -0.767 C  
HETATM    2  C   UNL     1     -13.464  15.727  72.800  1.00  0.00    -0.659 C  
ENDROOT
BRANCH   2   3
HETATM    3  C   UNL     1     -12.699  15.473  71.509  1.00  0.00    -0.434 C  
HETATM    4  O   UNL     1     -11.454  14.852  71.802  1.00  0.00    -0.486 OA 
HETATM    5  H   UNL     1     -10.977  14.694  70.997  1.00  0.00     0.000 HD 
ENDBRANCH   2   3
TORSDOF 1
ENDMDL
MODEL       13
REMARK 921   NORMALIZED FREE ENERGY PREDICTED BY IDOCK:   -2.10 KCAL/MOL
REMARK 922        TOTAL FREE ENERGY PREDICTED BY IDOCK:   -2.23 KCAL/MOL
REMARK 923 INTER-LIGAND FREE ENERGY PREDICTED BY IDOCK:   -2.23 KCAL/MOL
REMARK 924 INTRA-LIGAND FREE ENERGY PREDICTED BY IDOCK:    0.00 KCAL/MOL
REMARK 927      BINDING AFFINITY PREDICTED BY RF-SCORE:    0.00 PKD
ROOT
HETATM    1  C   UNL     1     -10.254  19.084  67.530  1.00  0.00    -0.472 C  
HETATM    2  C   UNL     1     -10.515  18.890  66.047  1.00  0.00    -0.507 C  
ENDROOT
BRANCH   2   3
HETATM    3  C   UNL     1     -10.396  17.429  65.638  1.00  0.00    -0.149 C  
HETATM    4  O   UNL     1     -11.088  17.213  64.416  1.00  0.00    -1.100 OA 
HETATM    5  H   UNL     1     -11.014  16.302  64.161  1.00  0.00     0.000 HD 
ENDBRANCH   2   3
TORSDOF 1
ENDMDL
MODEL       14
REMARK 921   NORMALIZED FREE ENERGY PREDICTED BY IDOCK:   -2.08 KCAL/MOL
REMARK 922        TOTAL FREE ENERGY PREDICTED BY IDOCK:   -2.20 KCAL/MOL
REMARK 923 INTER-LIGAND FREE ENERGY PREDICTED BY IDOCK:   -2.20 KCAL/MOL
REMARK 924 INTRA-LIGAND FREE ENERGY PREDICTED BY IDOCK:    0.00 KCAL/MOL
REMARK 927      BINDING AFFINITY PREDICTED BY RF-SCORE:    0.00 PKD
ROOT
HETATM    1  C   UNL     1     -10.344  20.013  65.958  1.00  0.00    -0.556 C  
HETATM    2  C   UNL     1      -9.692  20.361  67.284  1.00  0.00    -0.602 C  
ENDROOT
BRANCH   2   3
HETATM    3  C   UNL     1     -10.079  19.377  68.380  1.00  0.00    -0.444 C  
HETATM    4  O   UNL     1     -10.465  20.086  69.549  1.00  0.00    -0.597 OA 
HETATM    5  H   UNL     1     -10.707  19.473  70.232  1.00  0.00     0.000 HD 
ENDBRANCH   2   3
TORSDOF 1
ENDMDL
MODEL       15
REMARK 921   NORMALIZED FREE ENERGY PREDICTED BY IDOCK:   -2.06 KCAL/MOL
REMARK 922        TOTAL FREE ENERGY PREDICTED BY IDOCK:   -2.18 KCAL/MOL
REMARK 923 INTER-LIGAND FREE ENERGY PREDICTED BY IDOCK:   -2.18 KCAL/MOL
REMARK 924 INTRA-LIGAND FREE ENERGY PREDICTED BY IDOCK:    0.00 KCAL/MOL
REMARK 927      BINDING AFFINITY PREDICTED BY RF-SCORE:    0.00 PKD
ROOT
HETATM    1  C   UNL     1     -12.433  12.057  63.463  1.00  0.00    -0.654 C  
HETATM    2  C   UNL     1     -10.959  12.388  63.611  1.00  0.00    -0.525 C  
ENDROOT
BRANCH   2   3
HETATM    3  C   UNL     1     -10.076  11.189  63.299  1.00  0.00    -0.380 C  
HETATM    4  O   UNL     1      -8.834  11.630  62.769  1.00  0.00    -0.623 OA 
HETATM    5  H   UNL     1      -8.282  10.882  62.575  1.00  0.00     0.000 HD 
ENDBRANCH   2   3
TORSDOF 1
ENDMDL
MODEL       16
REMARK 921   NORMALIZED FREE ENERGY PREDICTED BY IDOCK:   -2.06 KCAL/MOL
REMARK 922        TOTAL FREE ENERGY PREDICTED BY IDOCK:   -2.18 KCAL/MOL
REMARK 923 INTER-LIGAND FREE ENERGY PREDICTED BY IDOCK:   -2.18 KCAL/MOL
REMARK 924 INTRA-LIGAND FREE ENERGY PREDICTED BY IDOCK:    0.00 KCAL/MOL
REMARK 927      BINDING AFFINITY PREDICTED BY RF-SCORE:    0.00 PKD
ROOT
HETATM    1  C   UNL     1     -13.547   9.180  72.115  1.00  0.00    -0.534 C  
HETATM    2  C   UNL     1     -13.078  10.589  71.800  1.00  0.00    -0.570 C  
ENDROOT
BRANCH   2   3
HETATM    3  C   UNL     1     -11.980  10.597  70.745  1.00  0.00    -0.374 C  
HETATM    4  O   UNL     1     -12.559  10.578  69.448  1.00  0.00    -0.701 OA 
HETATM    5  H   UNL     1     -11.875  10.584  68.790  1.00  0.00     0.000 HD 
ENDBRANCH   2   3
TORSDOF 1
ENDMDL
MODEL       17
REMARK 921   NORMALIZED FREE ENERGY PREDICTED BY IDOCK:   -2.04 KCAL/MOL
REMARK 922        TOTAL FREE ENERGY PREDICTED BY IDOCK:   -2.16 KCAL/MOL
REMARK 923 INTER-LIGAND FREE ENERGY PREDICTED BY IDOCK:   -2.16 KCAL/MOL
REMARK 924 INTRA-LIGAND FREE ENERGY PREDICTED BY IDOCK:    0.00 KCAL/MOL
REMARK 927      BINDING AFFINITY PREDICTED BY RF-SCORE:    0.00 PKD
ROOT
HETATM    1  C   UNL     1     -11.426   6.773  70.673  1.00  0.00    -0.403 C  
HETATM    2  C   UNL     1     -12.651   7.186  71.470  1.00  0.00    -0.427 C  
ENDROOT
BRANCH   2   3
HETATM    3  C   UNL     1     -12.449   8.525  72.164  1.00  0.00    -0.379 C  
HETATM    4  O   UNL     1     -13.503   8.751  73.091  1.00  0.00    -0.953 OA 
HETATM    5  H   UNL     1     -13.377   9.586  73.524  1.00  0.00     0.000 HD 
ENDBRANCH   2   3
TORSDOF 1
ENDMDL
MODEL       18
REMARK 921   NORMALIZED FREE ENERGY PREDICTED BY IDOCK:   -1.99 KCAL/MOL
REMARK 922        TOTAL FREE ENERGY PREDICTED BY IDOCK:   -2.11 KCAL/MOL
REMARK 923 INTER-LIGAND FREE ENERGY PREDICTED BY IDOCK:   -2.11 KCAL/MOL
REMARK 924 INTRA-LIGAND FREE ENERGY PREDICTED BY IDOCK:    0.00 KCAL/MOL
REMARK 927      BINDING AFFINITY PREDICTED BY RF-SCORE:    0.00 PKD
ROOT
HETATM    1  C   UNL     1     -12.042  13.681  63.836  1.00  0.00    -0.462 C  
HETATM    2  C   UNL     1     -12.049  12.252  64.350  1.00  0.00    -0.481 C  
ENDROOT
BRANCH   2   3
HETATM    3  C   UNL     1     -10.728  11.546  64.076  1.00  0.00    -0.384 C  
HETATM    4  O   UNL     1     -10.719  11.041  62.747  1.00  0.00    -0.779 OA 
HETATM    5  H   UNL     1      -9.896  10.601  62.576  1.00  0.00     0.000 HD 
ENDBRANCH   2   3
TORSDOF 1
ENDMDL
MODEL       19
REMARK 921   NORMALIZED FREE ENERGY PREDICTED BY IDOCK:   -1.98 KCAL/MOL
REMARK 922        TOTAL FREE ENERGY PREDICTED BY IDOCK:   -2.10 KCAL/MOL
REMARK 923 INTER-LIGAND FREE ENERGY PREDICTED BY IDOCK:   -2.10 KCAL/MOL
REMARK 924 INTRA-LIGAND FREE ENERGY PREDICTED BY IDOCK:    0.00 KCAL/MOL
REMARK 927      BINDING AFFINITY PREDICTED BY RF-SCORE:    0.00 PKD
ROOT
HETATM    1  C   UNL     1     -14.117   7.481  71.489  1.00  0.00    -0.550 C  
HETATM    2  C   UNL     1     -14.113   8.747  72.327  1.00  0.00    -0.511 C  
ENDROOT
BRANCH   2   3
HETATM    3  C   UNL     1     -13.162   9.794  71.765  1.00  0.00    -0.436 C  
HETATM    4  O   UNL     1     -13.497  11.075  72.282  1.00  0.00    -0.603 OA 
HETATM    5  H   UNL     1     -12.904  11.728  71.932  1.00  0.00     0.000 HD 
ENDBRANCH   2   3
TORSDOF 1
ENDMDL
MODEL       20
REMARK 921   NORMALIZED FREE ENERGY PREDICTED BY IDOCK:   -1.97 KCAL/MOL
REMARK 922        TOTAL FREE ENERGY PREDICTED BY IDOCK:   -2.09 KCAL/MOL
REMARK 923 INTER-LIGAND FREE ENERGY PREDICTED BY IDOCK:   -2.09 KCAL/MOL
REMARK 924 INTRA-LIGAND FREE ENERGY PREDICTED BY IDOCK:    0.00 KCAL/MOL
REMARK 927      BINDING AFFINITY PREDICTED BY RF-SCORE:    0.00 PKD
ROOT
HETATM    1  C   UNL     1     -11.998  16.036  72.104  1.00  0.00    -0.629 C  
HETATM    2  C   UNL     1     -12.937  15.491  71.043  1.00  0.00    -0.550 C  
ENDROOT
BRANCH   2   3
HETATM    3  C   UNL     1     -12.332  14.303  70.308  1.00  0.00    -0.354 C  
HETATM    4  O   UNL     1     -12.637  14.387  68.923  1.00  0.00    -0.555 OA 
HETATM    5  H   UNL     1     -12.260  13.647  68.465  1.00  0.00     0.000 HD 
ENDBRANCH   2   3
TORSDOF 1
ENDMDL
MODEL       21
REMARK 921   NORMALIZED FREE ENERGY PREDICTED BY IDOCK:   -1.96 KCAL/MOL
REMARK 922        TOTAL FREE ENERGY PREDICTED BY IDOCK:   -2.08 KCAL/MOL
REMARK 923 INTER-LIGAND FREE ENERGY PREDICTED BY IDOCK:   -2.08 KCAL/MOL
REMARK 924 INTRA-LIGAND FREE ENERGY PREDICTED BY IDOCK:    0.00 KCAL/MOL
REMARK 927      BINDING AFFINITY PREDICTED BY RF-SCORE:    0.00 PKD
ROOT
HETATM    1  C   UNL     1     -13.616  12.928  72.286  1.00  0.00    -0.611 C  
HETATM    2  C   UNL     1     -12.831  12.024  71.353  1.00  0.00    -0.391 C  
ENDROOT
BRANCH   2   3
HETATM    3  C   UNL     1     -12.955  10.559  71.748  1.00  0.00    -0.476 C  
HETATM    4  O   UNL     1     -13.559   9.826  70.691  1.00  0.00    -0.600 OA 
HETATM    5  H   UNL     1     -13.636   8.912  70.936  1.00  0.00     0.000 HD 
ENDBRANCH   2   3
TORSDOF 1
ENDMDL
MODEL       22
REMARK 921   NORMALIZED FREE ENERGY PREDICTED BY IDOCK:   -1.95 KCAL/MOL
REMARK 922        TOTAL FREE ENERGY PREDICTED BY IDOCK:   -2.06 KCAL/MOL
REMARK 923 INTER-LIGAND FREE ENERGY PREDICTED BY IDOCK:   -2.06 KCAL/MOL
REMARK 924 INTRA-LIGAND FREE ENERGY PREDICTED BY IDOCK:    0.00 KCAL/MOL
REMARK 927      BINDING AFFINITY PREDICTED BY RF-SCORE:    0.00 PKD
ROOT
HETATM    1  C   UNL     1      -9.415  19.196  68.662  1.00  0.00    -0.460 C  
HETATM    2  C   UNL     1     -10.638  19.293  67.767  1.00  0.00    -0.516 C  
ENDROOT
BRANCH   2   3
HETATM    3  C   UNL     1     -10.272  19.728  66.355  1.00  0.00    -0.503 C  
HETATM    4  O   UNL     1      -9.135  20.580  66.393  1.00  0.00    -0.582 OA 
HETATM    5  H   UNL     1      -8.906  20.851  65.513  1.00  0.00     0.000 HD 
ENDBRANCH   2   3
TORSDOF 1
ENDMDL
MODEL       23
REMARK 921   NORMALIZED FREE ENERGY PREDICTED BY IDOCK:   -1.93 KCAL/MOL
REMARK 922        TOTAL FREE ENERGY PREDICTED BY IDOCK:   -2.05 KCAL/MOL
REMARK 923 INTER-LIGAND FREE ENERGY PREDICTED BY IDOCK:   -2.05 KCAL/MOL
REMARK 924 INTRA-LIGAND FREE ENERGY PREDICTED BY IDOCK:    0.00 KCAL/MOL
REMARK 927      BINDING AFFINITY PREDICTED BY RF-SCORE:    0.00 PKD
ROOT
HETATM    1  C   UNL     1     -10.791   9.191  71.520  1.00  0.00    -0.436 C  
HETATM    2  C   UNL     1     -12.103   9.847  71.129  1.00  0.00    -0.466 C  
ENDROOT
BRANCH   2   3
HETATM    3  C   UNL     1     -13.172   9.653  72.194  1.00  0.00    -0.444 C  
HETATM    4  O   UNL     1     -12.887   8.487  72.956  1.00  0.00    -0.701 OA 
HETATM    5  H   UNL     1     -13.554   8.366  73.621  1.00  0.00     0.000 HD 
ENDBRANCH   2   3
TORSDOF 1
ENDMDL
MODEL       24
REMARK 921   NORMALIZED FREE ENERGY PREDICTED BY IDOCK:   -1.92 KCAL/MOL
REMARK 922        TOTAL FREE ENERGY PREDICTED BY IDOCK:   -2.03 KCAL/MOL
REMARK 923 INTER-LIGAND FREE ENERGY PREDICTED BY IDOCK:   -2.03 KCAL/MOL
REMARK 924 INTRA-LIGAND FREE ENERGY PREDICTED BY IDOCK:    0.00 KCAL/MOL
REMARK 927      BINDING AFFINITY PREDICTED BY RF-SCORE:    0.00 PKD
ROOT
HETATM    1  C   UNL     1      -9.731  18.647  68.117  1.00  0.00    -0.372 C  
HETATM    2  C   UNL     1     -10.058  19.965  67.437  1.00  0.00    -0.567 C  
ENDROOT
BRANCH   2   3
HETATM    3  C   UNL     1     -10.641  19.755  66.047  1.00  0.00    -0.468 C  
HETATM    4  O   UNL     1     -10.465  18.402  65.650  1.00  0.00    -0.624 OA 
HETATM    5  H   UNL     1     -10.829  18.271  64.783  1.00  0.00     0.000 HD 
ENDBRANCH   2   3
TORSDOF 1
ENDMDL
MODEL       25
REMARK 921   NORMALIZED FREE ENERGY PREDICTED BY IDOCK:   -1.91 KCAL/MOL
REMARK 922        TOTAL FREE ENERGY PREDICTED BY IDOCK:   -2.02 KCAL/MOL
REMARK 923 INTER-LIGAND FREE ENERGY PREDICTED BY IDOCK:   -2.02 KCAL/MOL
REMARK 924 INTRA-LIGAND FREE ENERGY PREDICTED BY IDOCK:    0.00 KCAL/MOL
REMARK 927      BINDING AFFINITY PREDICTED BY RF-SCORE:    0.00 PKD
ROOT
HETATM    1  C   UNL     1     -13.476  12.808  72.219  1.00  0.00    -0.591 C  
HETATM    2  C   UNL     1     -12.998  11.436  71.775  1.00  0.00    -0.519 C  
ENDROOT
BRANCH   2   3
HETATM    3  C   UNL     1     -12.071  11.522  70.572  1.00  0.00    -0.378 C  
HETATM    4  O   UNL     1     -11.693  12.874  70.350  1.00  0.00    -0.534 OA 
HETATM    5  H   UNL     1     -11.114  12.927  69.600  1.00  0.00     0.000 HD 
ENDBRANCH   2   3
TORSDOF 1
ENDMDL
MODEL       26
REMARK 921   NORMALIZED FREE ENERGY PREDICTED BY IDOCK:   -1.91 KCAL/MOL
REMARK 922        TOTAL FREE ENERGY PREDICTED BY IDOCK:   -2.02 KCAL/MOL
REMARK 923 INTER-LIGAND FREE ENERGY PREDICTED BY IDOCK:   -2.02 KCAL/MOL
REMARK 924 INTRA-LIGAND FREE ENERGY PREDICTED BY IDOCK:    0.00 KCAL/MOL
REMARK 927      BINDING AFFINITY PREDICTED BY RF-SCORE:    0.00 PKD
ROOT
HETATM    1  C   UNL     1     -10.945  11.996  65.872  1.00  0.00    -0.342 C  
HETATM    2  C   UNL     1     -10.928  11.785  64.369  1.00  0.00    -0.397 C  
ENDROOT
BRANCH   2   3
HETATM    3  C   UNL     1     -11.943  12.672  63.662  1.00  0.00    -0.535 C  
HETATM    4  O   UNL     1     -13.256  12.183  63.896  1.00  0.00    -0.748 OA 
HETATM    5  H   UNL     1     -13.889  12.736  63.456  1.00  0.00     0.000 HD 
ENDBRANCH   2   3
TORSDOF 1
ENDMDL
MODEL       27
REMARK 921   NORMALIZED FREE ENERGY PREDICTED BY IDOCK:   -1.91 KCAL/MOL
REMARK 922        TOTAL FREE ENERGY PREDICTED BY IDOCK:   -2.02 KCAL/MOL
REMARK 923 INTER-LIGAND FREE ENERGY PREDICTED BY IDOCK:   -2.02 KCAL/MOL
REMARK 924 INTRA-LIGAND FREE ENERGY PREDICTED BY IDOCK:    0.00 KCAL/MOL
REMARK 927      BINDING AFFINITY PREDICTED BY RF-SCORE:    0.00 PKD
ROOT
HETATM    1  C   UNL     1     -12.927  10.618  71.666  1.00  0.00    -0.582 C  
HETATM    2  C   UNL     1     -13.356   9.314  72.315  1.00  0.00    -0.547 C  
ENDROOT
BRANCH   2   3
HETATM    3  C   UNL     1     -12.243   8.276  72.288  1.00  0.00    -0.370 C  
HETATM    4  O   UNL     1     -12.803   6.971  72.242  1.00  0.00    -0.521 OA 
HETATM    5  H   UNL     1     -12.109   6.323  72.224  1.00  0.00     0.000 HD 
ENDBRANCH   2   3
TORSDOF 1
ENDMDL
MODEL       28
REMARK 921   NORMALIZED FREE ENERGY PREDICTED BY IDOCK:   -1.88 KCAL/MOL
REMARK 922        TOTAL FREE ENERGY PREDICTED BY IDOCK:   -1.99 KCAL/MOL
REMARK 923 INTER-LIGAND FREE ENERGY PREDICTED BY IDOCK:   -1.99 KCAL/MOL
REMARK 924 INTRA-LIGAND FREE ENERGY PREDICTED BY IDOCK:    0.00 KCAL/MOL
REMARK 927      BINDING AFFINITY PREDICTED BY RF-SCORE:    0.00 PKD
ROOT
HETATM    1  C   UNL     1     -11.722  14.516  67.272  1.00  0.00    -0.429 C  
HETATM    2  C   UNL     1     -12.536  13.808  66.204  1.00  0.00    -0.466 C  
ENDROOT
BRANCH   2   3
HETATM    3  C   UNL     1     -12.021  14.115  64.805  1.00  0.00    -0.431 C  
HETATM    4  O   UNL     1     -12.727  13.334  63.850  1.00  0.00    -0.667 OA 
HETATM    5  H   UNL     1     -12.406  13.526  62.977  1.00  0.00     0.000 HD 
ENDBRANCH   2   3
TORSDOF 1
ENDMDL
MODEL       29
REMARK 921   NORMALIZED FREE ENERGY PREDICTED BY IDOCK:   -1.88 KCAL/MOL
REMARK 922        TOTAL FREE ENERGY PREDICTED BY IDOCK:   -1.99 KCAL/MOL
REMARK 923 INTER-LIGAND FREE ENERGY PREDICTED BY IDOCK:   -1.99 KCAL/MOL
REMARK 924 INTRA-LIGAND FREE ENERGY PREDICTED BY IDOCK:    0.00 KCAL/MOL
REMARK 927      BINDING AFFINITY PREDICTED BY RF-SCORE:    0.00 PKD
ROOT
HETATM    1  C   UNL     1     -11.800  14.687  70.968  1.00  0.00    -0.379 C  
HETATM    2  C   UNL     1     -12.571  14.776  72.273  1.00  0.00    -0.414 C  
ENDROOT
BRANCH   2   3
HETATM    3  C   UNL     1     -13.815  13.899  72.256  1.00  0.00    -0.571 C  
HETATM    4  O   UNL     1     -13.558  12.687  72.952  1.00  0.00    -0.629 OA 
HETATM    5  H   UNL     1     -14.334  12.140  72.942  1.00  0.00     0.000 HD 
ENDBRANCH   2   3
TORSDOF 1
ENDMDL
MODEL       30
REMARK 921   NORMALIZED FREE ENERGY PREDICTED BY IDOCK:   -1.87 KCAL/MOL
REMARK 922        TOTAL FREE ENERGY PREDICTED BY IDOCK:   -1.98 KCAL/MOL
REMARK 923 INTER-LIGAND FREE ENERGY PREDICTED BY IDOCK:   -1.98 KCAL/MOL
REMARK 924 INTRA-LIGAND FREE ENERGY PREDICTED BY IDOCK:    0.00 KCAL/MOL
REMARK 927      BINDING AFFINITY PREDICTED BY RF-SCORE:    0.00 PKD
ROOT
HETATM    1  C   UNL     1     -12.133  14.037  64.270  1.00  0.00    -0.476 C  
HETATM    2  C   UNL     1     -12.392  12.884  65.223  1.00  0.00    -0.544 C  
ENDROOT
BRANCH   2   3
HETATM    3  C   UNL     1     -11.780  13.134  66.593  1.00  0.00    -0.375 C  
HETATM    4  O   UNL     1     -12.370  14.286  67.181  1.00  0.00    -0.590 OA 
HETATM    5  H   UNL     1     -11.988  14.442  68.036  1.00  0.00     0.000 HD 
ENDBRANCH   2   3
TORSDOF 1
ENDMDL
MODEL       31
REMARK 921   NORMALIZED FREE ENERGY PREDICTED BY IDOCK:   -1.87 KCAL/MOL
REMARK 922        TOTAL FREE ENERGY PREDICTED BY IDOCK:   -1.98 KCAL/MOL
REMARK 923 INTER-LIGAND FREE ENERGY PREDICTED BY IDOCK:   -1.98 KCAL/MOL
REMARK 924 INTRA-LIGAND FREE ENERGY PREDICTED BY IDOCK:    0.00 KCAL/MOL
REMARK 927      BINDING AFFINITY PREDICTED BY RF-SCORE:    0.00 PKD
ROOT
HETATM    1  C   UNL     1     -13.365   9.646  72.035  1.00  0.00    -0.547 C  
HETATM    2  C   UNL     1     -13.072  11.070  71.598  1.00  0.00    -0.543 C  
ENDROOT
BRANCH   2   3
HETATM    3  C   UNL     1     -12.204  11.111  70.348  1.00  0.00    -0.369 C  
HETATM    4  O   UNL     1     -11.583  12.384  70.235  1.00  0.00    -0.525 OA 
HETATM    5  H   UNL     1     -11.041  12.410  69.456  1.00  0.00     0.000 HD 
ENDBRANCH   2   3
TORSDOF 1
ENDMDL
MODEL       32
REMARK 921   NORMALIZED FREE ENERGY PREDICTED BY IDOCK:   -1.87 KCAL/MOL
REMARK 922        TOTAL FREE ENERGY PREDICTED BY IDOCK:   -1.98 KCAL/MOL
REMARK 923 INTER-LIGAND FREE ENERGY PREDICTED BY IDOCK:   -1.98 KCAL/MOL
REMARK 924 INTRA-LIGAND FREE ENERGY PREDICTED BY IDOCK:    0.00 KCAL/MOL
REMARK 927      BINDING AFFINITY PREDICTED BY RF-SCORE:    0.00 PKD
ROOT
HETATM    1  C   UNL     1     -11.881  13.230  69.617  1.00  0.00    -0.391 C  
HETATM    2  C   UNL     1     -12.589  13.570  70.917  1.00  0.00    -0.414 C  
ENDROOT
BRANCH   2   3
HETATM    3  C   UNL     1     -12.532  15.060  71.220  1.00  0.00    -0.334 C  
HETATM    4  O   UNL     1     -13.717  15.692  70.755  1.00  0.00    -0.843 OA 
HETATM    5  H   UNL     1     -13.681  16.621  70.944  1.00  0.00     0.000 HD 
ENDBRANCH   2   3
TORSDOF 1
ENDMDL
MODEL       33
REMARK 921   NORMALIZED FREE ENERGY PREDICTED BY IDOCK:   -1.86 KCAL/MOL
REMARK 922        TOTAL FREE ENERGY PREDICTED BY IDOCK:   -1.97 KCAL/MOL
REMARK 923 INTER-LIGAND FREE ENERGY PREDICTED BY IDOCK:   -1.97 KCAL/MOL
REMARK 924 INTRA-LIGAND FREE ENERGY PREDICTED BY IDOCK:    0.00 KCAL/MOL
REMARK 927      BINDING AFFINITY PREDICTED BY RF-SCORE:    0.00 PKD
ROOT
HETATM    1  C   UNL     1     -11.562  12.197  65.751  1.00  0.00    -0.414 C  
HETATM    2  C   UNL     1     -12.147  13.597  65.698  1.00  0.00    -0.457 C  
ENDROOT
BRANCH   2   3
HETATM    3  C   UNL     1     -11.236  14.563  64.954  1.00  0.00    -0.391 C  
HETATM    4  O   UNL     1     -10.121  13.860  64.422  1.00  0.00    -0.711 OA 
HETATM    5  H   UNL     1      -9.553  14.462  63.957  1.00  0.00     0.000 HD 
ENDBRANCH   2   3
TORSDOF 1
ENDMDL
MODEL       34
REMARK 921   NORMALIZED FREE ENERGY PREDICTED BY IDOCK:   -1.86 KCAL/MOL
REMARK 922        TOTAL FREE ENERGY PREDICTED BY IDOCK:   -1.97 KCAL/MOL
REMARK 923 INTER-LIGAND FREE ENERGY PREDICTED BY IDOCK:   -1.97 KCAL/MOL
REMARK 924 INTRA-LIGAND FREE ENERGY PREDICTED BY IDOCK:    0.00 KCAL/MOL
REMARK 927      BINDING AFFINITY PREDICTED BY RF-SCORE:    0.00 PKD
ROOT
HETATM    1  C   UNL     1     -14.338   8.523  72.171  1.00  0.00    -0.529 C  
HETATM    2  C   UNL     1     -12.823   8.614  72.133  1.00  0.00    -0.442 C  
ENDROOT
BRANCH   2   3
HETATM    3  C   UNL     1     -12.351   9.925  71.521  1.00  0.00    -0.412 C  
HETATM    4  O   UNL     1     -13.038  10.161  70.299  1.00  0.00    -0.586 OA 
HETATM    5  H   UNL     1     -12.743  10.978  69.917  1.00  0.00     0.000 HD 
ENDBRANCH   2   3
TORSDOF 1
ENDMDL
MODEL       35
REMARK 921   NORMALIZED FREE ENERGY PREDICTED BY IDOCK:   -1.83 KCAL/MOL
REMARK 922        TOTAL FREE ENERGY PREDICTED BY IDOCK:   -1.94 KCAL/MOL
REMARK 923 INTER-LIGAND FREE ENERGY PREDICTED BY IDOCK:   -1.94 KCAL/MOL
REMARK 924 INTRA-LIGAND FREE ENERGY PREDICTED BY IDOCK:    0.00 KCAL/MOL
REMARK 927      BINDING AFFINITY PREDICTED BY RF-SCORE:    0.00 PKD
ROOT
HETATM    1  C   UNL     1     -10.412  19.561  65.975  1.00  0.00    -0.611 C  
HETATM    2  C   UNL     1     -10.655  19.388  67.463  1.00  0.00    -0.591 C  
ENDROOT
BRANCH   2   3
HETATM    3  C   UNL     1      -9.864  18.219  68.033  1.00  0.00    -0.330 C  
HETATM    4  O   UNL     1     -10.550  17.673  69.152  1.00  0.00    -0.403 OA 
HETATM    5  H   UNL     1     -10.057  16.944  69.507  1.00  0.00     0.000 HD 
ENDBRANCH   2   3
TORSDOF 1
ENDMDL
MODEL       36
REMARK 921   NORMALIZED FREE ENERGY PREDICTED BY IDOCK:   -1.80 KCAL/MOL
REMARK 922        TOTAL FREE ENERGY PREDICTED BY IDOCK:   -1.91 KCAL/MOL
REMARK 923 INTER-LIGAND FREE ENERGY PREDICTED BY IDOCK:   -1.91 KCAL/MOL
REMARK 924 INTRA-LIGAND FREE ENERGY PREDICTED BY IDOCK:    0.00 KCAL/MOL
REMARK 927      BINDING AFFINITY PREDICTED BY RF-SCORE:    0.00 PKD
ROOT
HETATM    1  C   UNL     1     -10.727   8.844  71.773  1.00  0.00    -0.432 C  
HETATM    2  C   UNL     1     -12.170   8.538  72.132  1.00  0.00    -0.446 C  
ENDROOT
BRANCH   2   3
HETATM    3  C   UNL     1     -12.671   7.281  71.436  1.00  0.00    -0.389 C  
HETATM    4  O   UNL     1     -14.005   7.479  70.985  1.00  0.00    -0.644 OA 
HETATM    5  H   UNL     1     -14.318   6.695  70.551  1.00  0.00     0.000 HD 
ENDBRANCH   2   3
TORSDOF 1
ENDMDL
MODEL       37
REMARK 921   NORMALIZED FREE ENERGY PREDICTED BY IDOCK:   -1.76 KCAL/MOL
REMARK 922        TOTAL FREE ENERGY PREDICTED BY IDOCK:   -1.87 KCAL/MOL
REMARK 923 INTER-LIGAND FREE ENERGY PREDICTED BY IDOCK:   -1.87 KCAL/MOL
REMARK 924 INTRA-LIGAND FREE ENERGY PREDICTED BY IDOCK:    0.00 KCAL/MOL
REMARK 927      BINDING AFFINITY PREDICTED BY RF-SCORE:    0.00 PKD
ROOT
HETATM    1  C   UNL     1     -12.005  12.759  65.813  1.00  0.00    -0.502 C  
HETATM    2  C   UNL     1     -11.615  12.278  67.199  1.00  0.00    -0.423 C  
ENDROOT
BRANCH   2   3
HETATM    3  C   UNL     1     -11.628  13.411  68.215  1.00  0.00    -0.344 C  
HETATM    4  O   UNL     1     -12.253  14.556  67.652  1.00  0.00    -0.598 OA 
HETATM    5  H   UNL     1     -12.262  15.262  68.285  1.00  0.00     0.000 HD 
ENDBRANCH   2   3
TORSDOF 1
ENDMDL
MODEL       38
REMARK 921   NORMALIZED FREE ENERGY PREDICTED BY IDOCK:   -1.76 KCAL/MOL
REMARK 922        TOTAL FREE ENERGY PREDICTED BY IDOCK:   -1.87 KCAL/MOL
REMARK 923 INTER-LIGAND FREE ENERGY PREDICTED BY IDOCK:   -1.87 KCAL/MOL
REMARK 924 INTRA-LIGAND FREE ENERGY PREDICTED BY IDOCK:    0.00 KCAL/MOL
REMARK 927      BINDING AFFINITY PREDICTED BY RF-SCORE:    0.00 PKD
ROOT
HETATM    1  C   UNL     1     -11.324   6.382  70.013  1.00  0.00    -0.496 C  
HETATM    2  C   UNL     1     -12.266   6.887  71.091  1.00  0.00    -0.428 C  
ENDROOT
BRANCH   2   3
HETATM    3  C   UNL     1     -11.687   8.082  71.834  1.00  0.00    -0.303 C  
HETATM    4  O   UNL     1     -11.899   7.928  73.231  1.00  0.00    -0.639 OA 
HETATM    5  H   UNL     1     -11.537   8.673  73.695  1.00  0.00     0.000 HD 
ENDBRANCH   2   3
TORSDOF 1
ENDMDL
MODEL       39
REMARK 921   NORMALIZED FREE ENERGY PREDICTED BY IDOCK:   -1.74 KCAL/MOL
REMARK 922        TOTAL FREE ENERGY PREDICTED BY IDOCK:   -1.84 KCAL/MOL
REMARK 923 INTER-LIGAND FREE ENERGY PREDICTED BY IDOCK:   -1.84 KCAL/MOL
REMARK 924 INTRA-LIGAND FREE ENERGY PREDICTED BY IDOCK:    0.00 KCAL/MOL
REMARK 927      BINDING AFFINITY PREDICTED BY RF-SCORE:    0.00 PKD
ROOT
HETATM    1  C   UNL     1     -12.560  13.185  70.731  1.00  0.00    -0.338 C  
HETATM    2  C   UNL     1     -11.775  12.915  69.460  1.00  0.00    -0.387 C  
ENDROOT
BRANCH   2   3
HETATM    3  C   UNL     1     -11.333  11.461  69.366  1.00  0.00    -0.297 C  
HETATM    4  O   UNL     1     -12.306  10.707  68.657  1.00  0.00    -0.820 OA 
HETATM    5  H   UNL     1     -12.031   9.801  68.598  1.00  0.00     0.000 HD 
ENDBRANCH   2   3
TORSDOF 1
ENDMDL
MODEL       40
REMARK 921   NORMALIZED FREE ENERGY PREDICTED BY IDOCK:   -1.73 KCAL/MOL
REMARK 922        TOTAL FREE ENERGY PREDICTED BY IDOCK:   -1.83 KCAL/MOL
REMARK 923 INTER-LIGAND FREE ENERGY PREDICTED BY IDOCK:   -1.83 KCAL/MOL
REMARK 924 INTRA-LIGAND FREE ENERGY PREDICTED BY IDOCK:    0.00 KCAL/MOL
REMARK 927      BINDING AFFINITY PREDICTED BY RF-SCORE:    0.00 PKD
ROOT
HETATM    1  C   UNL     1      -9.696   8.417  72.341  1.00  0.00    -0.376 C  
HETATM    2  C   UNL     1     -10.817   9.181  71.659  1.00  0.00    -0.442 C  
ENDROOT
BRANCH   2   3
HETATM    3  C   UNL     1     -12.178   8.561  71.943  1.00  0.00    -0.352 C  
HETATM    4  O   UNL     1     -12.155   7.907  73.204  1.00  0.00    -0.655 OA 
HETATM    5  H   UNL     1     -13.004   7.521  73.382  1.00  0.00     0.000 HD 
ENDBRANCH   2   3
TORSDOF 1
ENDMDL
MODEL       41
REMARK 921   NORMALIZED FREE ENERGY PREDICTED BY IDOCK:   -1.69 KCAL/MOL
REMARK 922        TOTAL FREE ENERGY PREDICTED BY IDOCK:   -1.79 KCAL/MOL
REMARK 923 INTER-LIGAND FREE ENERGY PREDICTED BY IDOCK:   -1.79 KCAL/MOL
REMARK 924 INTRA-LIGAND FREE ENERGY PREDICTED BY IDOCK:    0.00 KCAL/MOL
REMARK 927      BINDING AFFINITY PREDICTED BY RF-SCORE:    0.00 PKD
ROOT
HETATM    1  C   UNL     1     -10.190   8.724  71.999  1.00  0.00    -0.401 C  
HETATM    2  C   UNL     1     -11.634   9.189  71.942  1.00  0.00    -0.430 C  
ENDROOT
BRANCH   2   3
HETATM    3  C   UNL     1     -11.846  10.247  70.869  1.00  0.00    -0.377 C  
HETATM    4  O   UNL     1     -13.143  10.108  70.305  1.00  0.00    -0.586 OA 
HETATM    5  H   UNL     1     -13.275  10.768  69.636  1.00  0.00     0.000 HD 
ENDBRANCH   2   3
TORSDOF 1
ENDMDL
MODEL       42
REMARK 921   NORMALIZED FREE ENERGY PREDICTED BY IDOCK:   -1.69 KCAL/MOL
REMARK 922        TOTAL FREE ENERGY PREDICTED BY IDOCK:   -1.79 KCAL/MOL
REMARK 923 INTER-LIGAND FREE ENERGY PREDICTED BY IDOCK:   -1.79 KCAL/MOL
REMARK 924 INTRA-LIGAND FREE ENERGY PREDICTED BY IDOCK:    0.00 KCAL/MOL
REMARK 927      BINDING AFFINITY PREDICTED BY RF-SCORE:    0.00 PKD
ROOT
HETATM    1  C   UNL     1     -10.087  20.063  66.618  1.00  0.00    -0.607 C  
HETATM    2  C   UNL     1      -9.773  19.778  68.076  1.00  0.00    -0.505 C  
ENDROOT
BRANCH   2   3
HETATM    3  C   UNL     1      -8.664  18.745  68.224  1.00  0.00    -0.333 C  
HETATM    4  O   UNL     1      -7.576  19.307  68.945  1.00  0.00    -0.345 OA 
HETATM    5  H   UNL     1      -6.885  18.663  69.038  1.00  0.00     0.000 HD 
ENDBRANCH   2   3
TORSDOF 1
ENDMDL
MODEL       43
REMARK 921   NORMALIZED FREE ENERGY PREDICTED BY IDOCK:   -1.66 KCAL/MOL
REMARK 922        TOTAL FREE ENERGY PREDICTED BY IDOCK:   -1.76 KCAL/MOL
REMARK 923 INTER-LIGAND FREE ENERGY PREDICTED BY IDOCK:   -1.76 KCAL/MOL
REMARK 924 INTRA-LIGAND FREE ENERGY PREDICTED BY IDOCK:    0.00 KCAL/MOL
REMARK 927      BINDING AFFINITY PREDICTED BY RF-SCORE:    0.00 PKD
ROOT
HETATM    1  C   UNL     1      -6.943  20.631  67.337  1.00  0.00    -0.395 C  
HETATM    2  C   UNL     1      -7.594  19.913  66.168  1.00  0.00    -0.338 C  
ENDROOT
BRANCH   2   3
HETATM    3  C   UNL     1      -9.062  19.613  66.436  1.00  0.00    -0.379 C  
HETATM    4  O   UNL     1      -9.764  20.823  66.681  1.00  0.00    -0.647 OA 
HETATM    5  H   UNL     1     -10.680  20.636  66.848  1.00  0.00     0.000 HD 
ENDBRANCH   2   3
TORSDOF 1
ENDMDL
MODEL       44
REMARK 921   NORMALIZED FREE ENERGY PREDICTED BY IDOCK:   -1.64 KCAL/MOL
REMARK 922        TOTAL FREE ENERGY PREDICTED BY IDOCK:   -1.74 KCAL/MOL
REMARK 923 INTER-LIGAND FREE ENERGY PREDICTED BY IDOCK:   -1.74 KCAL/MOL
REMARK 924 INTRA-LIGAND FREE ENERGY PREDICTED BY IDOCK:    0.00 KCAL/MOL
REMARK 927      BINDING AFFINITY PREDICTED BY RF-SCORE:    0.00 PKD
ROOT
HETATM    1  C   UNL     1     -10.774  12.367  65.578  1.00  0.00    -0.315 C  
HETATM    2  C   UNL     1     -11.594  13.126  66.605  1.00  0.00    -0.403 C  
ENDROOT
BRANCH   2   3
HETATM    3  C   UNL     1     -11.601  12.422  67.955  1.00  0.00    -0.356 C  
HETATM    4  O   UNL     1     -11.976  11.061  67.786  1.00  0.00    -0.661 OA 
HETATM    5  H   UNL     1     -11.980  10.622  68.628  1.00  0.00     0.000 HD 
ENDBRANCH   2   3
TORSDOF 1
ENDMDL
MODEL       45
REMARK 921   NORMALIZED FREE ENERGY PREDICTED BY IDOCK:   -1.61 KCAL/MOL
REMARK 922        TOTAL FREE ENERGY PREDICTED BY IDOCK:   -1.71 KCAL/MOL
REMARK 923 INTER-LIGAND FREE ENERGY PREDICTED BY IDOCK:   -1.71 KCAL/MOL
REMARK 924 INTRA-LIGAND FREE ENERGY PREDICTED BY IDOCK:    0.00 KCAL/MOL
REMARK 927      BINDING AFFINITY PREDICTED BY RF-SCORE:    0.00 PKD
ROOT
HETATM    1  C   UNL     1     -11.592  15.759  64.359  1.00  0.00    -0.240 C  
HETATM    2  C   UNL     1     -10.428  14.920  64.855  1.00  0.00    -0.389 C  
ENDROOT
BRANCH   2   3
HETATM    3  C   UNL     1     -10.668  13.433  64.635  1.00  0.00    -0.411 C  
HETATM    4  O   UNL     1      -9.670  12.907  63.771  1.00  0.00    -0.669 OA 
HETATM    5  H   UNL     1      -9.820  11.980  63.634  1.00  0.00     0.000 HD 
ENDBRANCH   2   3
TORSDOF 1
ENDMDL
MODEL       46
REMARK 921   NORMALIZED FREE ENERGY PREDICTED BY IDOCK:   -1.60 KCAL/MOL
REMARK 922        TOTAL FREE ENERGY PREDICTED BY IDOCK:   -1.70 KCAL/MOL
REMARK 923 INTER-LIGAND FREE ENERGY PREDICTED BY IDOCK:   -1.70 KCAL/MOL
REMARK 924 INTRA-LIGAND FREE ENERGY PREDICTED BY IDOCK:    0.00 KCAL/MOL
REMARK 927      BINDING AFFINITY PREDICTED BY RF-SCORE:    0.00 PKD
ROOT
HETATM    1  C   UNL     1     -11.559  15.696  70.281  1.00  0.00    -0.370 C  
HETATM    2  C   UNL     1     -11.515  15.609  68.766  1.00  0.00    -0.382 C  
ENDROOT
BRANCH   2   3
HETATM    3  C   UNL     1     -11.812  14.200  68.272  1.00  0.00    -0.356 C  
HETATM    4  O   UNL     1     -12.498  14.260  67.029  1.00  0.00    -0.588 OA 
HETATM    5  H   UNL     1     -12.683  13.382  66.721  1.00  0.00     0.000 HD 
ENDBRANCH   2   3
TORSDOF 1
ENDMDL
MODEL       47
REMARK 921   NORMALIZED FREE ENERGY PREDICTED BY IDOCK:   -1.60 KCAL/MOL
REMARK 922        TOTAL FREE ENERGY PREDICTED BY IDOCK:   -1.70 KCAL/MOL
REMARK 923 INTER-LIGAND FREE ENERGY PREDICTED BY IDOCK:   -1.70 KCAL/MOL
REMARK 924 INTRA-LIGAND FREE ENERGY PREDICTED BY IDOCK:    0.00 KCAL/MOL
REMARK 927      BINDING AFFINITY PREDICTED BY RF-SCORE:    0.00 PKD
ROOT
HETATM    1  C   UNL     1     -11.056   6.103  69.148  1.00  0.00    -0.448 C  
HETATM    2  C   UNL     1     -10.203   7.034  68.305  1.00  0.00    -0.206 C  
ENDROOT
BRANCH   2   3
HETATM    3  C   UNL     1     -10.753   7.182  66.893  1.00  0.00    -0.293 C  
HETATM    4  O   UNL     1     -11.227   5.925  66.428  1.00  0.00    -0.749 OA 
HETATM    5  H   UNL     1     -11.571   6.017  65.548  1.00  0.00     0.000 HD 
ENDBRANCH   2   3
TORSDOF 1
ENDMDL
MODEL       48
REMARK 921   NORMALIZED FREE ENERGY PREDICTED BY IDOCK:   -1.58 KCAL/MOL
REMARK 922        TOTAL FREE ENERGY PREDICTED BY IDOCK:   -1.67 KCAL/MOL
REMARK 923 INTER-LIGAND FREE ENERGY PREDICTED BY IDOCK:   -1.67 KCAL/MOL
REMARK 924 INTRA-LIGAND FREE ENERGY PREDICTED BY IDOCK:    0.00 KCAL/MOL
REMARK 927      BINDING AFFINITY PREDICTED BY RF-SCORE:    0.00 PKD
ROOT
HETATM    1  C   UNL     1      -9.828  16.912  66.703  1.00  0.00    -0.295 C  
HETATM    2  C   UNL     1     -10.483  18.238  66.358  1.00  0.00    -0.387 C  
ENDROOT
BRANCH   2   3
HETATM    3  C   UNL     1      -9.818  19.402  67.080  1.00  0.00    -0.343 C  
HETATM    4  O   UNL     1      -9.710  20.514  66.202  1.00  0.00    -0.648 OA 
HETATM    5  H   UNL     1      -9.296  21.240  66.652  1.00  0.00     0.000 HD 
ENDBRANCH   2   3
TORSDOF 1
ENDMDL
MODEL       49
REMARK 921   NORMALIZED FREE ENERGY PREDICTED BY IDOCK:   -1.57 KCAL/MOL
REMARK 922        TOTAL FREE ENERGY PREDICTED BY IDOCK:   -1.66 KCAL/MOL
REMARK 923 INTER-LIGAND FREE ENERGY PREDICTED BY IDOCK:   -1.66 KCAL/MOL
REMARK 924 INTRA-LIGAND FREE ENERGY PREDICTED BY IDOCK:    0.00 KCAL/MOL
REMARK 927      BINDING AFFINITY PREDICTED BY RF-SCORE:    0.00 PKD
ROOT
HETATM    1  C   UNL     1     -11.437  15.858  68.448  1.00  0.00    -0.348 C  
HETATM    2  C   UNL     1     -10.603  16.453  67.328  1.00  0.00    -0.293 C  
ENDROOT
BRANCH   2   3
HETATM    3  C   UNL     1     -10.712  15.638  66.047  1.00  0.00    -0.317 C  
HETATM    4  O   UNL     1     -10.693  16.505  64.921  1.00  0.00    -0.702 OA 
HETATM    5  H   UNL     1     -10.761  15.997  64.122  1.00  0.00     0.000 HD 
ENDBRANCH   2   3
TORSDOF 1
ENDMDL
MODEL       50
REMARK 921   NORMALIZED FREE ENERGY PREDICTED BY IDOCK:   -1.56 KCAL/MOL
REMARK 922        TOTAL FREE ENERGY PREDICTED BY IDOCK:   -1.66 KCAL/MOL
REMARK 923 INTER-LIGAND FREE ENERGY PREDICTED BY IDOCK:   -1.66 KCAL/MOL
REMARK 924 INTRA-LIGAND FREE ENERGY PREDICTED BY IDOCK:    0.00 KCAL/MOL
REMARK 927      BINDING AFFINITY PREDICTED BY RF-SCORE:    0.00 PKD
ROOT
HETATM    1  C   UNL     1     -12.839   9.021  71.618  1.00  0.00    -0.419 C  
HETATM    2  C   UNL     1     -11.728   8.051  71.259  1.00  0.00    -0.311 C  
ENDROOT
BRANCH   2   3
HETATM    3  C   UNL     1     -10.683   7.954  72.362  1.00  0.00    -0.305 C  
HETATM    4  O   UNL     1     -11.287   7.472  73.555  1.00  0.00    -0.620 OA 
HETATM    5  H   UNL     1     -10.636   7.412  74.243  1.00  0.00     0.000 HD 
ENDBRANCH   2   3
TORSDOF 1
ENDMDL
MODEL       51
REMARK 921   NORMALIZED FREE ENERGY PREDICTED BY IDOCK:   -1.56 KCAL/MOL
REMARK 922        TOTAL FREE ENERGY PREDICTED BY IDOCK:   -1.65 KCAL/MOL
REMARK 923 INTER-LIGAND FREE ENERGY PREDICTED BY IDOCK:   -1.65 KCAL/MOL
REMARK 924 INTRA-LIGAND FREE ENERGY PREDICTED BY IDOCK:    0.00 KCAL/MOL
REMARK 927      BINDING AFFINITY PREDICTED BY RF-SCORE:    0.00 PKD
ROOT
HETATM    1  C   UNL     1     -10.816  15.670  65.650  1.00  0.00    -0.336 C  
HETATM    2  C   UNL     1     -10.601  14.355  66.378  1.00  0.00    -0.297 C  
ENDROOT
BRANCH   2   3
HETATM    3  C   UNL     1     -11.902  13.801  66.940  1.00  0.00    -0.413 C  
HETATM    4  O   UNL     1     -12.340  14.608  68.025  1.00  0.00    -0.604 OA 
HETATM    5  H   UNL     1     -13.152  14.263  68.375  1.00  0.00     0.000 HD 
ENDBRANCH   2   3
TORSDOF 1
ENDMDL
MODEL       52
REMARK 921   NORMALIZED FREE ENERGY PREDICTED BY IDOCK:   -1.55 KCAL/MOL
REMARK 922        TOTAL FREE ENERGY PREDICTED BY IDOCK:   -1.64 KCAL/MOL
REMARK 923 INTER-LIGAND FREE ENERGY PREDICTED BY IDOCK:   -1.64 KCAL/MOL
REMARK 924 INTRA-LIGAND FREE ENERGY PREDICTED BY IDOCK:    0.00 KCAL/MOL
REMARK 927      BINDING AFFINITY PREDICTED BY RF-SCORE:    0.00 PKD
ROOT
HETATM    1  C   UNL     1     -10.477   9.147  70.829  1.00  0.00    -0.322 C  
HETATM    2  C   UNL     1     -11.246  10.193  70.042  1.00  0.00    -0.361 C  
ENDROOT
BRANCH   2   3
HETATM    3  C   UNL     1     -11.005  10.063  68.544  1.00  0.00    -0.209 C  
HETATM    4  O   UNL     1     -12.029  10.744  67.832  1.00  0.00    -0.753 OA 
HETATM    5  H   UNL     1     -11.879  10.664  66.898  1.00  0.00     0.000 HD 
ENDBRANCH   2   3
TORSDOF 1
ENDMDL
MODEL       53
REMARK 921   NORMALIZED FREE ENERGY PREDICTED BY IDOCK:   -1.54 KCAL/MOL
REMARK 922        TOTAL FREE ENERGY PREDICTED BY IDOCK:   -1.63 KCAL/MOL
REMARK 923 INTER-LIGAND FREE ENERGY PREDICTED BY IDOCK:   -1.63 KCAL/MOL
REMARK 924 INTRA-LIGAND FREE ENERGY PREDICTED BY IDOCK:    0.00 KCAL/MOL
REMARK 927      BINDING AFFINITY PREDICTED BY RF-SCORE:    0.00 PKD
ROOT
HETATM    1  C   UNL     1      -9.008   9.577  63.827  1.00  0.00    -0.211 C  
HETATM    2  C   UNL     1      -9.811  10.808  64.209  1.00  0.00    -0.384 C  
ENDROOT
BRANCH   2   3
HETATM    3  C   UNL     1     -10.419  11.487  62.990  1.00  0.00    -0.194 C  
HETATM    4  O   UNL     1     -11.821  11.632  63.168  1.00  0.00    -0.844 OA 
HETATM    5  H   UNL     1     -12.200  12.056  62.409  1.00  0.00     0.000 HD 
ENDBRANCH   2   3
TORSDOF 1
ENDMDL
MODEL       54
REMARK 921   NORMALIZED FREE ENERGY PREDICTED BY IDOCK:   -1.54 KCAL/MOL
REMARK 922        TOTAL FREE ENERGY PREDICTED BY IDOCK:   -1.63 KCAL/MOL
REMARK 923 INTER-LIGAND FREE ENERGY PREDICTED BY IDOCK:   -1.63 KCAL/MOL
REMARK 924 INTRA-LIGAND FREE ENERGY PREDICTED BY IDOCK:    0.00 KCAL/MOL
REMARK 927      BINDING AFFINITY PREDICTED BY RF-SCORE:    0.00 PKD
ROOT
HETATM    1  C   UNL     1     -11.822  10.437  71.047  1.00  0.00    -0.458 C  
HETATM    2  C   UNL     1     -12.543   9.587  72.077  1.00  0.00    -0.456 C  
ENDROOT
BRANCH   2   3
HETATM    3  C   UNL     1     -11.785   8.302  72.381  1.00  0.00    -0.397 C  
HETATM    4  O   UNL     1     -10.387   8.554  72.366  1.00  0.00    -0.320 OA 
HETATM    5  H   UNL     1      -9.914   7.753  72.556  1.00  0.00     0.000 HD 
ENDBRANCH   2   3
TORSDOF 1
ENDMDL
MODEL       55
REMARK 921   NORMALIZED FREE ENERGY PREDICTED BY IDOCK:   -1.53 KCAL/MOL
REMARK 922        TOTAL FREE ENERGY PREDICTED BY IDOCK:   -1.62 KCAL/MOL
REMARK 923 INTER-LIGAND FREE ENERGY PREDICTED BY IDOCK:   -1.62 KCAL/MOL
REMARK 924 INTRA-LIGAND FREE ENERGY PREDICTED BY IDOCK:    0.00 KCAL/MOL
REMARK 927      BINDING AFFINITY PREDICTED BY RF-SCORE:    0.00 PKD
ROOT
HETATM    1  C   UNL     1     -12.866   8.557  71.508  1.00  0.00    -0.335 C  
HETATM    2  C   UNL     1     -12.629   7.069  71.694  1.00  0.00    -0.419 C  
ENDROOT
BRANCH   2   3
HETATM    3  C   UNL     1     -11.576   6.538  70.732  1.00  0.00    -0.377 C  
HETATM    4  O   UNL     1     -11.569   7.322  69.546  1.00  0.00    -0.491 OA 
HETATM    5  H   UNL     1     -10.912   6.992  68.946  1.00  0.00     0.000 HD 
ENDBRANCH   2   3
TORSDOF 1
ENDMDL
MODEL       56
REMARK 921   NORMALIZED FREE ENERGY PREDICTED BY IDOCK:   -1.53 KCAL/MOL
REMARK 922        TOTAL FREE ENERGY PREDICTED BY IDOCK:   -1.62 KCAL/MOL
REMARK 923 INTER-LIGAND FREE ENERGY PREDICTED BY IDOCK:   -1.62 KCAL/MOL
REMARK 924 INTRA-LIGAND FREE ENERGY PREDICTED BY IDOCK:    0.00 KCAL/MOL
REMARK 927      BINDING AFFINITY PREDICTED BY RF-SCORE:    0.00 PKD
ROOT
HETATM    1  C   UNL     1     -12.275  13.015  65.941  1.00  0.00    -0.493 C  
HETATM    2  C   UNL     1     -11.446  13.372  67.162  1.00  0.00    -0.373 C  
ENDROOT
BRANCH   2   3
HETATM    3  C   UNL     1     -10.480  14.514  66.876  1.00  0.00    -0.269 C  
HETATM    4  O   UNL     1      -9.523  14.104  65.909  1.00  0.00    -0.484 OA 
HETATM    5  H   UNL     1      -8.921  14.815  65.730  1.00  0.00     0.000 HD 
ENDBRANCH   2   3
TORSDOF 1
ENDMDL
MODEL       57
REMARK 921   NORMALIZED FREE ENERGY PREDICTED BY IDOCK:   -1.52 KCAL/MOL
REMARK 922        TOTAL FREE ENERGY PREDICTED BY IDOCK:   -1.61 KCAL/MOL
REMARK 923 INTER-LIGAND FREE ENERGY PREDICTED BY IDOCK:   -1.61 KCAL/MOL
REMARK 924 INTRA-LIGAND FREE ENERGY PREDICTED BY IDOCK:    0.00 KCAL/MOL
REMARK 927      BINDING AFFINITY PREDICTED BY RF-SCORE:    0.00 PKD
ROOT
HETATM    1  C   UNL     1     -10.957   6.465  67.484  1.00  0.00    -0.454 C  
HETATM    2  C   UNL     1     -10.956   6.176  68.975  1.00  0.00    -0.436 C  
ENDROOT
BRANCH   2   3
HETATM    3  C   UNL     1     -10.683   7.430  69.793  1.00  0.00    -0.241 C  
HETATM    4  O   UNL     1     -11.901   7.931  70.327  1.00  0.00    -0.482 OA 
HETATM    5  H   UNL     1     -11.731   8.713  70.838  1.00  0.00     0.000 HD 
ENDBRANCH   2   3
TORSDOF 1
ENDMDL
MODEL       58
REMARK 921   NORMALIZED FREE ENERGY PREDICTED BY IDOCK:   -1.52 KCAL/MOL
REMARK 922        TOTAL FREE ENERGY PREDICTED BY IDOCK:   -1.61 KCAL/MOL
REMARK 923 INTER-LIGAND FREE ENERGY PREDICTED BY IDOCK:   -1.61 KCAL/MOL
REMARK 924 INTRA-LIGAND FREE ENERGY PREDICTED BY IDOCK:    0.00 KCAL/MOL
REMARK 927      BINDING AFFINITY PREDICTED BY RF-SCORE:    0.00 PKD
ROOT
HETATM    1  C   UNL     1     -10.358   5.202  71.102  1.00  0.00    -0.276 C  
HETATM    2  C   UNL     1     -10.216   5.146  69.592  1.00  0.00    -0.337 C  
ENDROOT
BRANCH   2   3
HETATM    3  C   UNL     1     -11.049   6.218  68.905  1.00  0.00    -0.362 C  
HETATM    4  O   UNL     1     -12.124   6.607  69.749  1.00  0.00    -0.638 OA 
HETATM    5  H   UNL     1     -12.644   7.276  69.321  1.00  0.00     0.000 HD 
ENDBRANCH   2   3
TORSDOF 1
ENDMDL
MODEL       59
REMARK 921   NORMALIZED FREE ENERGY PREDICTED BY IDOCK:   -1.52 KCAL/MOL
REMARK 922        TOTAL FREE ENERGY PREDICTED BY IDOCK:   -1.61 KCAL/MOL
REMARK 923 INTER-LIGAND FREE ENERGY PREDICTED BY IDOCK:   -1.61 KCAL/MOL
REMARK 924 INTRA-LIGAND FREE ENERGY PREDICTED BY IDOCK:    0.00 KCAL/MOL
REMARK 927      BINDING AFFINITY PREDICTED BY RF-SCORE:    0.00 PKD
ROOT
HETATM    1  C   UNL     1      -9.544  16.781  66.765  1.00  0.00    -0.261 C  
HETATM    2  C   UNL     1      -9.008  15.475  66.207  1.00  0.00    -0.362 C  
ENDROOT
BRANCH   2   3
HETATM    3  C   UNL     1     -10.129  14.507  65.856  1.00  0.00    -0.326 C  
HETATM    4  O   UNL     1      -9.934  13.999  64.543  1.00  0.00    -0.663 OA 
HETATM    5  H   UNL     1     -10.633  13.396  64.324  1.00  0.00     0.000 HD 
ENDBRANCH   2   3
TORSDOF 1
ENDMDL
MODEL       60
REMARK 921   NORMALIZED FREE ENERGY PREDICTED BY IDOCK:   -1.52 KCAL/MOL
REMARK 922        TOTAL FREE ENERGY PREDICTED BY IDOCK:   -1.61 KCAL/MOL
REMARK 923 INTER-LIGAND FREE ENERGY PREDICTED BY IDOCK:   -1.61 KCAL/MOL
REMARK 924 INTRA-LIGAND FREE ENERGY PREDICTED BY IDOCK:    0.00 KCAL/MOL
REMARK 927      BINDING AFFINITY PREDICTED BY RF-SCORE:    0.00 PKD
ROOT
HETATM    1  C   UNL     1      -7.580  19.662  68.327  1.00  0.00    -0.351 C  
HETATM    2  C   UNL     1      -8.700  18.664  68.088  1.00  0.00    -0.336 C  
ENDROOT
BRANCH   2   3
HETATM    3  C   UNL     1     -10.052  19.218  68.512  1.00  0.00    -0.430 C  
HETATM    4  O   UNL     1     -10.886  19.377  67.372  1.00  0.00    -0.490 OA 
HETATM    5  H   UNL     1     -11.730  19.722  67.637  1.00  0.00     0.000 HD 
ENDBRANCH   2   3
TORSDOF 1
ENDMDL
MODEL       61
REMARK 921   NORMALIZED FREE ENERGY PREDICTED BY IDOCK:   -1.51 KCAL/MOL
REMARK 922        TOTAL FREE ENERGY PREDICTED BY IDOCK:   -1.59 KCAL/MOL
REMARK 923 INTER-LIGAND FREE ENERGY PREDICTED BY IDOCK:   -1.59 KCAL/MOL
REMARK 924 INTRA-LIGAND FREE ENERGY PREDICTED BY IDOCK:    0.00 KCAL/MOL
REMARK 927      BINDING AFFINITY PREDICTED BY RF-SCORE:    0.00 PKD
ROOT
HETATM    1  C   UNL     1     -12.109   7.196  71.054  1.00  0.00    -0.391 C  
HETATM    2  C   UNL     1     -11.121   6.137  71.511  1.00  0.00    -0.342 C  
ENDROOT
BRANCH   2   3
HETATM    3  C   UNL     1     -10.818   6.251  72.999  1.00  0.00    -0.259 C  
HETATM    4  O   UNL     1     -11.239   7.521  73.479  1.00  0.00    -0.603 OA 
HETATM    5  H   UNL     1     -11.050   7.592  74.407  1.00  0.00     0.000 HD 
ENDBRANCH   2   3
TORSDOF 1
ENDMDL
MODEL       62
REMARK 921   NORMALIZED FREE ENERGY PREDICTED BY IDOCK:   -1.49 KCAL/MOL
REMARK 922        TOTAL FREE ENERGY PREDICTED BY IDOCK:   -1.58 KCAL/MOL
REMARK 923 INTER-LIGAND FREE ENERGY PREDICTED BY IDOCK:   -1.58 KCAL/MOL
REMARK 924 INTRA-LIGAND FREE ENERGY PREDICTED BY IDOCK:    0.00 KCAL/MOL
REMARK 927      BINDING AFFINITY PREDICTED BY RF-SCORE:    0.00 PKD
ROOT
HETATM    1  C   UNL     1     -11.697   8.395  72.411  1.00  0.00    -0.452 C  
HETATM    2  C   UNL     1     -10.694   7.520  73.141  1.00  0.00    -0.452 C  
ENDROOT
BRANCH   2   3
HETATM    3  C   UNL     1      -9.340   8.202  73.274  1.00  0.00    -0.238 C  
HETATM    4  O   UNL     1      -8.779   7.914  74.548  1.00  0.00    -0.437 OA 
HETATM    5  H   UNL     1      -7.934   8.339  74.631  1.00  0.00     0.000 HD 
ENDBRANCH   2   3
TORSDOF 1
ENDMDL
MODEL       63
REMARK 921   NORMALIZED FREE ENERGY PREDICTED BY IDOCK:   -1.48 KCAL/MOL
REMARK 922        TOTAL FREE ENERGY PREDICTED BY IDOCK:   -1.57 KCAL/MOL
REMARK 923 INTER-LIGAND FREE ENERGY PREDICTED BY IDOCK:   -1.57 KCAL/MOL
REMARK 924 INTRA-LIGAND FREE ENERGY PREDICTED BY IDOCK:    0.00 KCAL/MOL
REMARK 927      BINDING AFFINITY PREDICTED BY RF-SCORE:    0.00 PKD
ROOT
HETATM    1  C   UNL     1      -8.079   4.638  64.376  1.00  0.00    -0.106 C  
HETATM    2  C   UNL     1      -9.244   4.244  65.267  1.00  0.00    -0.153 C  
ENDROOT
BRANCH   2   3
HETATM    3  C   UNL     1     -10.494   3.928  64.457  1.00  0.00    -0.207 C  
HETATM    4  O   UNL     1     -11.634   4.490  65.092  1.00  0.00    -1.102 OA 
HETATM    5  H   UNL     1     -12.413   4.294  64.587  1.00  0.00     0.000 HD 
ENDBRANCH   2   3
TORSDOF 1
ENDMDL
MODEL       64
REMARK 921   NORMALIZED FREE ENERGY PREDICTED BY IDOCK:   -1.48 KCAL/MOL
REMARK 922        TOTAL FREE ENERGY PREDICTED BY IDOCK:   -1.56 KCAL/MOL
REMARK 923 INTER-LIGAND FREE ENERGY PREDICTED BY IDOCK:   -1.56 KCAL/MOL
REMARK 924 INTRA-LIGAND FREE ENERGY PREDICTED BY IDOCK:    0.00 KCAL/MOL
REMARK 927      BINDING AFFINITY PREDICTED BY RF-SCORE:    0.00 PKD
ROOT
HETATM    1  C   UNL     1     -10.437   8.909  70.623  1.00  0.00    -0.271 C  
HETATM    2  C   UNL     1     -11.346   7.798  71.119  1.00  0.00    -0.290 C  
ENDROOT
BRANCH   2   3
HETATM    3  C   UNL     1     -11.624   7.918  72.610  1.00  0.00    -0.377 C  
HETATM    4  O   UNL     1     -12.944   8.403  72.817  1.00  0.00    -0.626 OA 
HETATM    5  H   UNL     1     -13.118   8.477  73.747  1.00  0.00     0.000 HD 
ENDBRANCH   2   3
TORSDOF 1
ENDMDL
MODEL       65
REMARK 921   NORMALIZED FREE ENERGY PREDICTED BY IDOCK:   -1.47 KCAL/MOL
REMARK 922        TOTAL FREE ENERGY PREDICTED BY IDOCK:   -1.56 KCAL/MOL
REMARK 923 INTER-LIGAND FREE ENERGY PREDICTED BY IDOCK:   -1.56 KCAL/MOL
REMARK 924 INTRA-LIGAND FREE ENERGY PREDICTED BY IDOCK:    0.00 KCAL/MOL
REMARK 927      BINDING AFFINITY PREDICTED BY RF-SCORE:    0.00 PKD
ROOT
HETATM    1  C   UNL     1     -11.700  12.827  67.422  1.00  0.00    -0.425 C  
HETATM    2  C   UNL     1     -12.028  13.803  68.538  1.00  0.00    -0.402 C  
ENDROOT
BRANCH   2   3
HETATM    3  C   UNL     1     -10.778  14.474  69.088  1.00  0.00    -0.252 C  
HETATM    4  O   UNL     1     -10.815  14.468  70.509  1.00  0.00    -0.476 OA 
HETATM    5  H   UNL     1     -10.035  14.886  70.852  1.00  0.00     0.000 HD 
ENDBRANCH   2   3
TORSDOF 1
ENDMDL
MODEL       66
REMARK 921   NORMALIZED FREE ENERGY PREDICTED BY IDOCK:   -1.47 KCAL/MOL
REMARK 922        TOTAL FREE ENERGY PREDICTED BY IDOCK:   -1.55 KCAL/MOL
REMARK 923 INTER-LIGAND FREE ENERGY PREDICTED BY IDOCK:   -1.55 KCAL/MOL
REMARK 924 INTRA-LIGAND FREE ENERGY PREDICTED BY IDOCK:    0.00 KCAL/MOL
REMARK 927      BINDING AFFINITY PREDICTED BY RF-SCORE:    0.00 PKD
ROOT
HETATM    1  C   UNL     1     -10.306  16.394  65.910  1.00  0.00    -0.378 C  
HETATM    2  C   UNL     1     -10.101  17.603  66.806  1.00  0.00    -0.334 C  
ENDROOT
BRANCH   2   3
HETATM    3  C   UNL     1     -10.389  17.279  68.266  1.00  0.00    -0.361 C  
HETATM    4  O   UNL     1     -10.397  18.476  69.032  1.00  0.00    -0.478 OA 
HETATM    5  H   UNL     1     -10.576  18.275  69.942  1.00  0.00     0.000 HD 
ENDBRANCH   2   3
TORSDOF 1
ENDMDL
MODEL       67
REMARK 921   NORMALIZED FREE ENERGY PREDICTED BY IDOCK:   -1.45 KCAL/MOL
REMARK 922        TOTAL FREE ENERGY PREDICTED BY IDOCK:   -1.53 KCAL/MOL
REMARK 923 INTER-LIGAND FREE ENERGY PREDICTED BY IDOCK:   -1.53 KCAL/MOL
REMARK 924 INTRA-LIGAND FREE ENERGY PREDICTED BY IDOCK:    0.00 KCAL/MOL
REMARK 927      BINDING AFFINITY PREDICTED BY RF-SCORE:    0.00 PKD
ROOT
HETATM    1  C   UNL     1     -10.683  14.778  66.446  1.00  0.00    -0.313 C  
HETATM    2  C   UNL     1     -10.611  16.205  66.961  1.00  0.00    -0.292 C  
ENDROOT
BRANCH   2   3
HETATM    3  C   UNL     1     -11.054  16.304  68.414  1.00  0.00    -0.362 C  
HETATM    4  O   UNL     1     -12.256  15.569  68.602  1.00  0.00    -0.567 OA 
HETATM    5  H   UNL     1     -12.531  15.631  69.509  1.00  0.00     0.000 HD 
ENDBRANCH   2   3
TORSDOF 1
ENDMDL
MODEL       68
REMARK 921   NORMALIZED FREE ENERGY PREDICTED BY IDOCK:   -1.44 KCAL/MOL
REMARK 922        TOTAL FREE ENERGY PREDICTED BY IDOCK:   -1.52 KCAL/MOL
REMARK 923 INTER-LIGAND FREE ENERGY PREDICTED BY IDOCK:   -1.52 KCAL/MOL
REMARK 924 INTRA-LIGAND FREE ENERGY PREDICTED BY IDOCK:    0.00 KCAL/MOL
REMARK 927      BINDING AFFINITY PREDICTED BY RF-SCORE:    0.00 PKD
ROOT
HETATM    1  C   UNL     1     -10.644  16.163  66.478  1.00  0.00    -0.268 C  
HETATM    2  C   UNL     1     -10.411  15.875  67.950  1.00  0.00    -0.288 C  
ENDROOT
BRANCH   2   3
HETATM    3  C   UNL     1     -11.719  15.800  68.726  1.00  0.00    -0.378 C  
HETATM    4  O   UNL     1     -12.485  14.693  68.270  1.00  0.00    -0.589 OA 
HETATM    5  H   UNL     1     -13.300  14.645  68.754  1.00  0.00     0.000 HD 
ENDBRANCH   2   3
TORSDOF 1
ENDMDL
MODEL       69
REMARK 921   NORMALIZED FREE ENERGY PREDICTED BY IDOCK:   -1.44 KCAL/MOL
REMARK 922        TOTAL FREE ENERGY PREDICTED BY IDOCK:   -1.52 KCAL/MOL
REMARK 923 INTER-LIGAND FREE ENERGY PREDICTED BY IDOCK:   -1.52 KCAL/MOL
REMARK 924 INTRA-LIGAND FREE ENERGY PREDICTED BY IDOCK:    0.00 KCAL/MOL
REMARK 927      BINDING AFFINITY PREDICTED BY RF-SCORE:    0.00 PKD
ROOT
HETATM    1  C   UNL     1     -10.662   5.744  69.856  1.00  0.00    -0.412 C  
HETATM    2  C   UNL     1     -11.706   6.617  70.529  1.00  0.00    -0.453 C  
ENDROOT
BRANCH   2   3
HETATM    3  C   UNL     1     -11.191   8.029  70.772  1.00  0.00    -0.265 C  
HETATM    4  O   UNL     1     -11.830   8.934  69.881  1.00  0.00    -0.391 OA 
HETATM    5  H   UNL     1     -11.509   9.814  70.033  1.00  0.00     0.000 HD 
ENDBRANCH   2   3
TORSDOF 1
ENDMDL
MODEL       70
REMARK 921   NORMALIZED FREE ENERGY PREDICTED BY IDOCK:   -1.44 KCAL/MOL
REMARK 922        TOTAL FREE ENERGY PREDICTED BY IDOCK:   -1.52 KCAL/MOL
REMARK 923 INTER-LIGAND FREE ENERGY PREDICTED BY IDOCK:   -1.52 KCAL/MOL
REMARK 924 INTRA-LIGAND FREE ENERGY PREDICTED BY IDOCK:    0.00 KCAL/MOL
REMARK 927      BINDING AFFINITY PREDICTED BY RF-SCORE:    0.00 PKD
ROOT
HETATM    1  C   UNL     1     -10.457  11.451  63.446  1.00  0.00    -0.452 C  
HETATM    2  C   UNL     1     -11.180  12.133  64.594  1.00  0.00    -0.374 C  
ENDROOT
BRANCH   2   3
HETATM    3  C   UNL     1     -10.208  12.670  65.635  1.00  0.00    -0.273 C  
HETATM    4  O   UNL     1      -8.950  12.024  65.498  1.00  0.00    -0.421 OA 
HETATM    5  H   UNL     1      -8.344  12.358  66.147  1.00  0.00     0.000 HD 
ENDBRANCH   2   3
TORSDOF 1
ENDMDL
MODEL       71
REMARK 921   NORMALIZED FREE ENERGY PREDICTED BY IDOCK:   -1.43 KCAL/MOL
REMARK 922        TOTAL FREE ENERGY PREDICTED BY IDOCK:   -1.51 KCAL/MOL
REMARK 923 INTER-LIGAND FREE ENERGY PREDICTED BY IDOCK:   -1.51 KCAL/MOL
REMARK 924 INTRA-LIGAND FREE ENERGY PREDICTED BY IDOCK:    0.00 KCAL/MOL
REMARK 927      BINDING AFFINITY PREDICTED BY RF-SCORE:    0.00 PKD
ROOT
HETATM    1  C   UNL     1     -12.218  11.505  70.462  1.00  0.00    -0.469 C  
HETATM    2  C   UNL     1     -11.886  11.217  69.009  1.00  0.00    -0.418 C  
ENDROOT
BRANCH   2   3
HETATM    3  C   UNL     1     -10.391  11.317  68.740  1.00  0.00    -0.205 C  
HETATM    4  O   UNL     1      -9.972  12.670  68.853  1.00  0.00    -0.417 OA 
HETATM    5  H   UNL     1      -9.039  12.733  68.685  1.00  0.00     0.000 HD 
ENDBRANCH   2   3
TORSDOF 1
ENDMDL
MODEL       72
REMARK 921   NORMALIZED FREE ENERGY PREDICTED BY IDOCK:   -1.41 KCAL/MOL
REMARK 922        TOTAL FREE ENERGY PREDICTED BY IDOCK:   -1.49 KCAL/MOL
REMARK 923 INTER-LIGAND FREE ENERGY PREDICTED BY IDOCK:   -1.49 KCAL/MOL
REMARK 924 INTRA-LIGAND FREE ENERGY PREDICTED BY IDOCK:    0.00 KCAL/MOL
REMARK 927      BINDING AFFINITY PREDICTED BY RF-SCORE:    0.00 PKD
ROOT
HETATM    1  C   UNL     1     -10.427   5.915  69.215  1.00  0.00    -0.342 C  
HETATM    2  C   UNL     1     -11.510   6.418  70.152  1.00  0.00    -0.484 C  
ENDROOT
BRANCH   2   3
HETATM    3  C   UNL     1     -10.925   6.984  71.439  1.00  0.00    -0.240 C  
HETATM    4  O   UNL     1     -11.971   7.260  72.361  1.00  0.00    -0.425 OA 
HETATM    5  H   UNL     1     -11.606   7.613  73.164  1.00  0.00     0.000 HD 
ENDBRANCH   2   3
TORSDOF 1
ENDMDL
MODEL       73
REMARK 921   NORMALIZED FREE ENERGY PREDICTED BY IDOCK:   -1.38 KCAL/MOL
REMARK 922        TOTAL FREE ENERGY PREDICTED BY IDOCK:   -1.46 KCAL/MOL
REMARK 923 INTER-LIGAND FREE ENERGY PREDICTED BY IDOCK:   -1.46 KCAL/MOL
REMARK 924 INTRA-LIGAND FREE ENERGY PREDICTED BY IDOCK:    0.00 KCAL/MOL
REMARK 927      BINDING AFFINITY PREDICTED BY RF-SCORE:    0.00 PKD
ROOT
HETATM    1  C   UNL     1     -11.006   6.319  67.647  1.00  0.00    -0.438 C  
HETATM    2  C   UNL     1      -9.950   7.115  66.900  1.00  0.00    -0.293 C  
ENDROOT
BRANCH   2   3
HETATM    3  C   UNL     1     -10.309   8.591  66.815  1.00  0.00    -0.276 C  
HETATM    4  O   UNL     1      -9.904   9.114  65.557  1.00  0.00    -0.455 OA 
HETATM    5  H   UNL     1     -10.128  10.035  65.504  1.00  0.00     0.000 HD 
ENDBRANCH   2   3
TORSDOF 1
ENDMDL
MODEL       74
REMARK 921   NORMALIZED FREE ENERGY PREDICTED BY IDOCK:   -1.37 KCAL/MOL
REMARK 922        TOTAL FREE ENERGY PREDICTED BY IDOCK:   -1.45 KCAL/MOL
REMARK 923 INTER-LIGAND FREE ENERGY PREDICTED BY IDOCK:   -1.45 KCAL/MOL
REMARK 924 INTRA-LIGAND FREE ENERGY PREDICTED BY IDOCK:    0.00 KCAL/MOL
REMARK 927      BINDING AFFINITY PREDICTED BY RF-SCORE:    0.00 PKD
ROOT
HETATM    1  C   UNL     1      -6.399  20.636  68.112  1.00  0.00    -0.353 C  
HETATM    2  C   UNL     1      -7.246  19.398  67.880  1.00  0.00    -0.291 C  
ENDROOT
BRANCH   2   3
HETATM    3  C   UNL     1      -7.975  19.453  66.545  1.00  0.00    -0.298 C  
HETATM    4  O   UNL     1      -7.607  18.334  65.749  1.00  0.00    -0.509 OA 
HETATM    5  H   UNL     1      -8.062  18.368  64.917  1.00  0.00     0.000 HD 
ENDBRANCH   2   3
TORSDOF 1
ENDMDL
MODEL       75
REMARK 921   NORMALIZED FREE ENERGY PREDICTED BY IDOCK:   -1.31 KCAL/MOL
REMARK 922        TOTAL FREE ENERGY PREDICTED BY IDOCK:   -1.39 KCAL/MOL
REMARK 923 INTER-LIGAND FREE ENERGY PREDICTED BY IDOCK:   -1.39 KCAL/MOL
REMARK 924 INTRA-LIGAND FREE ENERGY PREDICTED BY IDOCK:    0.00 KCAL/MOL
REMARK 927      BINDING AFFINITY PREDICTED BY RF-SCORE:    0.00 PKD
ROOT
HETATM    1  C   UNL     1     -11.709  15.564  68.966  1.00  0.00    -0.392 C  
HETATM    2  C   UNL     1     -10.576  16.487  68.553  1.00  0.00    -0.318 C  
ENDROOT
BRANCH   2   3
HETATM    3  C   UNL     1      -9.214  15.848  68.785  1.00  0.00    -0.218 C  
HETATM    4  O   UNL     1      -9.274  14.982  69.910  1.00  0.00    -0.460 OA 
HETATM    5  H   UNL     1      -8.424  14.584  70.054  1.00  0.00     0.000 HD 
ENDBRANCH   2   3
TORSDOF 1
ENDMDL
MODEL       76
REMARK 921   NORMALIZED FREE ENERGY PREDICTED BY IDOCK:   -1.31 KCAL/MOL
REMARK 922        TOTAL FREE ENERGY PREDICTED BY IDOCK:   -1.39 KCAL/MOL
REMARK 923 INTER-LIGAND FREE ENERGY PREDICTED BY IDOCK:   -1.39 KCAL/MOL
REMARK 924 INTRA-LIGAND FREE ENERGY PREDICTED BY IDOCK:    0.00 KCAL/MOL
REMARK 927      BINDING AFFINITY PREDICTED BY RF-SCORE:    0.00 PKD
ROOT
HETATM    1  C   UNL     1      -5.646  19.939  71.239  1.00  0.00    -0.357 C  
HETATM    2  C   UNL     1      -6.149  20.238  69.838  1.00  0.00    -0.380 C  
ENDROOT
BRANCH   2   3
HETATM    3  C   UNL     1      -6.667  18.987  69.143  1.00  0.00    -0.304 C  
HETATM    4  O   UNL     1      -8.013  19.187  68.733  1.00  0.00    -0.345 OA 
HETATM    5  H   UNL     1      -8.337  18.407  68.300  1.00  0.00     0.000 HD 
ENDBRANCH   2   3
TORSDOF 1
ENDMDL
MODEL       77
REMARK 921   NORMALIZED FREE ENERGY PREDICTED BY IDOCK:   -1.29 KCAL/MOL
REMARK 922        TOTAL FREE ENERGY PREDICTED BY IDOCK:   -1.37 KCAL/MOL
REMARK 923 INTER-LIGAND FREE ENERGY PREDICTED BY IDOCK:   -1.37 KCAL/MOL
REMARK 924 INTRA-LIGAND FREE ENERGY PREDICTED BY IDOCK:    0.00 KCAL/MOL
REMARK 927      BINDING AFFINITY PREDICTED BY RF-SCORE:    0.00 PKD
ROOT
HETATM    1  C   UNL     1     -11.708  12.638  69.535  1.00  0.00    -0.374 C  
HETATM    2  C   UNL     1     -11.546  12.234  68.080  1.00  0.00    -0.408 C  
ENDROOT
BRANCH   2   3
HETATM    3  C   UNL     1     -10.093  11.948  67.731  1.00  0.00    -0.191 C  
HETATM    4  O   UNL     1      -9.302  11.963  68.911  1.00  0.00    -0.398 OA 
HETATM    5  H   UNL     1      -8.395  11.784  68.694  1.00  0.00     0.000 HD 
ENDBRANCH   2   3
TORSDOF 1
ENDMDL
MODEL       78
REMARK 921   NORMALIZED FREE ENERGY PREDICTED BY IDOCK:   -1.29 KCAL/MOL
REMARK 922        TOTAL FREE ENERGY PREDICTED BY IDOCK:   -1.37 KCAL/MOL
REMARK 923 INTER-LIGAND FREE ENERGY PREDICTED BY IDOCK:   -1.37 KCAL/MOL
REMARK 924 INTRA-LIGAND FREE ENERGY PREDICTED BY IDOCK:    0.00 KCAL/MOL
REMARK 927      BINDING AFFINITY PREDICTED BY RF-SCORE:    0.00 PKD
ROOT
HETATM    1  C   UNL     1      -9.337  10.117  63.182  1.00  0.00    -0.333 C  
HETATM    2  C   UNL     1      -9.633  11.035  64.355  1.00  0.00    -0.301 C  
ENDROOT
BRANCH   2   3
HETATM    3  C   UNL     1      -9.961  10.253  65.618  1.00  0.00    -0.280 C  
HETATM    4  O   UNL     1      -9.783   8.862  65.382  1.00  0.00    -0.455 OA 
HETATM    5  H   UNL     1      -9.987   8.374  66.170  1.00  0.00     0.000 HD 
ENDBRANCH   2   3
TORSDOF 1
ENDMDL
MODEL       79
REMARK 921   NORMALIZED FREE ENERGY PREDICTED BY IDOCK:   -1.29 KCAL/MOL
REMARK 922        TOTAL FREE ENERGY PREDICTED BY IDOCK:   -1.36 KCAL/MOL
REMARK 923 INTER-LIGAND FREE ENERGY PREDICTED BY IDOCK:   -1.36 KCAL/MOL
REMARK 924 INTRA-LIGAND FREE ENERGY PREDICTED BY IDOCK:    0.00 KCAL/MOL
REMARK 927      BINDING AFFINITY PREDICTED BY RF-SCORE:    0.00 PKD
ROOT
HETATM    1  C   UNL     1     -10.358   5.291  70.573  1.00  0.00    -0.336 C  
HETATM    2  C   UNL     1     -10.238   4.619  71.929  1.00  0.00    -0.254 C  
ENDROOT
BRANCH   2   3
HETATM    3  C   UNL     1     -11.076   5.325  72.986  1.00  0.00    -0.317 C  
HETATM    4  O   UNL     1     -11.960   6.246  72.363  1.00  0.00    -0.457 OA 
HETATM    5  H   UNL     1     -12.483   6.686  73.022  1.00  0.00     0.000 HD 
ENDBRANCH   2   3
TORSDOF 1
ENDMDL
MODEL       80
REMARK 921   NORMALIZED FREE ENERGY PREDICTED BY IDOCK:   -1.29 KCAL/MOL
REMARK 922        TOTAL FREE ENERGY PREDICTED BY IDOCK:   -1.36 KCAL/MOL
REMARK 923 INTER-LIGAND FREE ENERGY PREDICTED BY IDOCK:   -1.36 KCAL/MOL
REMARK 924 INTRA-LIGAND FREE ENERGY PREDICTED BY IDOCK:    0.00 KCAL/MOL
REMARK 927      BINDING AFFINITY PREDICTED BY RF-SCORE:    0.00 PKD
ROOT
HETATM    1  C   UNL     1     -10.962   6.489  67.388  1.00  0.00    -0.458 C  
HETATM    2  C   UNL     1      -9.871   7.524  67.177  1.00  0.00    -0.263 C  
ENDROOT
BRANCH   2   3
HETATM    3  C   UNL     1      -9.887   8.591  68.262  1.00  0.00    -0.169 C  
HETATM    4  O   UNL     1     -11.172   9.197  68.323  1.00  0.00    -0.471 OA 
HETATM    5  H   UNL     1     -11.182   9.863  68.999  1.00  0.00     0.000 HD 
ENDBRANCH   2   3
TORSDOF 1
ENDMDL
MODEL       81
REMARK 921   NORMALIZED FREE ENERGY PREDICTED BY IDOCK:   -1.28 KCAL/MOL
REMARK 922        TOTAL FREE ENERGY PREDICTED BY IDOCK:   -1.35 KCAL/MOL
REMARK 923 INTER-LIGAND FREE ENERGY PREDICTED BY IDOCK:   -1.35 KCAL/MOL
REMARK 924 INTRA-LIGAND FREE ENERGY PREDICTED BY IDOCK:    0.00 KCAL/MOL
REMARK 927      BINDING AFFINITY PREDICTED BY RF-SCORE:    0.00 PKD
ROOT
HETATM    1  C   UNL     1     -11.097  12.048  64.345  1.00  0.00    -0.399 C  
HETATM    2  C   UNL     1     -10.513  11.521  65.644  1.00  0.00    -0.317 C  
ENDROOT
BRANCH   2   3
HETATM    3  C   UNL     1     -10.719  12.498  66.794  1.00  0.00    -0.236 C  
HETATM    4  O   UNL     1     -12.061  12.967  66.792  1.00  0.00    -0.399 OA 
HETATM    5  H   UNL     1     -12.189  13.575  67.509  1.00  0.00     0.000 HD 
ENDBRANCH   2   3
TORSDOF 1
ENDMDL
MODEL       82
REMARK 921   NORMALIZED FREE ENERGY PREDICTED BY IDOCK:   -1.27 KCAL/MOL
REMARK 922        TOTAL FREE ENERGY PREDICTED BY IDOCK:   -1.34 KCAL/MOL
REMARK 923 INTER-LIGAND FREE ENERGY PREDICTED BY IDOCK:   -1.34 KCAL/MOL
REMARK 924 INTRA-LIGAND FREE ENERGY PREDICTED BY IDOCK:    0.00 KCAL/MOL
REMARK 927      BINDING AFFINITY PREDICTED BY RF-SCORE:    0.00 PKD
ROOT
HETATM    1  C   UNL     1      -9.701   8.971  66.783  1.00  0.00    -0.279 C  
HETATM    2  C   UNL     1     -10.028   7.544  67.185  1.00  0.00    -0.288 C  
ENDROOT
BRANCH   2   3
HETATM    3  C   UNL     1     -10.434   7.447  68.649  1.00  0.00    -0.189 C  
HETATM    4  O   UNL     1     -11.601   6.646  68.773  1.00  0.00    -0.587 OA 
HETATM    5  H   UNL     1     -11.853   6.585  69.686  1.00  0.00     0.000 HD 
ENDBRANCH   2   3
TORSDOF 1
ENDMDL
MODEL       83
REMARK 921   NORMALIZED FREE ENERGY PREDICTED BY IDOCK:   -1.27 KCAL/MOL
REMARK 922        TOTAL FREE ENERGY PREDICTED BY IDOCK:   -1.34 KCAL/MOL
REMARK 923 INTER-LIGAND FREE ENERGY PREDICTED BY IDOCK:   -1.34 KCAL/MOL
REMARK 924 INTRA-LIGAND FREE ENERGY PREDICTED BY IDOCK:    0.00 KCAL/MOL
REMARK 927      BINDING AFFINITY PREDICTED BY RF-SCORE:    0.00 PKD
ROOT
HETATM    1  C   UNL     1      -7.591  18.556  67.802  1.00  0.00    -0.243 C  
HETATM    2  C   UNL     1      -7.792  17.961  66.420  1.00  0.00    -0.307 C  
ENDROOT
BRANCH   2   3
HETATM    3  C   UNL     1      -8.390  16.563  66.487  1.00  0.00    -0.292 C  
HETATM    4  O   UNL     1      -9.508  16.476  65.614  1.00  0.00    -0.497 OA 
HETATM    5  H   UNL     1      -9.881  15.604  65.655  1.00  0.00     0.000 HD 
ENDBRANCH   2   3
TORSDOF 1
ENDMDL
MODEL       84
REMARK 921   NORMALIZED FREE ENERGY PREDICTED BY IDOCK:   -1.26 KCAL/MOL
REMARK 922        TOTAL FREE ENERGY PREDICTED BY IDOCK:   -1.34 KCAL/MOL
REMARK 923 INTER-LIGAND FREE ENERGY PREDICTED BY IDOCK:   -1.34 KCAL/MOL
REMARK 924 INTRA-LIGAND FREE ENERGY PREDICTED BY IDOCK:    0.00 KCAL/MOL
REMARK 927      BINDING AFFINITY PREDICTED BY RF-SCORE:    0.00 PKD
ROOT
HETATM    1  C   UNL     1      -9.064   6.088  73.682  1.00  0.00    -0.127 C  
HETATM    2  C   UNL     1     -10.337   6.782  74.134  1.00  0.00    -0.322 C  
ENDROOT
BRANCH   2   3
HETATM    3  C   UNL     1     -10.942   7.632  73.026  1.00  0.00    -0.400 C  
HETATM    4  O   UNL     1     -12.147   7.035  72.565  1.00  0.00    -0.488 OA 
HETATM    5  H   UNL     1     -12.525   7.565  71.874  1.00  0.00     0.000 HD 
ENDBRANCH   2   3
TORSDOF 1
ENDMDL
MODEL       85
REMARK 921   NORMALIZED FREE ENERGY PREDICTED BY IDOCK:   -1.24 KCAL/MOL
REMARK 922        TOTAL FREE ENERGY PREDICTED BY IDOCK:   -1.31 KCAL/MOL
REMARK 923 INTER-LIGAND FREE ENERGY PREDICTED BY IDOCK:   -1.31 KCAL/MOL
REMARK 924 INTRA-LIGAND FREE ENERGY PREDICTED BY IDOCK:    0.00 KCAL/MOL
REMARK 927      BINDING AFFINITY PREDICTED BY RF-SCORE:    0.00 PKD
ROOT
HETATM    1  C   UNL     1      -9.563  16.406  68.887  1.00  0.00    -0.252 C  
HETATM    2  C   UNL     1      -8.847  17.280  67.873  1.00  0.00    -0.235 C  
ENDROOT
BRANCH   2   3
HETATM    3  C   UNL     1      -8.606  16.544  66.563  1.00  0.00    -0.286 C  
HETATM    4  O   UNL     1      -9.672  16.807  65.660  1.00  0.00    -0.539 OA 
HETATM    5  H   UNL     1      -9.522  16.348  64.842  1.00  0.00     0.000 HD 
ENDBRANCH   2   3
TORSDOF 1
ENDMDL
MODEL       86
REMARK 921   NORMALIZED FREE ENERGY PREDICTED BY IDOCK:   -1.23 KCAL/MOL
REMARK 922        TOTAL FREE ENERGY PREDICTED BY IDOCK:   -1.30 KCAL/MOL
REMARK 923 INTER-LIGAND FREE ENERGY PREDICTED BY IDOCK:   -1.30 KCAL/MOL
REMARK 924 INTRA-LIGAND FREE ENERGY PREDICTED BY IDOCK:    0.00 KCAL/MOL
REMARK 927      BINDING AFFINITY PREDICTED BY RF-SCORE:    0.00 PKD
ROOT
HETATM    1  C   UNL     1      -9.210  10.822  66.299  1.00  0.00    -0.195 C  
HETATM    2  C   UNL     1      -9.879   9.539  65.838  1.00  0.00    -0.360 C  
ENDROOT
BRANCH   2   3
HETATM    3  C   UNL     1     -10.314   8.675  67.013  1.00  0.00    -0.298 C  
HETATM    4  O   UNL     1     -11.312   9.351  67.765  1.00  0.00    -0.446 OA 
HETATM    5  H   UNL     1     -11.583   8.812  68.498  1.00  0.00     0.000 HD 
ENDBRANCH   2   3
TORSDOF 1
ENDMDL
MODEL       87
REMARK 921   NORMALIZED FREE ENERGY PREDICTED BY IDOCK:   -1.22 KCAL/MOL
REMARK 922        TOTAL FREE ENERGY PREDICTED BY IDOCK:   -1.29 KCAL/MOL
REMARK 923 INTER-LIGAND FREE ENERGY PREDICTED BY IDOCK:   -1.29 KCAL/MOL
REMARK 924 INTRA-LIGAND FREE ENERGY PREDICTED BY IDOCK:    0.00 KCAL/MOL
REMARK 927      BINDING AFFINITY PREDICTED BY RF-SCORE:    0.00 PKD
ROOT
HETATM    1  C   UNL     1     -11.266   5.146  73.081  1.00  0.00    -0.398 C  
HETATM    2  C   UNL     1     -11.723   6.285  72.188  1.00  0.00    -0.368 C  
ENDROOT
BRANCH   2   3
HETATM    3  C   UNL     1     -11.143   6.173  70.786  1.00  0.00    -0.309 C  
HETATM    4  O   UNL     1     -10.655   7.439  70.363  1.00  0.00    -0.218 OA 
HETATM    5  H   UNL     1     -10.293   7.369  69.489  1.00  0.00     0.000 HD 
ENDBRANCH   2   3
TORSDOF 1
ENDMDL
MODEL       88
REMARK 921   NORMALIZED FREE ENERGY PREDICTED BY IDOCK:   -1.19 KCAL/MOL
REMARK 922        TOTAL FREE ENERGY PREDICTED BY IDOCK:   -1.26 KCAL/MOL
REMARK 923 INTER-LIGAND FREE ENERGY PREDICTED BY IDOCK:   -1.26 KCAL/MOL
REMARK 924 INTRA-LIGAND FREE ENERGY PREDICTED BY IDOCK:    0.00 KCAL/MOL
REMARK 927      BINDING AFFINITY PREDICTED BY RF-SCORE:    0.00 PKD
ROOT
HETATM    1  C   UNL     1      -9.041  15.437  69.161  1.00  0.00    -0.243 C  
HETATM    2  C   UNL     1      -9.180  16.638  68.243  1.00  0.00    -0.217 C  
ENDROOT
BRANCH   2   3
HETATM    3  C   UNL     1     -10.231  17.617  68.746  1.00  0.00    -0.373 C  
HETATM    4  O   UNL     1     -10.705  18.411  67.667  1.00  0.00    -0.423 OA 
HETATM    5  H   UNL     1     -11.362  19.021  67.980  1.00  0.00     0.000 HD 
ENDBRANCH   2   3
TORSDOF 1
ENDMDL
MODEL       89
REMARK 921   NORMALIZED FREE ENERGY PREDICTED BY IDOCK:   -1.15 KCAL/MOL
REMARK 922        TOTAL FREE ENERGY PREDICTED BY IDOCK:   -1.21 KCAL/MOL
REMARK 923 INTER-LIGAND FREE ENERGY PREDICTED BY IDOCK:   -1.21 KCAL/MOL
REMARK 924 INTRA-LIGAND FREE ENERGY PREDICTED BY IDOCK:    0.00 KCAL/MOL
REMARK 927      BINDING AFFINITY PREDICTED BY RF-SCORE:    0.00 PKD
ROOT
HETATM    1  C   UNL     1     -10.856   5.876  70.838  1.00  0.00    -0.347 C  
HETATM    2  C   UNL     1     -11.163   6.228  69.393  1.00  0.00    -0.489 C  
ENDROOT
BRANCH   2   3
HETATM    3  C   UNL     1     -10.325   7.402  68.907  1.00  0.00    -0.206 C  
HETATM    4  O   UNL     1      -9.682   8.024  70.011  1.00  0.00    -0.172 OA 
HETATM    5  H   UNL     1      -9.159   8.756  69.708  1.00  0.00     0.000 HD 
ENDBRANCH   2   3
TORSDOF 1
ENDMDL
MODEL       90
REMARK 921   NORMALIZED FREE ENERGY PREDICTED BY IDOCK:   -1.14 KCAL/MOL
REMARK 922        TOTAL FREE ENERGY PREDICTED BY IDOCK:   -1.21 KCAL/MOL
REMARK 923 INTER-LIGAND FREE ENERGY PREDICTED BY IDOCK:   -1.21 KCAL/MOL
REMARK 924 INTRA-LIGAND FREE ENERGY PREDICTED BY IDOCK:    0.00 KCAL/MOL
REMARK 927      BINDING AFFINITY PREDICTED BY RF-SCORE:    0.00 PKD
ROOT
HETATM    1  C   UNL     1      -9.789   8.232  69.255  1.00  0.00    -0.186 C  
HETATM    2  C   UNL     1     -10.927   8.315  70.256  1.00  0.00    -0.233 C  
ENDROOT
BRANCH   2   3
HETATM    3  C   UNL     1     -10.737   9.464  71.235  1.00  0.00    -0.350 C  
HETATM    4  O   UNL     1     -10.790  10.702  70.540  1.00  0.00    -0.436 OA 
HETATM    5  H   UNL     1     -10.672  11.420  71.151  1.00  0.00     0.000 HD 
ENDBRANCH   2   3
TORSDOF 1
ENDMDL
MODEL       91
REMARK 921   NORMALIZED FREE ENERGY PREDICTED BY IDOCK:   -1.12 KCAL/MOL
REMARK 922        TOTAL FREE ENERGY PREDICTED BY IDOCK:   -1.19 KCAL/MOL
REMARK 923 INTER-LIGAND FREE ENERGY PREDICTED BY IDOCK:   -1.19 KCAL/MOL
REMARK 924 INTRA-LIGAND FREE ENERGY PREDICTED BY IDOCK:    0.00 KCAL/MOL
REMARK 927      BINDING AFFINITY PREDICTED BY RF-SCORE:    0.00 PKD
ROOT
HETATM    1  C   UNL     1      -8.527   3.279  65.025  1.00  0.00    -0.099 C  
HETATM    2  C   UNL     1      -9.906   3.906  64.914  1.00  0.00    -0.197 C  
ENDROOT
BRANCH   2   3
HETATM    3  C   UNL     1     -10.579   3.560  63.593  1.00  0.00    -0.272 C  
HETATM    4  O   UNL     1     -11.394   2.408  63.755  1.00  0.00    -0.623 OA 
HETATM    5  H   UNL     1     -11.814   2.193  62.931  1.00  0.00     0.000 HD 
ENDBRANCH   2   3
TORSDOF 1
ENDMDL
MODEL       92
REMARK 921   NORMALIZED FREE ENERGY PREDICTED BY IDOCK:   -1.11 KCAL/MOL
REMARK 922        TOTAL FREE ENERGY PREDICTED BY IDOCK:   -1.18 KCAL/MOL
REMARK 923 INTER-LIGAND FREE ENERGY PREDICTED BY IDOCK:   -1.18 KCAL/MOL
REMARK 924 INTRA-LIGAND FREE ENERGY PREDICTED BY IDOCK:    0.00 KCAL/MOL
REMARK 927      BINDING AFFINITY PREDICTED BY RF-SCORE:    0.00 PKD
ROOT
HETATM    1  C   UNL     1      -8.063   9.829  69.840  1.00  0.00    -0.192 C  
HETATM    2  C   UNL     1      -9.463   9.542  70.353  1.00  0.00    -0.317 C  
ENDROOT
BRANCH   2   3
HETATM    3  C   UNL     1     -10.295   8.780  69.331  1.00  0.00    -0.214 C  
HETATM    4  O   UNL     1     -11.610   8.584  69.831  1.00  0.00    -0.452 OA 
HETATM    5  H   UNL     1     -12.129   8.109  69.193  1.00  0.00     0.000 HD 
ENDBRANCH   2   3
TORSDOF 1
ENDMDL
MODEL       93
REMARK 921   NORMALIZED FREE ENERGY PREDICTED BY IDOCK:   -1.07 KCAL/MOL
REMARK 922        TOTAL FREE ENERGY PREDICTED BY IDOCK:   -1.13 KCAL/MOL
REMARK 923 INTER-LIGAND FREE ENERGY PREDICTED BY IDOCK:   -1.13 KCAL/MOL
REMARK 924 INTRA-LIGAND FREE ENERGY PREDICTED BY IDOCK:    0.00 KCAL/MOL
REMARK 927      BINDING AFFINITY PREDICTED BY RF-SCORE:    0.00 PKD
ROOT
HETATM    1  C   UNL     1     -10.958  11.833  67.965  1.00  0.00    -0.274 C  
HETATM    2  C   UNL     1     -10.577  11.394  66.563  1.00  0.00    -0.309 C  
ENDROOT
BRANCH   2   3
HETATM    3  C   UNL     1      -9.167  10.823  66.512  1.00  0.00    -0.168 C  
HETATM    4  O   UNL     1      -8.274  11.791  65.977  1.00  0.00    -0.378 OA 
HETATM    5  H   UNL     1      -7.395  11.435  65.946  1.00  0.00     0.000 HD 
ENDBRANCH   2   3
TORSDOF 1
ENDMDL
MODEL       94
REMARK 921   NORMALIZED FREE ENERGY PREDICTED BY IDOCK:   -1.06 KCAL/MOL
REMARK 922        TOTAL FREE ENERGY PREDICTED BY IDOCK:   -1.12 KCAL/MOL
REMARK 923 INTER-LIGAND FREE ENERGY PREDICTED BY IDOCK:   -1.12 KCAL/MOL
REMARK 924 INTRA-LIGAND FREE ENERGY PREDICTED BY IDOCK:    0.00 KCAL/MOL
REMARK 927      BINDING AFFINITY PREDICTED BY RF-SCORE:    0.00 PKD
ROOT
HETATM    1  C   UNL     1      -8.995  18.132  67.068  1.00  0.00    -0.263 C  
HETATM    2  C   UNL     1      -8.236  17.080  66.278  1.00  0.00    -0.322 C  
ENDROOT
BRANCH   2   3
HETATM    3  C   UNL     1      -7.484  16.121  67.190  1.00  0.00    -0.212 C  
HETATM    4  O   UNL     1      -6.090  16.198  66.924  1.00  0.00    -0.321 OA 
HETATM    5  H   UNL     1      -5.621  15.600  67.493  1.00  0.00     0.000 HD 
ENDBRANCH   2   3
TORSDOF 1
ENDMDL
MODEL       95
REMARK 921   NORMALIZED FREE ENERGY PREDICTED BY IDOCK:   -1.05 KCAL/MOL
REMARK 922        TOTAL FREE ENERGY PREDICTED BY IDOCK:   -1.11 KCAL/MOL
REMARK 923 INTER-LIGAND FREE ENERGY PREDICTED BY IDOCK:   -1.11 KCAL/MOL
REMARK 924 INTRA-LIGAND FREE ENERGY PREDICTED BY IDOCK:    0.00 KCAL/MOL
REMARK 927      BINDING AFFINITY PREDICTED BY RF-SCORE:    0.00 PKD
ROOT
HETATM    1  C   UNL     1     -10.890  14.454  66.204  1.00  0.00    -0.309 C  
HETATM    2  C   UNL     1     -10.741  15.802  66.886  1.00  0.00    -0.299 C  
ENDROOT
BRANCH   2   3
HETATM    3  C   UNL     1      -9.368  16.412  66.638  1.00  0.00    -0.259 C  
HETATM    4  O   UNL     1      -9.382  17.788  66.994  1.00  0.00    -0.247 OA 
HETATM    5  H   UNL     1      -8.526  18.169  66.840  1.00  0.00     0.000 HD 
ENDBRANCH   2   3
TORSDOF 1
ENDMDL
MODEL       96
REMARK 921   NORMALIZED FREE ENERGY PREDICTED BY IDOCK:   -1.04 KCAL/MOL
REMARK 922        TOTAL FREE ENERGY PREDICTED BY IDOCK:   -1.10 KCAL/MOL
REMARK 923 INTER-LIGAND FREE ENERGY PREDICTED BY IDOCK:   -1.10 KCAL/MOL
REMARK 924 INTRA-LIGAND FREE ENERGY PREDICTED BY IDOCK:    0.00 KCAL/MOL
REMARK 927      BINDING AFFINITY PREDICTED BY RF-SCORE:    0.00 PKD
ROOT
HETATM    1  C   UNL     1      -8.497  16.747  68.265  1.00  0.00    -0.222 C  
HETATM    2  C   UNL     1      -7.943  18.143  68.042  1.00  0.00    -0.269 C  
ENDROOT
BRANCH   2   3
HETATM    3  C   UNL     1      -6.779  18.445  68.976  1.00  0.00    -0.267 C  
HETATM    4  O   UNL     1      -6.873  19.783  69.445  1.00  0.00    -0.343 OA 
HETATM    5  H   UNL     1      -6.148  19.971  70.028  1.00  0.00     0.000 HD 
ENDBRANCH   2   3
TORSDOF 1
ENDMDL
MODEL       97
REMARK 921   NORMALIZED FREE ENERGY PREDICTED BY IDOCK:   -1.03 KCAL/MOL
REMARK 922        TOTAL FREE ENERGY PREDICTED BY IDOCK:   -1.09 KCAL/MOL
REMARK 923 INTER-LIGAND FREE ENERGY PREDICTED BY IDOCK:   -1.09 KCAL/MOL
REMARK 924 INTRA-LIGAND FREE ENERGY PREDICTED BY IDOCK:    0.00 KCAL/MOL
REMARK 927      BINDING AFFINITY PREDICTED BY RF-SCORE:    0.00 PKD
ROOT
HETATM    1  C   UNL     1      -9.812  12.069  65.775  1.00  0.00    -0.263 C  
HETATM    2  C   UNL     1      -9.712  13.299  66.660  1.00  0.00    -0.270 C  
ENDROOT
BRANCH   2   3
HETATM    3  C   UNL     1      -8.370  13.373  67.374  1.00  0.00    -0.190 C  
HETATM    4  O   UNL     1      -7.415  12.573  66.691  1.00  0.00    -0.371 OA 
HETATM    5  H   UNL     1      -6.578  12.620  67.136  1.00  0.00     0.000 HD 
ENDBRANCH   2   3
TORSDOF 1
ENDMDL
MODEL       98
REMARK 921   NORMALIZED FREE ENERGY PREDICTED BY IDOCK:   -1.02 KCAL/MOL
REMARK 922        TOTAL FREE ENERGY PREDICTED BY IDOCK:   -1.08 KCAL/MOL
REMARK 923 INTER-LIGAND FREE ENERGY PREDICTED BY IDOCK:   -1.08 KCAL/MOL
REMARK 924 INTRA-LIGAND FREE ENERGY PREDICTED BY IDOCK:    0.00 KCAL/MOL
REMARK 927      BINDING AFFINITY PREDICTED BY RF-SCORE:    0.00 PKD
ROOT
HETATM    1  C   UNL     1      -7.649  20.632  67.308  1.00  0.00    -0.381 C  
HETATM    2  C   UNL     1      -6.572  19.580  67.112  1.00  0.00    -0.209 C  
ENDROOT
BRANCH   2   3
HETATM    3  C   UNL     1      -5.971  19.133  68.437  1.00  0.00    -0.215 C  
HETATM    4  O   UNL     1      -5.898  20.236  69.330  1.00  0.00    -0.276 OA 
HETATM    5  H   UNL     1      -5.523  19.957  70.156  1.00  0.00     0.000 HD 
ENDBRANCH   2   3
TORSDOF 1
ENDMDL
MODEL       99
REMARK 921   NORMALIZED FREE ENERGY PREDICTED BY IDOCK:   -0.97 KCAL/MOL
REMARK 922        TOTAL FREE ENERGY PREDICTED BY IDOCK:   -1.03 KCAL/MOL
REMARK 923 INTER-LIGAND FREE ENERGY PREDICTED BY IDOCK:   -1.03 KCAL/MOL
REMARK 924 INTRA-LIGAND FREE ENERGY PREDICTED BY IDOCK:    0.00 KCAL/MOL
REMARK 927      BINDING AFFINITY PREDICTED BY RF-SCORE:    0.00 PKD
ROOT
HETATM    1  C   UNL     1      -5.250  14.215  72.967  1.00  0.00    -0.297 C  
HETATM    2  C   UNL     1      -5.397  13.669  71.558  1.00  0.00    -0.208 C  
ENDROOT
BRANCH   2   3
HETATM    3  C   UNL     1      -6.006  14.696  70.614  1.00  0.00    -0.164 C  
HETATM    4  O   UNL     1      -7.070  14.104  69.881  1.00  0.00    -0.360 OA 
HETATM    5  H   UNL     1      -7.450  14.745  69.292  1.00  0.00     0.000 HD 
ENDBRANCH   2   3
TORSDOF 1
ENDMDL
MODEL      100
REMARK 921   NORMALIZED FREE ENERGY PREDICTED BY IDOCK:   -0.96 KCAL/MOL
REMARK 922        TOTAL FREE ENERGY PREDICTED BY IDOCK:   -1.01 KCAL/MOL
REMARK 923 INTER-LIGAND FREE ENERGY PREDICTED BY IDOCK:   -1.01 KCAL/MOL
REMARK 924 INTRA-LIGAND FREE ENERGY PREDICTED BY IDOCK:    0.00 KCAL/MOL
REMARK 927      BINDING AFFINITY PREDICTED BY RF-SCORE:    0.00 PKD
ROOT
HETATM    1  C   UNL     1     -10.243   7.121  66.717  1.00  0.00    -0.289 C  
HETATM    2  C   UNL     1      -9.060   7.474  65.832  1.00  0.00    -0.086 C  
ENDROOT
BRANCH   2   3
HETATM    3  C   UNL     1      -8.940   8.976  65.620  1.00  0.00    -0.202 C  
HETATM    4  O   UNL     1      -9.257   9.300  64.273  1.00  0.00    -0.435 OA 
HETATM    5  H   UNL     1      -9.182  10.237  64.141  1.00  0.00     0.000 HD 
ENDBRANCH   2   3
TORSDOF 1
ENDMDL
MODEL      101
REMARK 921   NORMALIZED FREE ENERGY PREDICTED BY IDOCK:   -0.95 KCAL/MOL
REMARK 922        TOTAL FREE ENERGY PREDICTED BY IDOCK:   -1.01 KCAL/MOL
REMARK 923 INTER-LIGAND FREE ENERGY PREDICTED BY IDOCK:   -1.01 KCAL/MOL
REMARK 924 INTRA-LIGAND FREE ENERGY PREDICTED BY IDOCK:    0.00 KCAL/MOL
REMARK 927      BINDING AFFINITY PREDICTED BY RF-SCORE:    0.00 PKD
ROOT
HETATM    1  C   UNL     1      -8.469  11.548  67.487  1.00  0.00    -0.143 C  
HETATM    2  C   UNL     1      -8.146  12.964  67.930  1.00  0.00    -0.161 C  
ENDROOT
BRANCH   2   3
HETATM    3  C   UNL     1      -8.859  14.001  67.074  1.00  0.00    -0.219 C  
HETATM    4  O   UNL     1      -9.346  13.392  65.886  1.00  0.00    -0.486 OA 
HETATM    5  H   UNL     1      -9.791  14.039  65.352  1.00  0.00     0.000 HD 
ENDBRANCH   2   3
TORSDOF 1
ENDMDL
MODEL      102
REMARK 921   NORMALIZED FREE ENERGY PREDICTED BY IDOCK:   -0.94 KCAL/MOL
REMARK 922        TOTAL FREE ENERGY PREDICTED BY IDOCK:   -0.99 KCAL/MOL
REMARK 923 INTER-LIGAND FREE ENERGY PREDICTED BY IDOCK:   -0.99 KCAL/MOL
REMARK 924 INTRA-LIGAND FREE ENERGY PREDICTED BY IDOCK:    0.00 KCAL/MOL
REMARK 927      BINDING AFFINITY PREDICTED BY RF-SCORE:    0.00 PKD
ROOT
HETATM    1  C   UNL     1     -10.878   2.773  63.215  1.00  0.00    -0.230 C  
HETATM    2  C   UNL     1     -10.305   3.820  64.154  1.00  0.00    -0.260 C  
ENDROOT
BRANCH   2   3
HETATM    3  C   UNL     1      -9.143   3.272  64.970  1.00  0.00    -0.143 C  
HETATM    4  O   UNL     1      -9.621   2.324  65.914  1.00  0.00    -0.360 OA 
HETATM    5  H   UNL     1      -8.896   1.982  66.423  1.00  0.00     0.000 HD 
ENDBRANCH   2   3
TORSDOF 1
ENDMDL
MODEL      103
REMARK 921   NORMALIZED FREE ENERGY PREDICTED BY IDOCK:   -0.92 KCAL/MOL
REMARK 922        TOTAL FREE ENERGY PREDICTED BY IDOCK:   -0.97 KCAL/MOL
REMARK 923 INTER-LIGAND FREE ENERGY PREDICTED BY IDOCK:   -0.97 KCAL/MOL
REMARK 924 INTRA-LIGAND FREE ENERGY PREDICTED BY IDOCK:    0.00 KCAL/MOL
REMARK 927      BINDING AFFINITY PREDICTED BY RF-SCORE:    0.00 PKD
ROOT
HETATM    1  C   UNL     1     -10.654   5.107  66.089  1.00  0.00    -0.293 C  
HETATM    2  C   UNL     1      -9.640   4.009  65.825  1.00  0.00    -0.191 C  
ENDROOT
BRANCH   2   3
HETATM    3  C   UNL     1      -9.074   4.088  64.414  1.00  0.00    -0.142 C  
HETATM    4  O   UNL     1      -9.134   5.429  63.946  1.00  0.00    -0.346 OA 
HETATM    5  H   UNL     1      -8.781   5.479  63.067  1.00  0.00     0.000 HD 
ENDBRANCH   2   3
TORSDOF 1
ENDMDL
MODEL      104
REMARK 921   NORMALIZED FREE ENERGY PREDICTED BY IDOCK:   -0.92 KCAL/MOL
REMARK 922        TOTAL FREE ENERGY PREDICTED BY IDOCK:   -0.97 KCAL/MOL
REMARK 923 INTER-LIGAND FREE ENERGY PREDICTED BY IDOCK:   -0.97 KCAL/MOL
REMARK 924 INTRA-LIGAND FREE ENERGY PREDICTED BY IDOCK:    0.00 KCAL/MOL
REMARK 927      BINDING AFFINITY PREDICTED BY RF-SCORE:    0.00 PKD
ROOT
HETATM    1  C   UNL     1      -8.556  19.684  67.556  1.00  0.00    -0.357 C  
HETATM    2  C   UNL     1      -7.680  19.158  66.433  1.00  0.00    -0.288 C  
ENDROOT
BRANCH   2   3
HETATM    3  C   UNL     1      -6.583  18.241  66.954  1.00  0.00    -0.184 C  
HETATM    4  O   UNL     1      -5.315  18.706  66.510  1.00  0.00    -0.140 OA 
HETATM    5  H   UNL     1      -4.631  18.134  66.835  1.00  0.00     0.000 HD 
ENDBRANCH   2   3
TORSDOF 1
ENDMDL
MODEL      105
REMARK 921   NORMALIZED FREE ENERGY PREDICTED BY IDOCK:   -0.91 KCAL/MOL
REMARK 922        TOTAL FREE ENERGY PREDICTED BY IDOCK:   -0.96 KCAL/MOL
REMARK 923 INTER-LIGAND FREE ENERGY PREDICTED BY IDOCK:   -0.96 KCAL/MOL
REMARK 924 INTRA-LIGAND FREE ENERGY PREDICTED BY IDOCK:    0.00 KCAL/MOL
REMARK 927      BINDING AFFINITY PREDICTED BY RF-SCORE:    0.00 PKD
ROOT
HETATM    1  C   UNL     1     -10.501   4.849  66.042  1.00  0.00    -0.327 C  
HETATM    2  C   UNL     1     -10.742   5.749  67.242  1.00  0.00    -0.345 C  
ENDROOT
BRANCH   2   3
HETATM    3  C   UNL     1      -9.878   7.001  67.193  1.00  0.00    -0.173 C  
HETATM    4  O   UNL     1      -8.505   6.641  67.260  1.00  0.00    -0.119 OA 
HETATM    5  H   UNL     1      -7.966   7.421  67.229  1.00  0.00     0.000 HD 
ENDBRANCH   2   3
TORSDOF 1
ENDMDL
MODEL      106
REMARK 921   NORMALIZED FREE ENERGY PREDICTED BY IDOCK:   -0.91 KCAL/MOL
REMARK 922        TOTAL FREE ENERGY PREDICTED BY IDOCK:   -0.96 KCAL/MOL
REMARK 923 INTER-LIGAND FREE ENERGY PREDICTED BY IDOCK:   -0.96 KCAL/MOL
REMARK 924 INTRA-LIGAND FREE ENERGY PREDICTED BY IDOCK:    0.00 KCAL/MOL
REMARK 927      BINDING AFFINITY PREDICTED BY RF-SCORE:    0.00 PKD
ROOT
HETATM    1  C   UNL     1     -11.158   6.179  69.620  1.00  0.00    -0.489 C  
HETATM    2  C   UNL     1     -10.085   6.422  70.666  1.00  0.00    -0.221 C  
ENDROOT
BRANCH   2   3
HETATM    3  C   UNL     1      -9.166   5.219  70.824  1.00  0.00    -0.152 C  
HETATM    4  O   UNL     1      -7.811   5.646  70.835  1.00  0.00    -0.099 OA 
HETATM    5  H   UNL     1      -7.238   4.896  70.934  1.00  0.00     0.000 HD 
ENDBRANCH   2   3
TORSDOF 1
ENDMDL
MODEL      107
REMARK 921   NORMALIZED FREE ENERGY PREDICTED BY IDOCK:   -0.89 KCAL/MOL
REMARK 922        TOTAL FREE ENERGY PREDICTED BY IDOCK:   -0.94 KCAL/MOL
REMARK 923 INTER-LIGAND FREE ENERGY PREDICTED BY IDOCK:   -0.94 KCAL/MOL
REMARK 924 INTRA-LIGAND FREE ENERGY PREDICTED BY IDOCK:    0.00 KCAL/MOL
REMARK 927      BINDING AFFINITY PREDICTED BY RF-SCORE:    0.00 PKD
ROOT
HETATM    1  C   UNL     1      -9.814   4.289  69.564  1.00  0.00    -0.224 C  
HETATM    2  C   UNL     1      -9.929   5.790  69.368  1.00  0.00    -0.244 C  
ENDROOT
BRANCH   2   3
HETATM    3  C   UNL     1     -10.823   6.431  70.420  1.00  0.00    -0.286 C  
HETATM    4  O   UNL     1     -10.023   7.066  71.409  1.00  0.00    -0.185 OA 
HETATM    5  H   UNL     1     -10.580   7.466  72.065  1.00  0.00     0.000 HD 
ENDBRANCH   2   3
TORSDOF 1
ENDMDL
MODEL      108
REMARK 921   NORMALIZED FREE ENERGY PREDICTED BY IDOCK:   -0.87 KCAL/MOL
REMARK 922        TOTAL FREE ENERGY PREDICTED BY IDOCK:   -0.92 KCAL/MOL
REMARK 923 INTER-LIGAND FREE ENERGY PREDICTED BY IDOCK:   -0.92 KCAL/MOL
REMARK 924 INTRA-LIGAND FREE ENERGY PREDICTED BY IDOCK:    0.00 KCAL/MOL
REMARK 927      BINDING AFFINITY PREDICTED BY RF-SCORE:    0.00 PKD
ROOT
HETATM    1  C   UNL     1      -7.978   8.875  65.447  1.00  0.00    -0.110 C  
HETATM    2  C   UNL     1      -9.077   9.860  65.805  1.00  0.00    -0.208 C  
ENDROOT
BRANCH   2   3
HETATM    3  C   UNL     1      -9.801  10.374  64.569  1.00  0.00    -0.339 C  
HETATM    4  O   UNL     1     -10.165  11.735  64.755  1.00  0.00    -0.260 OA 
HETATM    5  H   UNL     1     -10.617  12.056  63.984  1.00  0.00     0.000 HD 
ENDBRANCH   2   3
TORSDOF 1
ENDMDL
MODEL      109
REMARK 921   NORMALIZED FREE ENERGY PREDICTED BY IDOCK:   -0.86 KCAL/MOL
REMARK 922        TOTAL FREE ENERGY PREDICTED BY IDOCK:   -0.91 KCAL/MOL
REMARK 923 INTER-LIGAND FREE ENERGY PREDICTED BY IDOCK:   -0.91 KCAL/MOL
REMARK 924 INTRA-LIGAND FREE ENERGY PREDICTED BY IDOCK:    0.00 KCAL/MOL
REMARK 927      BINDING AFFINITY PREDICTED BY RF-SCORE:    0.00 PKD
ROOT
HETATM    1  C   UNL     1     -11.391   4.616  73.316  1.00  0.00    -0.393 C  
HETATM    2  C   UNL     1     -10.006   5.163  73.611  1.00  0.00    -0.191 C  
ENDROOT
BRANCH   2   3
HETATM    3  C   UNL     1      -9.355   5.755  72.369  1.00  0.00    -0.143 C  
HETATM    4  O   UNL     1     -10.056   6.925  71.969  1.00  0.00    -0.185 OA 
HETATM    5  H   UNL     1      -9.649   7.294  71.195  1.00  0.00     0.000 HD 
ENDBRANCH   2   3
TORSDOF 1
ENDMDL
MODEL      110
REMARK 921   NORMALIZED FREE ENERGY PREDICTED BY IDOCK:   -0.86 KCAL/MOL
REMARK 922        TOTAL FREE ENERGY PREDICTED BY IDOCK:   -0.91 KCAL/MOL
REMARK 923 INTER-LIGAND FREE ENERGY PREDICTED BY IDOCK:   -0.91 KCAL/MOL
REMARK 924 INTRA-LIGAND FREE ENERGY PREDICTED BY IDOCK:    0.00 KCAL/MOL
REMARK 927      BINDING AFFINITY PREDICTED BY RF-SCORE:    0.00 PKD
ROOT
HETATM    1  C   UNL     1     -10.727   3.176  63.464  1.00  0.00    -0.246 C  
HETATM    2  C   UNL     1      -9.438   3.977  63.431  1.00  0.00    -0.150 C  
ENDROOT
BRANCH   2   3
HETATM    3  C   UNL     1      -8.999   4.400  64.825  1.00  0.00    -0.149 C  
HETATM    4  O   UNL     1      -9.133   5.808  64.965  1.00  0.00    -0.364 OA 
HETATM    5  H   UNL     1      -8.859   6.073  65.835  1.00  0.00     0.000 HD 
ENDBRANCH   2   3
TORSDOF 1
ENDMDL
MODEL      111
REMARK 921   NORMALIZED FREE ENERGY PREDICTED BY IDOCK:   -0.84 KCAL/MOL
REMARK 922        TOTAL FREE ENERGY PREDICTED BY IDOCK:   -0.89 KCAL/MOL
REMARK 923 INTER-LIGAND FREE ENERGY PREDICTED BY IDOCK:   -0.89 KCAL/MOL
REMARK 924 INTRA-LIGAND FREE ENERGY PREDICTED BY IDOCK:    0.00 KCAL/MOL
REMARK 927      BINDING AFFINITY PREDICTED BY RF-SCORE:    0.00 PKD
ROOT
HETATM    1  C   UNL     1      -7.879   6.871  70.976  1.00  0.00    -0.097 C  
HETATM    2  C   UNL     1      -8.803   7.776  70.182  1.00  0.00    -0.145 C  
ENDROOT
BRANCH   2   3
HETATM    3  C   UNL     1      -9.092   9.076  70.918  1.00  0.00    -0.250 C  
HETATM    4  O   UNL     1      -8.890   8.895  72.313  1.00  0.00    -0.397 OA 
HETATM    5  H   UNL     1      -9.070   9.706  72.773  1.00  0.00     0.000 HD 
ENDBRANCH   2   3
TORSDOF 1
ENDMDL
MODEL      112
REMARK 921   NORMALIZED FREE ENERGY PREDICTED BY IDOCK:   -0.83 KCAL/MOL
REMARK 922        TOTAL FREE ENERGY PREDICTED BY IDOCK:   -0.88 KCAL/MOL
REMARK 923 INTER-LIGAND FREE ENERGY PREDICTED BY IDOCK:   -0.88 KCAL/MOL
REMARK 924 INTRA-LIGAND FREE ENERGY PREDICTED BY IDOCK:    0.00 KCAL/MOL
REMARK 927      BINDING AFFINITY PREDICTED BY RF-SCORE:    0.00 PKD
ROOT
HETATM    1  C   UNL     1      -9.468   8.060  68.596  1.00  0.00    -0.147 C  
HETATM    2  C   UNL     1      -9.478   9.480  68.059  1.00  0.00    -0.147 C  
ENDROOT
BRANCH   2   3
HETATM    3  C   UNL     1      -8.869  10.463  69.049  1.00  0.00    -0.172 C  
HETATM    4  O   UNL     1      -9.706  11.606  69.169  1.00  0.00    -0.415 OA 
HETATM    5  H   UNL     1      -9.326  12.219  69.786  1.00  0.00     0.000 HD 
ENDBRANCH   2   3
TORSDOF 1
ENDMDL
MODEL      113
REMARK 921   NORMALIZED FREE ENERGY PREDICTED BY IDOCK:   -0.82 KCAL/MOL
REMARK 922        TOTAL FREE ENERGY PREDICTED BY IDOCK:   -0.87 KCAL/MOL
REMARK 923 INTER-LIGAND FREE ENERGY PREDICTED BY IDOCK:   -0.87 KCAL/MOL
REMARK 924 INTRA-LIGAND FREE ENERGY PREDICTED BY IDOCK:    0.00 KCAL/MOL
REMARK 927      BINDING AFFINITY PREDICTED BY RF-SCORE:    0.00 PKD
ROOT
HETATM    1  C   UNL     1      -7.464  11.529  68.295  1.00  0.00    -0.103 C  
HETATM    2  C   UNL     1      -7.650  13.035  68.346  1.00  0.00    -0.133 C  
ENDROOT
BRANCH   2   3
HETATM    3  C   UNL     1      -9.046  13.448  67.902  1.00  0.00    -0.208 C  
HETATM    4  O   UNL     1      -9.932  13.421  69.013  1.00  0.00    -0.424 OA 
HETATM    5  H   UNL     1     -10.803  13.679  68.736  1.00  0.00     0.000 HD 
ENDBRANCH   2   3
TORSDOF 1
ENDMDL
MODEL      114
REMARK 921   NORMALIZED FREE ENERGY PREDICTED BY IDOCK:   -0.82 KCAL/MOL
REMARK 922        TOTAL FREE ENERGY PREDICTED BY IDOCK:   -0.87 KCAL/MOL
REMARK 923 INTER-LIGAND FREE ENERGY PREDICTED BY IDOCK:   -0.87 KCAL/MOL
REMARK 924 INTRA-LIGAND FREE ENERGY PREDICTED BY IDOCK:    0.00 KCAL/MOL
REMARK 927      BINDING AFFINITY PREDICTED BY RF-SCORE:    0.00 PKD
ROOT
HETATM    1  C   UNL     1     -10.948  10.324  68.945  1.00  0.00    -0.279 C  
HETATM    2  C   UNL     1     -10.446   8.895  68.854  1.00  0.00    -0.225 C  
ENDROOT
BRANCH   2   3
HETATM    3  C   UNL     1     -10.416   8.217  70.216  1.00  0.00    -0.219 C  
HETATM    4  O   UNL     1      -9.078   8.144  70.688  1.00  0.00    -0.145 OA 
HETATM    5  H   UNL     1      -9.059   7.722  71.539  1.00  0.00     0.000 HD 
ENDBRANCH   2   3
TORSDOF 1
ENDMDL
MODEL      115
REMARK 921   NORMALIZED FREE ENERGY PREDICTED BY IDOCK:   -0.82 KCAL/MOL
REMARK 922        TOTAL FREE ENERGY PREDICTED BY IDOCK:   -0.87 KCAL/MOL
REMARK 923 INTER-LIGAND FREE ENERGY PREDICTED BY IDOCK:   -0.87 KCAL/MOL
REMARK 924 INTRA-LIGAND FREE ENERGY PREDICTED BY IDOCK:    0.00 KCAL/MOL
REMARK 927      BINDING AFFINITY PREDICTED BY RF-SCORE:    0.00 PKD
ROOT
HETATM    1  C   UNL     1      -8.357   9.048  63.972  1.00  0.00    -0.180 C  
HETATM    2  C   UNL     1      -7.908   7.636  64.303  1.00  0.00    -0.135 C  
ENDROOT
BRANCH   2   3
HETATM    3  C   UNL     1      -8.225   7.264  65.744  1.00  0.00    -0.135 C  
HETATM    4  O   UNL     1      -9.574   7.600  66.042  1.00  0.00    -0.418 OA 
HETATM    5  H   UNL     1      -9.772   7.368  66.941  1.00  0.00     0.000 HD 
ENDBRANCH   2   3
TORSDOF 1
ENDMDL
MODEL      116
REMARK 921   NORMALIZED FREE ENERGY PREDICTED BY IDOCK:   -0.82 KCAL/MOL
REMARK 922        TOTAL FREE ENERGY PREDICTED BY IDOCK:   -0.86 KCAL/MOL
REMARK 923 INTER-LIGAND FREE ENERGY PREDICTED BY IDOCK:   -0.86 KCAL/MOL
REMARK 924 INTRA-LIGAND FREE ENERGY PREDICTED BY IDOCK:    0.00 KCAL/MOL
REMARK 927      BINDING AFFINITY PREDICTED BY RF-SCORE:    0.00 PKD
ROOT
HETATM    1  C   UNL     1      -6.427  11.702  69.654  1.00  0.00    -0.124 C  
HETATM    2  C   UNL     1      -5.599  12.486  70.658  1.00  0.00    -0.175 C  
ENDROOT
BRANCH   2   3
HETATM    3  C   UNL     1      -5.909  13.975  70.605  1.00  0.00    -0.192 C  
HETATM    4  O   UNL     1      -7.183  14.181  70.011  1.00  0.00    -0.374 OA 
HETATM    5  H   UNL     1      -7.377  15.110  69.979  1.00  0.00     0.000 HD 
ENDBRANCH   2   3
TORSDOF 1
ENDMDL
MODEL      117
REMARK 921   NORMALIZED FREE ENERGY PREDICTED BY IDOCK:   -0.81 KCAL/MOL
REMARK 922        TOTAL FREE ENERGY PREDICTED BY IDOCK:   -0.86 KCAL/MOL
REMARK 923 INTER-LIGAND FREE ENERGY PREDICTED BY IDOCK:   -0.86 KCAL/MOL
REMARK 924 INTRA-LIGAND FREE ENERGY PREDICTED BY IDOCK:    0.00 KCAL/MOL
REMARK 927      BINDING AFFINITY PREDICTED BY RF-SCORE:    0.00 PKD
ROOT
HETATM    1  C   UNL     1      -9.830   7.924  73.304  1.00  0.00    -0.345 C  
HETATM    2  C   UNL     1      -9.701   6.430  73.068  1.00  0.00    -0.162 C  
ENDROOT
BRANCH   2   3
HETATM    3  C   UNL     1      -9.961   5.632  74.337  1.00  0.00    -0.251 C  
HETATM    4  O   UNL     1      -9.502   4.297  74.170  1.00  0.00    -0.105 OA 
HETATM    5  H   UNL     1      -9.664   3.799  74.961  1.00  0.00     0.000 HD 
ENDBRANCH   2   3
TORSDOF 1
ENDMDL
MODEL      118
REMARK 921   NORMALIZED FREE ENERGY PREDICTED BY IDOCK:   -0.81 KCAL/MOL
REMARK 922        TOTAL FREE ENERGY PREDICTED BY IDOCK:   -0.86 KCAL/MOL
REMARK 923 INTER-LIGAND FREE ENERGY PREDICTED BY IDOCK:   -0.86 KCAL/MOL
REMARK 924 INTRA-LIGAND FREE ENERGY PREDICTED BY IDOCK:    0.00 KCAL/MOL
REMARK 927      BINDING AFFINITY PREDICTED BY RF-SCORE:    0.00 PKD
ROOT
HETATM    1  C   UNL     1      -5.864  14.346  68.529  1.00  0.00    -0.095 C  
HETATM    2  C   UNL     1      -6.555  15.225  69.557  1.00  0.00    -0.164 C  
ENDROOT
BRANCH   2   3
HETATM    3  C   UNL     1      -8.056  15.299  69.320  1.00  0.00    -0.236 C  
HETATM    4  O   UNL     1      -8.583  13.990  69.152  1.00  0.00    -0.364 OA 
HETATM    5  H   UNL     1      -9.519  14.036  69.005  1.00  0.00     0.000 HD 
ENDBRANCH   2   3
TORSDOF 1
ENDMDL
MODEL      119
REMARK 921   NORMALIZED FREE ENERGY PREDICTED BY IDOCK:   -0.80 KCAL/MOL
REMARK 922        TOTAL FREE ENERGY PREDICTED BY IDOCK:   -0.85 KCAL/MOL
REMARK 923 INTER-LIGAND FREE ENERGY PREDICTED BY IDOCK:   -0.85 KCAL/MOL
REMARK 924 INTRA-LIGAND FREE ENERGY PREDICTED BY IDOCK:    0.00 KCAL/MOL
REMARK 927      BINDING AFFINITY PREDICTED BY RF-SCORE:    0.00 PKD
ROOT
HETATM    1  C   UNL     1      -8.219  10.302  62.667  1.00  0.00    -0.170 C  
HETATM    2  C   UNL     1      -6.981   9.530  63.086  1.00  0.00    -0.102 C  
ENDROOT
BRANCH   2   3
HETATM    3  C   UNL     1      -6.381  10.077  64.373  1.00  0.00    -0.131 C  
HETATM    4  O   UNL     1      -5.455  11.111  64.072  1.00  0.00    -0.448 OA 
HETATM    5  H   UNL     1      -5.082  11.453  64.875  1.00  0.00     0.000 HD 
ENDBRANCH   2   3
TORSDOF 1
ENDMDL
MODEL      120
REMARK 921   NORMALIZED FREE ENERGY PREDICTED BY IDOCK:   -0.78 KCAL/MOL
REMARK 922        TOTAL FREE ENERGY PREDICTED BY IDOCK:   -0.83 KCAL/MOL
REMARK 923 INTER-LIGAND FREE ENERGY PREDICTED BY IDOCK:   -0.83 KCAL/MOL
REMARK 924 INTRA-LIGAND FREE ENERGY PREDICTED BY IDOCK:    0.00 KCAL/MOL
REMARK 927      BINDING AFFINITY PREDICTED BY RF-SCORE:    0.00 PKD
ROOT
HETATM    1  C   UNL     1      -6.838   9.993  65.858  1.00  0.00    -0.108 C  
HETATM    2  C   UNL     1      -7.981   9.702  66.814  1.00  0.00    -0.105 C  
ENDROOT
BRANCH   2   3
HETATM    3  C   UNL     1      -8.857   8.560  66.318  1.00  0.00    -0.156 C  
HETATM    4  O   UNL     1     -10.017   9.083  65.685  1.00  0.00    -0.457 OA 
HETATM    5  H   UNL     1     -10.563   8.371  65.375  1.00  0.00     0.000 HD 
ENDBRANCH   2   3
TORSDOF 1
ENDMDL
MODEL      121
REMARK 921   NORMALIZED FREE ENERGY PREDICTED BY IDOCK:   -0.78 KCAL/MOL
REMARK 922        TOTAL FREE ENERGY PREDICTED BY IDOCK:   -0.82 KCAL/MOL
REMARK 923 INTER-LIGAND FREE ENERGY PREDICTED BY IDOCK:   -0.82 KCAL/MOL
REMARK 924 INTRA-LIGAND FREE ENERGY PREDICTED BY IDOCK:    0.00 KCAL/MOL
REMARK 927      BINDING AFFINITY PREDICTED BY RF-SCORE:    0.00 PKD
ROOT
HETATM    1  C   UNL     1      -7.225  11.201  68.949  1.00  0.00    -0.106 C  
HETATM    2  C   UNL     1      -6.392  12.454  69.158  1.00  0.00    -0.095 C  
ENDROOT
BRANCH   2   3
HETATM    3  C   UNL     1      -6.443  13.376  67.948  1.00  0.00    -0.151 C  
HETATM    4  O   UNL     1      -6.386  12.606  66.755  1.00  0.00    -0.472 OA 
HETATM    5  H   UNL     1      -6.418  13.181  66.000  1.00  0.00     0.000 HD 
ENDBRANCH   2   3
TORSDOF 1
ENDMDL
MODEL      122
REMARK 921   NORMALIZED FREE ENERGY PREDICTED BY IDOCK:   -0.76 KCAL/MOL
REMARK 922        TOTAL FREE ENERGY PREDICTED BY IDOCK:   -0.81 KCAL/MOL
REMARK 923 INTER-LIGAND FREE ENERGY PREDICTED BY IDOCK:   -0.81 KCAL/MOL
REMARK 924 INTRA-LIGAND FREE ENERGY PREDICTED BY IDOCK:    0.00 KCAL/MOL
REMARK 927      BINDING AFFINITY PREDICTED BY RF-SCORE:    0.00 PKD
ROOT
HETATM    1  C   UNL     1     -10.030   9.453  71.009  1.00  0.00    -0.334 C  
HETATM    2  C   UNL     1      -9.451   8.136  70.524  1.00  0.00    -0.168 C  
ENDROOT
BRANCH   2   3
HETATM    3  C   UNL     1      -9.464   7.076  71.617  1.00  0.00    -0.156 C  
HETATM    4  O   UNL     1      -9.220   5.796  71.049  1.00  0.00    -0.147 OA 
HETATM    5  H   UNL     1      -9.228   5.135  71.730  1.00  0.00     0.000 HD 
ENDBRANCH   2   3
TORSDOF 1
ENDMDL
MODEL      123
REMARK 921   NORMALIZED FREE ENERGY PREDICTED BY IDOCK:   -0.70 KCAL/MOL
REMARK 922        TOTAL FREE ENERGY PREDICTED BY IDOCK:   -0.74 KCAL/MOL
REMARK 923 INTER-LIGAND FREE ENERGY PREDICTED BY IDOCK:   -0.74 KCAL/MOL
REMARK 924 INTRA-LIGAND FREE ENERGY PREDICTED BY IDOCK:    0.00 KCAL/MOL
REMARK 927      BINDING AFFINITY PREDICTED BY RF-SCORE:    0.00 PKD
ROOT
HETATM    1  C   UNL     1      -5.860  14.018  71.116  1.00  0.00    -0.207 C  
HETATM    2  C   UNL     1      -5.622  13.568  69.686  1.00  0.00    -0.097 C  
ENDROOT
BRANCH   2   3
HETATM    3  C   UNL     1      -6.022  14.640  68.682  1.00  0.00    -0.089 C  
HETATM    4  O   UNL     1      -5.948  14.115  67.363  1.00  0.00    -0.348 OA 
HETATM    5  H   UNL     1      -6.197  14.783  66.736  1.00  0.00     0.000 HD 
ENDBRANCH   2   3
TORSDOF 1
ENDMDL
MODEL      124
REMARK 921   NORMALIZED FREE ENERGY PREDICTED BY IDOCK:   -0.70 KCAL/MOL
REMARK 922        TOTAL FREE ENERGY PREDICTED BY IDOCK:   -0.74 KCAL/MOL
REMARK 923 INTER-LIGAND FREE ENERGY PREDICTED BY IDOCK:   -0.74 KCAL/MOL
REMARK 924 INTRA-LIGAND FREE ENERGY PREDICTED BY IDOCK:    0.00 KCAL/MOL
REMARK 927      BINDING AFFINITY PREDICTED BY RF-SCORE:    0.00 PKD
ROOT
HETATM    1  C   UNL     1      -9.410   6.515  71.759  1.00  0.00    -0.149 C  
HETATM    2  C   UNL     1      -8.000   6.898  72.171  1.00  0.00    -0.094 C  
ENDROOT
BRANCH   2   3
HETATM    3  C   UNL     1      -7.994   7.798  73.399  1.00  0.00    -0.147 C  
HETATM    4  O   UNL     1      -7.185   8.940  73.154  1.00  0.00    -0.348 OA 
HETATM    5  H   UNL     1      -7.182   9.502  73.919  1.00  0.00     0.000 HD 
ENDBRANCH   2   3
TORSDOF 1
ENDMDL
MODEL      125
REMARK 921   NORMALIZED FREE ENERGY PREDICTED BY IDOCK:   -0.69 KCAL/MOL
REMARK 922        TOTAL FREE ENERGY PREDICTED BY IDOCK:   -0.73 KCAL/MOL
REMARK 923 INTER-LIGAND FREE ENERGY PREDICTED BY IDOCK:   -0.73 KCAL/MOL
REMARK 924 INTRA-LIGAND FREE ENERGY PREDICTED BY IDOCK:    0.00 KCAL/MOL
REMARK 927      BINDING AFFINITY PREDICTED BY RF-SCORE:    0.00 PKD
ROOT
HETATM    1  C   UNL     1      -7.151   3.291  66.311  1.00  0.00    -0.062 C  
HETATM    2  C   UNL     1      -7.705   3.018  67.698  1.00  0.00    -0.065 C  
ENDROOT
BRANCH   2   3
HETATM    3  C   UNL     1      -9.224   2.917  67.691  1.00  0.00    -0.201 C  
HETATM    4  O   UNL     1      -9.717   3.177  66.384  1.00  0.00    -0.407 OA 
HETATM    5  H   UNL     1     -10.665   3.113  66.379  1.00  0.00     0.000 HD 
ENDBRANCH   2   3
TORSDOF 1
ENDMDL
MODEL      126
REMARK 921   NORMALIZED FREE ENERGY PREDICTED BY IDOCK:   -0.69 KCAL/MOL
REMARK 922        TOTAL FREE ENERGY PREDICTED BY IDOCK:   -0.73 KCAL/MOL
REMARK 923 INTER-LIGAND FREE ENERGY PREDICTED BY IDOCK:   -0.73 KCAL/MOL
REMARK 924 INTRA-LIGAND FREE ENERGY PREDICTED BY IDOCK:    0.00 KCAL/MOL
REMARK 927      BINDING AFFINITY PREDICTED BY RF-SCORE:    0.00 PKD
ROOT
HETATM    1  C   UNL     1      -9.904   4.252  69.907  1.00  0.00    -0.267 C  
HETATM    2  C   UNL     1      -9.859   4.819  71.315  1.00  0.00    -0.256 C  
ENDROOT
BRANCH   2   3
HETATM    3  C   UNL     1      -8.887   4.055  72.202  1.00  0.00    -0.106 C  
HETATM    4  O   UNL     1      -8.120   4.969  72.975  1.00  0.00    -0.103 OA 
HETATM    5  H   UNL     1      -7.514   4.493  73.529  1.00  0.00     0.000 HD 
ENDBRANCH   2   3
TORSDOF 1
ENDMDL
MODEL      127
REMARK 921   NORMALIZED FREE ENERGY PREDICTED BY IDOCK:   -0.67 KCAL/MOL
REMARK 922        TOTAL FREE ENERGY PREDICTED BY IDOCK:   -0.71 KCAL/MOL
REMARK 923 INTER-LIGAND FREE ENERGY PREDICTED BY IDOCK:   -0.71 KCAL/MOL
REMARK 924 INTRA-LIGAND FREE ENERGY PREDICTED BY IDOCK:    0.00 KCAL/MOL
REMARK 927      BINDING AFFINITY PREDICTED BY RF-SCORE:    0.00 PKD
ROOT
HETATM    1  C   UNL     1      -8.811   4.542  68.645  1.00  0.00    -0.130 C  
HETATM    2  C   UNL     1      -9.626   5.801  68.412  1.00  0.00    -0.147 C  
ENDROOT
BRANCH   2   3
HETATM    3  C   UNL     1     -10.527   6.120  69.597  1.00  0.00    -0.252 C  
HETATM    4  O   UNL     1      -9.981   5.556  70.782  1.00  0.00    -0.181 OA 
HETATM    5  H   UNL     1     -10.542   5.755  71.521  1.00  0.00     0.000 HD 
ENDBRANCH   2   3
TORSDOF 1
ENDMDL
MODEL      128
REMARK 921   NORMALIZED FREE ENERGY PREDICTED BY IDOCK:   -0.67 KCAL/MOL
REMARK 922        TOTAL FREE ENERGY PREDICTED BY IDOCK:   -0.71 KCAL/MOL
REMARK 923 INTER-LIGAND FREE ENERGY PREDICTED BY IDOCK:   -0.71 KCAL/MOL
REMARK 924 INTRA-LIGAND FREE ENERGY PREDICTED BY IDOCK:    0.00 KCAL/MOL
REMARK 927      BINDING AFFINITY PREDICTED BY RF-SCORE:    0.00 PKD
ROOT
HETATM    1  C   UNL     1      -7.162   3.901  64.569  1.00  0.00    -0.066 C  
HETATM    2  C   UNL     1      -8.138   2.836  65.038  1.00  0.00    -0.083 C  
ENDROOT
BRANCH   2   3
HETATM    3  C   UNL     1      -9.556   3.122  64.565  1.00  0.00    -0.151 C  
HETATM    4  O   UNL     1     -10.272   3.813  65.579  1.00  0.00    -0.408 OA 
HETATM    5  H   UNL     1     -11.157   3.992  65.284  1.00  0.00     0.000 HD 
ENDBRANCH   2   3
TORSDOF 1
ENDMDL
MODEL      129
REMARK 921   NORMALIZED FREE ENERGY PREDICTED BY IDOCK:   -0.65 KCAL/MOL
REMARK 922        TOTAL FREE ENERGY PREDICTED BY IDOCK:   -0.69 KCAL/MOL
REMARK 923 INTER-LIGAND FREE ENERGY PREDICTED BY IDOCK:   -0.69 KCAL/MOL
REMARK 924 INTRA-LIGAND FREE ENERGY PREDICTED BY IDOCK:    0.00 KCAL/MOL
REMARK 927      BINDING AFFINITY PREDICTED BY RF-SCORE:    0.00 PKD
ROOT
HETATM    1  C   UNL     1     -10.619   5.000  66.086  1.00  0.00    -0.321 C  
HETATM    2  C   UNL     1      -9.472   4.536  66.967  1.00  0.00    -0.186 C  
ENDROOT
BRANCH   2   3
HETATM    3  C   UNL     1      -8.134   4.630  66.248  1.00  0.00    -0.103 C  
HETATM    4  O   UNL     1      -7.618   3.325  66.019  1.00  0.00    -0.076 OA 
HETATM    5  H   UNL     1      -6.784   3.383  65.571  1.00  0.00     0.000 HD 
ENDBRANCH   2   3
TORSDOF 1
ENDMDL
MODEL      130
REMARK 921   NORMALIZED FREE ENERGY PREDICTED BY IDOCK:   -0.64 KCAL/MOL
REMARK 922        TOTAL FREE ENERGY PREDICTED BY IDOCK:   -0.68 KCAL/MOL
REMARK 923 INTER-LIGAND FREE ENERGY PREDICTED BY IDOCK:   -0.68 KCAL/MOL
REMARK 924 INTRA-LIGAND FREE ENERGY PREDICTED BY IDOCK:    0.00 KCAL/MOL
REMARK 927      BINDING AFFINITY PREDICTED BY RF-SCORE:    0.00 PKD
ROOT
HETATM    1  C   UNL     1      -5.247   7.228  72.891  1.00  0.00    -0.037 C  
HETATM    2  C   UNL     1      -6.460   8.063  72.524  1.00  0.00    -0.074 C  
ENDROOT
BRANCH   2   3
HETATM    3  C   UNL     1      -7.602   7.865  73.510  1.00  0.00    -0.147 C  
HETATM    4  O   UNL     1      -7.645   8.955  74.422  1.00  0.00    -0.422 OA 
HETATM    5  H   UNL     1      -8.358   8.832  75.037  1.00  0.00     0.000 HD 
ENDBRANCH   2   3
TORSDOF 1
ENDMDL
MODEL      131
REMARK 921   NORMALIZED FREE ENERGY PREDICTED BY IDOCK:   -0.62 KCAL/MOL
REMARK 922        TOTAL FREE ENERGY PREDICTED BY IDOCK:   -0.65 KCAL/MOL
REMARK 923 INTER-LIGAND FREE ENERGY PREDICTED BY IDOCK:   -0.65 KCAL/MOL
REMARK 924 INTRA-LIGAND FREE ENERGY PREDICTED BY IDOCK:    0.00 KCAL/MOL
REMARK 927      BINDING AFFINITY PREDICTED BY RF-SCORE:    0.00 PKD
ROOT
HETATM    1  C   UNL     1      -6.136   7.288  64.589  1.00  0.00    -0.037 C  
HETATM    2  C   UNL     1      -6.943   8.500  65.021  1.00  0.00    -0.075 C  
ENDROOT
BRANCH   2   3
HETATM    3  C   UNL     1      -8.105   8.772  64.076  1.00  0.00    -0.164 C  
HETATM    4  O   UNL     1      -8.490   7.567  63.428  1.00  0.00    -0.375 OA 
HETATM    5  H   UNL     1      -9.215   7.737  62.839  1.00  0.00     0.000 HD 
ENDBRANCH   2   3
TORSDOF 1
ENDMDL
MODEL      132
REMARK 921   NORMALIZED FREE ENERGY PREDICTED BY IDOCK:   -0.61 KCAL/MOL
REMARK 922        TOTAL FREE ENERGY PREDICTED BY IDOCK:   -0.65 KCAL/MOL
REMARK 923 INTER-LIGAND FREE ENERGY PREDICTED BY IDOCK:   -0.65 KCAL/MOL
REMARK 924 INTRA-LIGAND FREE ENERGY PREDICTED BY IDOCK:    0.00 KCAL/MOL
REMARK 927      BINDING AFFINITY PREDICTED BY RF-SCORE:    0.00 PKD
ROOT
HETATM    1  C   UNL     1      -9.937   1.469  71.559  1.00  0.00    -0.194 C  
HETATM    2  C   UNL     1      -9.829   2.183  72.895  1.00  0.00    -0.165 C  
ENDROOT
BRANCH   2   3
HETATM    3  C   UNL     1      -9.382   3.629  72.729  1.00  0.00    -0.108 C  
HETATM    4  O   UNL     1     -10.231   4.292  71.802  1.00  0.00    -0.179 OA 
HETATM    5  H   UNL     1      -9.953   5.193  71.698  1.00  0.00     0.000 HD 
ENDBRANCH   2   3
TORSDOF 1
ENDMDL
MODEL      133
REMARK 921   NORMALIZED FREE ENERGY PREDICTED BY IDOCK:   -0.60 KCAL/MOL
REMARK 922        TOTAL FREE ENERGY PREDICTED BY IDOCK:   -0.64 KCAL/MOL
REMARK 923 INTER-LIGAND FREE ENERGY PREDICTED BY IDOCK:   -0.64 KCAL/MOL
REMARK 924 INTRA-LIGAND FREE ENERGY PREDICTED BY IDOCK:    0.00 KCAL/MOL
REMARK 927      BINDING AFFINITY PREDICTED BY RF-SCORE:    0.00 PKD
ROOT
HETATM    1  C   UNL     1      -6.644   3.752  64.919  1.00  0.00    -0.046 C  
HETATM    2  C   UNL     1      -8.138   3.817  65.178  1.00  0.00    -0.097 C  
ENDROOT
BRANCH   2   3
HETATM    3  C   UNL     1      -8.775   5.030  64.515  1.00  0.00    -0.132 C  
HETATM    4  O   UNL     1      -9.287   5.908  65.509  1.00  0.00    -0.361 OA 
HETATM    5  H   UNL     1      -9.684   6.665  65.096  1.00  0.00     0.000 HD 
ENDBRANCH   2   3
TORSDOF 1
ENDMDL
MODEL      134
REMARK 921   NORMALIZED FREE ENERGY PREDICTED BY IDOCK:   -0.60 KCAL/MOL
REMARK 922        TOTAL FREE ENERGY PREDICTED BY IDOCK:   -0.63 KCAL/MOL
REMARK 923 INTER-LIGAND FREE ENERGY PREDICTED BY IDOCK:   -0.63 KCAL/MOL
REMARK 924 INTRA-LIGAND FREE ENERGY PREDICTED BY IDOCK:    0.00 KCAL/MOL
REMARK 927      BINDING AFFINITY PREDICTED BY RF-SCORE:    0.00 PKD
ROOT
HETATM    1  C   UNL     1      -6.713   9.228  70.948  1.00  0.00    -0.094 C  
HETATM    2  C   UNL     1      -7.942   8.352  70.782  1.00  0.00    -0.106 C  
ENDROOT
BRANCH   2   3
HETATM    3  C   UNL     1      -9.217   9.177  70.694  1.00  0.00    -0.258 C  
HETATM    4  O   UNL     1      -9.300   9.801  69.420  1.00  0.00    -0.176 OA 
HETATM    5  H   UNL     1     -10.096  10.316  69.364  1.00  0.00     0.000 HD 
ENDBRANCH   2   3
TORSDOF 1
ENDMDL
MODEL      135
REMARK 921   NORMALIZED FREE ENERGY PREDICTED BY IDOCK:   -0.59 KCAL/MOL
REMARK 922        TOTAL FREE ENERGY PREDICTED BY IDOCK:   -0.63 KCAL/MOL
REMARK 923 INTER-LIGAND FREE ENERGY PREDICTED BY IDOCK:   -0.63 KCAL/MOL
REMARK 924 INTRA-LIGAND FREE ENERGY PREDICTED BY IDOCK:    0.00 KCAL/MOL
REMARK 927      BINDING AFFINITY PREDICTED BY RF-SCORE:    0.00 PKD
ROOT
HETATM    1  C   UNL     1      -8.027   2.596  73.492  1.00  0.00    -0.059 C  
HETATM    2  C   UNL     1      -8.795   3.551  74.389  1.00  0.00    -0.092 C  
ENDROOT
BRANCH   2   3
HETATM    3  C   UNL     1      -9.665   4.506  73.585  1.00  0.00    -0.131 C  
HETATM    4  O   UNL     1     -10.822   4.850  74.334  1.00  0.00    -0.346 OA 
HETATM    5  H   UNL     1     -11.365   5.446  73.832  1.00  0.00     0.000 HD 
ENDBRANCH   2   3
TORSDOF 1
ENDMDL
MODEL      136
REMARK 921   NORMALIZED FREE ENERGY PREDICTED BY IDOCK:   -0.58 KCAL/MOL
REMARK 922        TOTAL FREE ENERGY PREDICTED BY IDOCK:   -0.62 KCAL/MOL
REMARK 923 INTER-LIGAND FREE ENERGY PREDICTED BY IDOCK:   -0.62 KCAL/MOL
REMARK 924 INTRA-LIGAND FREE ENERGY PREDICTED BY IDOCK:    0.00 KCAL/MOL
REMARK 927      BINDING AFFINITY PREDICTED BY RF-SCORE:    0.00 PKD
ROOT
HETATM    1  C   UNL     1     -10.395   7.837  68.717  1.00  0.00    -0.219 C  
HETATM    2  C   UNL     1      -9.536   8.792  67.907  1.00  0.00    -0.160 C  
ENDROOT
BRANCH   2   3
HETATM    3  C   UNL     1      -8.109   8.284  67.760  1.00  0.00    -0.127 C  
HETATM    4  O   UNL     1      -8.098   6.863  67.795  1.00  0.00    -0.112 OA 
HETATM    5  H   UNL     1      -7.208   6.545  67.703  1.00  0.00     0.000 HD 
ENDBRANCH   2   3
TORSDOF 1
ENDMDL
MODEL      137
REMARK 921   NORMALIZED FREE ENERGY PREDICTED BY IDOCK:   -0.56 KCAL/MOL
REMARK 922        TOTAL FREE ENERGY PREDICTED BY IDOCK:   -0.59 KCAL/MOL
REMARK 923 INTER-LIGAND FREE ENERGY PREDICTED BY IDOCK:   -0.59 KCAL/MOL
REMARK 924 INTRA-LIGAND FREE ENERGY PREDICTED BY IDOCK:    0.00 KCAL/MOL
REMARK 927      BINDING AFFINITY PREDICTED BY RF-SCORE:    0.00 PKD
ROOT
HETATM    1  C   UNL     1     -10.573   3.597  63.944  1.00  0.00    -0.285 C  
HETATM    2  C   UNL     1      -9.261   4.346  64.093  1.00  0.00    -0.140 C  
ENDROOT
BRANCH   2   3
HETATM    3  C   UNL     1      -8.063   3.409  64.023  1.00  0.00    -0.086 C  
HETATM    4  O   UNL     1      -7.791   2.880  65.314  1.00  0.00    -0.080 OA 
HETATM    5  H   UNL     1      -7.044   2.295  65.271  1.00  0.00     0.000 HD 
ENDBRANCH   2   3
TORSDOF 1
ENDMDL
MODEL      138
REMARK 921   NORMALIZED FREE ENERGY PREDICTED BY IDOCK:   -0.56 KCAL/MOL
REMARK 922        TOTAL FREE ENERGY PREDICTED BY IDOCK:   -0.59 KCAL/MOL
REMARK 923 INTER-LIGAND FREE ENERGY PREDICTED BY IDOCK:   -0.59 KCAL/MOL
REMARK 924 INTRA-LIGAND FREE ENERGY PREDICTED BY IDOCK:    0.00 KCAL/MOL
REMARK 927      BINDING AFFINITY PREDICTED BY RF-SCORE:    0.00 PKD
ROOT
HETATM    1  C   UNL     1      -9.899   4.895  71.004  1.00  0.00    -0.266 C  
HETATM    2  C   UNL     1      -8.442   4.998  70.589  1.00  0.00    -0.111 C  
ENDROOT
BRANCH   2   3
HETATM    3  C   UNL     1      -7.687   6.023  71.424  1.00  0.00    -0.104 C  
HETATM    4  O   UNL     1      -8.308   7.295  71.300  1.00  0.00    -0.110 OA 
HETATM    5  H   UNL     1      -7.838   7.934  71.821  1.00  0.00     0.000 HD 
ENDBRANCH   2   3
TORSDOF 1
ENDMDL
MODEL      139
REMARK 921   NORMALIZED FREE ENERGY PREDICTED BY IDOCK:   -0.54 KCAL/MOL
REMARK 922        TOTAL FREE ENERGY PREDICTED BY IDOCK:   -0.58 KCAL/MOL
REMARK 923 INTER-LIGAND FREE ENERGY PREDICTED BY IDOCK:   -0.58 KCAL/MOL
REMARK 924 INTRA-LIGAND FREE ENERGY PREDICTED BY IDOCK:    0.00 KCAL/MOL
REMARK 927      BINDING AFFINITY PREDICTED BY RF-SCORE:    0.00 PKD
ROOT
HETATM    1  C   UNL     1      -7.515   6.435  69.981  1.00  0.00    -0.091 C  
HETATM    2  C   UNL     1      -8.974   6.024  70.069  1.00  0.00    -0.149 C  
ENDROOT
BRANCH   2   3
HETATM    3  C   UNL     1      -9.890   7.226  70.250  1.00  0.00    -0.179 C  
HETATM    4  O   UNL     1      -9.452   8.295  69.422  1.00  0.00    -0.158 OA 
HETATM    5  H   UNL     1     -10.023   9.044  69.534  1.00  0.00     0.000 HD 
ENDBRANCH   2   3
TORSDOF 1
ENDMDL
MODEL      140
REMARK 921   NORMALIZED FREE ENERGY PREDICTED BY IDOCK:   -0.54 KCAL/MOL
REMARK 922        TOTAL FREE ENERGY PREDICTED BY IDOCK:   -0.58 KCAL/MOL
REMARK 923 INTER-LIGAND FREE ENERGY PREDICTED BY IDOCK:   -0.58 KCAL/MOL
REMARK 924 INTRA-LIGAND FREE ENERGY PREDICTED BY IDOCK:    0.00 KCAL/MOL
REMARK 927      BINDING AFFINITY PREDICTED BY RF-SCORE:    0.00 PKD
ROOT
HETATM    1  C   UNL     1      -6.746   7.924  64.357  1.00  0.00    -0.056 C  
HETATM    2  C   UNL     1      -6.838   9.351  64.868  1.00  0.00    -0.093 C  
ENDROOT
BRANCH   2   3
HETATM    3  C   UNL     1      -7.077  10.342  63.738  1.00  0.00    -0.056 C  
HETATM    4  O   UNL     1      -8.309  11.019  63.944  1.00  0.00    -0.369 OA 
HETATM    5  H   UNL     1      -8.458  11.638  63.240  1.00  0.00     0.000 HD 
ENDBRANCH   2   3
TORSDOF 1
ENDMDL
MODEL      141
REMARK 921   NORMALIZED FREE ENERGY PREDICTED BY IDOCK:   -0.54 KCAL/MOL
REMARK 922        TOTAL FREE ENERGY PREDICTED BY IDOCK:   -0.57 KCAL/MOL
REMARK 923 INTER-LIGAND FREE ENERGY PREDICTED BY IDOCK:   -0.57 KCAL/MOL
REMARK 924 INTRA-LIGAND FREE ENERGY PREDICTED BY IDOCK:    0.00 KCAL/MOL
REMARK 927      BINDING AFFINITY PREDICTED BY RF-SCORE:    0.00 PKD
ROOT
HETATM    1  C   UNL     1      -8.873   3.777  68.584  1.00  0.00    -0.155 C  
HETATM    2  C   UNL     1      -9.418   4.748  69.616  1.00  0.00    -0.223 C  
ENDROOT
BRANCH   2   3
HETATM    3  C   UNL     1      -9.076   4.317  71.035  1.00  0.00    -0.123 C  
HETATM    4  O   UNL     1      -7.690   4.517  71.277  1.00  0.00    -0.072 OA 
HETATM    5  H   UNL     1      -7.476   4.248  72.163  1.00  0.00     0.000 HD 
ENDBRANCH   2   3
TORSDOF 1
ENDMDL
MODEL      142
REMARK 921   NORMALIZED FREE ENERGY PREDICTED BY IDOCK:   -0.52 KCAL/MOL
REMARK 922        TOTAL FREE ENERGY PREDICTED BY IDOCK:   -0.55 KCAL/MOL
REMARK 923 INTER-LIGAND FREE ENERGY PREDICTED BY IDOCK:   -0.55 KCAL/MOL
REMARK 924 INTRA-LIGAND FREE ENERGY PREDICTED BY IDOCK:    0.00 KCAL/MOL
REMARK 927      BINDING AFFINITY PREDICTED BY RF-SCORE:    0.00 PKD
ROOT
HETATM    1  C   UNL     1      -8.837   7.288  66.542  1.00  0.00    -0.156 C  
HETATM    2  C   UNL     1      -8.829   8.158  67.786  1.00  0.00    -0.130 C  
ENDROOT
BRANCH   2   3
HETATM    3  C   UNL     1      -8.133   7.470  68.953  1.00  0.00    -0.127 C  
HETATM    4  O   UNL     1      -8.708   7.902  70.178  1.00  0.00    -0.133 OA 
HETATM    5  H   UNL     1      -8.275   7.473  70.906  1.00  0.00     0.000 HD 
ENDBRANCH   2   3
TORSDOF 1
ENDMDL
MODEL      143
REMARK 921   NORMALIZED FREE ENERGY PREDICTED BY IDOCK:   -0.49 KCAL/MOL
REMARK 922        TOTAL FREE ENERGY PREDICTED BY IDOCK:   -0.52 KCAL/MOL
REMARK 923 INTER-LIGAND FREE ENERGY PREDICTED BY IDOCK:   -0.52 KCAL/MOL
REMARK 924 INTRA-LIGAND FREE ENERGY PREDICTED BY IDOCK:    0.00 KCAL/MOL
REMARK 927      BINDING AFFINITY PREDICTED BY RF-SCORE:    0.00 PKD
ROOT
HETATM    1  C   UNL     1      -6.257  11.575  67.024  1.00  0.00    -0.134 C  
HETATM    2  C   UNL     1      -7.362  10.710  66.445  1.00  0.00    -0.138 C  
ENDROOT
BRANCH   2   3
HETATM    3  C   UNL     1      -6.927  10.022  65.160  1.00  0.00    -0.134 C  
HETATM    4  O   UNL     1      -5.590  10.388  64.847  1.00  0.00    -0.116 OA 
HETATM    5  H   UNL     1      -5.318   9.958  64.045  1.00  0.00     0.000 HD 
ENDBRANCH   2   3
TORSDOF 1
ENDMDL
MODEL      144
REMARK 921   NORMALIZED FREE ENERGY PREDICTED BY IDOCK:   -0.49 KCAL/MOL
REMARK 922        TOTAL FREE ENERGY PREDICTED BY IDOCK:   -0.52 KCAL/MOL
REMARK 923 INTER-LIGAND FREE ENERGY PREDICTED BY IDOCK:   -0.52 KCAL/MOL
REMARK 924 INTRA-LIGAND FREE ENERGY PREDICTED BY IDOCK:    0.00 KCAL/MOL
REMARK 927      BINDING AFFINITY PREDICTED BY RF-SCORE:    0.00 PKD
ROOT
HETATM    1  C   UNL     1      -8.152   7.158  68.671  1.00  0.00    -0.124 C  
HETATM    2  C   UNL     1      -7.538   8.329  67.925  1.00  0.00    -0.102 C  
ENDROOT
BRANCH   2   3
HETATM    3  C   UNL     1      -8.586   9.361  67.531  1.00  0.00    -0.122 C  
HETATM    4  O   UNL     1      -9.835   8.718  67.310  1.00  0.00    -0.172 OA 
HETATM    5  H   UNL     1     -10.489   9.361  67.065  1.00  0.00     0.000 HD 
ENDBRANCH   2   3
TORSDOF 1
ENDMDL
MODEL      145
REMARK 921   NORMALIZED FREE ENERGY PREDICTED BY IDOCK:   -0.45 KCAL/MOL
REMARK 922        TOTAL FREE ENERGY PREDICTED BY IDOCK:   -0.47 KCAL/MOL
REMARK 923 INTER-LIGAND FREE ENERGY PREDICTED BY IDOCK:   -0.47 KCAL/MOL
REMARK 924 INTRA-LIGAND FREE ENERGY PREDICTED BY IDOCK:    0.00 KCAL/MOL
REMARK 927      BINDING AFFINITY PREDICTED BY RF-SCORE:    0.00 PKD
ROOT
HETATM    1  C   UNL     1      -8.580   2.380  69.105  1.00  0.00    -0.115 C  
HETATM    2  C   UNL     1      -9.039   3.223  70.281  1.00  0.00    -0.196 C  
ENDROOT
BRANCH   2   3
HETATM    3  C   UNL     1      -8.587   2.633  71.610  1.00  0.00    -0.064 C  
HETATM    4  O   UNL     1      -9.428   3.101  72.655  1.00  0.00    -0.098 OA 
HETATM    5  H   UNL     1      -9.146   2.733  73.484  1.00  0.00     0.000 HD 
ENDBRANCH   2   3
TORSDOF 1
ENDMDL
MODEL      146
REMARK 921   NORMALIZED FREE ENERGY PREDICTED BY IDOCK:   -0.42 KCAL/MOL
REMARK 922        TOTAL FREE ENERGY PREDICTED BY IDOCK:   -0.44 KCAL/MOL
REMARK 923 INTER-LIGAND FREE ENERGY PREDICTED BY IDOCK:   -0.44 KCAL/MOL
REMARK 924 INTRA-LIGAND FREE ENERGY PREDICTED BY IDOCK:    0.00 KCAL/MOL
REMARK 927      BINDING AFFINITY PREDICTED BY RF-SCORE:    0.00 PKD
ROOT
HETATM    1  C   UNL     1      -8.962   7.301  66.222  1.00  0.00    -0.185 C  
HETATM    2  C   UNL     1      -8.089   7.334  64.980  1.00  0.00    -0.120 C  
ENDROOT
BRANCH   2   3
HETATM    3  C   UNL     1      -7.353   8.659  64.842  1.00  0.00    -0.090 C  
HETATM    4  O   UNL     1      -6.027   8.527  65.336  1.00  0.00    -0.047 OA 
HETATM    5  H   UNL     1      -5.567   9.353  65.250  1.00  0.00     0.000 HD 
ENDBRANCH   2   3
TORSDOF 1
ENDMDL
MODEL      147
REMARK 921   NORMALIZED FREE ENERGY PREDICTED BY IDOCK:   -0.40 KCAL/MOL
REMARK 922        TOTAL FREE ENERGY PREDICTED BY IDOCK:   -0.43 KCAL/MOL
REMARK 923 INTER-LIGAND FREE ENERGY PREDICTED BY IDOCK:   -0.43 KCAL/MOL
REMARK 924 INTRA-LIGAND FREE ENERGY PREDICTED BY IDOCK:    0.00 KCAL/MOL
REMARK 927      BINDING AFFINITY PREDICTED BY RF-SCORE:    0.00 PKD
ROOT
HETATM    1  C   UNL     1      -6.428  12.093  68.859  1.00  0.00    -0.088 C  
HETATM    2  C   UNL     1      -7.749  11.377  68.642  1.00  0.00    -0.137 C  
ENDROOT
BRANCH   2   3
HETATM    3  C   UNL     1      -7.706  10.468  67.422  1.00  0.00    -0.102 C  
HETATM    4  O   UNL     1      -7.941   9.123  67.815  1.00  0.00    -0.100 OA 
HETATM    5  H   UNL     1      -7.915   8.556  67.054  1.00  0.00     0.000 HD 
ENDBRANCH   2   3
TORSDOF 1
ENDMDL
MODEL      148
REMARK 921   NORMALIZED FREE ENERGY PREDICTED BY IDOCK:   -0.40 KCAL/MOL
REMARK 922        TOTAL FREE ENERGY PREDICTED BY IDOCK:   -0.43 KCAL/MOL
REMARK 923 INTER-LIGAND FREE ENERGY PREDICTED BY IDOCK:   -0.43 KCAL/MOL
REMARK 924 INTRA-LIGAND FREE ENERGY PREDICTED BY IDOCK:    0.00 KCAL/MOL
REMARK 927      BINDING AFFINITY PREDICTED BY RF-SCORE:    0.00 PKD
ROOT
HETATM    1  C   UNL     1      -9.302   3.218  67.737  1.00  0.00    -0.246 C  
HETATM    2  C   UNL     1      -8.003   3.956  67.464  1.00  0.00    -0.090 C  
ENDROOT
BRANCH   2   3
HETATM    3  C   UNL     1      -6.843   2.995  67.245  1.00  0.00    -0.045 C  
HETATM    4  O   UNL     1      -6.936   2.416  65.950  1.00  0.00    -0.045 OA 
HETATM    5  H   UNL     1      -6.212   1.817  65.813  1.00  0.00     0.000 HD 
ENDBRANCH   2   3
TORSDOF 1
ENDMDL
MODEL      149
REMARK 921   NORMALIZED FREE ENERGY PREDICTED BY IDOCK:   -0.40 KCAL/MOL
REMARK 922        TOTAL FREE ENERGY PREDICTED BY IDOCK:   -0.42 KCAL/MOL
REMARK 923 INTER-LIGAND FREE ENERGY PREDICTED BY IDOCK:   -0.42 KCAL/MOL
REMARK 924 INTRA-LIGAND FREE ENERGY PREDICTED BY IDOCK:    0.00 KCAL/MOL
REMARK 927      BINDING AFFINITY PREDICTED BY RF-SCORE:    0.00 PKD
ROOT
HETATM    1  C   UNL     1      -9.899   4.984  67.833  1.00  0.00    -0.200 C  
HETATM    2  C   UNL     1      -8.642   5.777  67.522  1.00  0.00    -0.105 C  
ENDROOT
BRANCH   2   3
HETATM    3  C   UNL     1      -7.450   4.867  67.260  1.00  0.00    -0.083 C  
HETATM    4  O   UNL     1      -6.324   5.326  67.995  1.00  0.00    -0.036 OA 
HETATM    5  H   UNL     1      -5.580   4.759  67.832  1.00  0.00     0.000 HD 
ENDBRANCH   2   3
TORSDOF 1
ENDMDL
MODEL      150
REMARK 921   NORMALIZED FREE ENERGY PREDICTED BY IDOCK:   -0.39 KCAL/MOL
REMARK 922        TOTAL FREE ENERGY PREDICTED BY IDOCK:   -0.42 KCAL/MOL
REMARK 923 INTER-LIGAND FREE ENERGY PREDICTED BY IDOCK:   -0.42 KCAL/MOL
REMARK 924 INTRA-LIGAND FREE ENERGY PREDICTED BY IDOCK:    0.00 KCAL/MOL
REMARK 927      BINDING AFFINITY PREDICTED BY RF-SCORE:    0.00 PKD
ROOT
HETATM    1  C   UNL     1      -7.403   2.540  71.721  1.00  0.00    -0.040 C  
HETATM    2  C   UNL     1      -8.384   3.368  72.532  1.00  0.00    -0.084 C  
ENDROOT
BRANCH   2   3
HETATM    3  C   UNL     1      -9.399   4.072  71.643  1.00  0.00    -0.135 C  
HETATM    4  O   UNL     1      -9.414   3.469  70.356  1.00  0.00    -0.159 OA 
HETATM    5  H   UNL     1     -10.047   3.908  69.802  1.00  0.00     0.000 HD 
ENDBRANCH   2   3
TORSDOF 1
ENDMDL
MODEL      151
REMARK 921   NORMALIZED FREE ENERGY PREDICTED BY IDOCK:   -0.39 KCAL/MOL
REMARK 922        TOTAL FREE ENERGY PREDICTED BY IDOCK:   -0.41 KCAL/MOL
REMARK 923 INTER-LIGAND FREE ENERGY PREDICTED BY IDOCK:   -0.41 KCAL/MOL
REMARK 924 INTRA-LIGAND FREE ENERGY PREDICTED BY IDOCK:    0.00 KCAL/MOL
REMARK 927      BINDING AFFINITY PREDICTED BY RF-SCORE:    0.00 PKD
ROOT
HETATM    1  C   UNL     1      -6.488   5.395  70.681  1.00  0.00    -0.035 C  
HETATM    2  C   UNL     1      -7.951   5.001  70.768  1.00  0.00    -0.087 C  
ENDROOT
BRANCH   2   3
HETATM    3  C   UNL     1      -8.850   6.208  70.994  1.00  0.00    -0.139 C  
HETATM    4  O   UNL     1      -9.399   6.161  72.304  1.00  0.00    -0.148 OA 
HETATM    5  H   UNL     1      -9.959   6.914  72.446  1.00  0.00     0.000 HD 
ENDBRANCH   2   3
TORSDOF 1
ENDMDL
MODEL      152
REMARK 921   NORMALIZED FREE ENERGY PREDICTED BY IDOCK:   -0.39 KCAL/MOL
REMARK 922        TOTAL FREE ENERGY PREDICTED BY IDOCK:   -0.41 KCAL/MOL
REMARK 923 INTER-LIGAND FREE ENERGY PREDICTED BY IDOCK:   -0.41 KCAL/MOL
REMARK 924 INTRA-LIGAND FREE ENERGY PREDICTED BY IDOCK:    0.00 KCAL/MOL
REMARK 927      BINDING AFFINITY PREDICTED BY RF-SCORE:    0.00 PKD
ROOT
HETATM    1  C   UNL     1      -9.533   4.423  64.882  1.00  0.00    -0.164 C  
HETATM    2  C   UNL     1      -8.348   5.315  64.556  1.00  0.00    -0.138 C  
ENDROOT
BRANCH   2   3
HETATM    3  C   UNL     1      -7.106   4.503  64.218  1.00  0.00    -0.050 C  
HETATM    4  O   UNL     1      -7.472   3.350  63.472  1.00  0.00    -0.056 OA 
HETATM    5  H   UNL     1      -6.698   2.844  63.261  1.00  0.00     0.000 HD 
ENDBRANCH   2   3
TORSDOF 1
ENDMDL
MODEL      153
REMARK 921   NORMALIZED FREE ENERGY PREDICTED BY IDOCK:   -0.33 KCAL/MOL
REMARK 922        TOTAL FREE ENERGY PREDICTED BY IDOCK:   -0.35 KCAL/MOL
REMARK 923 INTER-LIGAND FREE ENERGY PREDICTED BY IDOCK:   -0.35 KCAL/MOL
REMARK 924 INTRA-LIGAND FREE ENERGY PREDICTED BY IDOCK:    0.00 KCAL/MOL
REMARK 927      BINDING AFFINITY PREDICTED BY RF-SCORE:    0.00 PKD
ROOT
HETATM    1  C   UNL     1      -7.317   2.752  65.347  1.00  0.00    -0.071 C  
HETATM    2  C   UNL     1      -8.756   3.127  65.040  1.00  0.00    -0.114 C  
ENDROOT
BRANCH   2   3
HETATM    3  C   UNL     1      -9.198   2.611  63.678  1.00  0.00    -0.099 C  
HETATM    4  O   UNL     1      -8.075   2.107  62.968  1.00  0.00    -0.066 OA 
HETATM    5  H   UNL     1      -8.350   1.784  62.118  1.00  0.00     0.000 HD 
ENDBRANCH   2   3
TORSDOF 1
ENDMDL
MODEL      154
REMARK 921   NORMALIZED FREE ENERGY PREDICTED BY IDOCK:   -0.27 KCAL/MOL
REMARK 922        TOTAL FREE ENERGY PREDICTED BY IDOCK:   -0.29 KCAL/MOL
REMARK 923 INTER-LIGAND FREE ENERGY PREDICTED BY IDOCK:   -0.29 KCAL/MOL
REMARK 924 INTRA-LIGAND FREE ENERGY PREDICTED BY IDOCK:    0.00 KCAL/MOL
REMARK 927      BINDING AFFINITY PREDICTED BY RF-SCORE:    0.00 PKD
ROOT
HETATM    1  C   UNL     1      -6.482   3.144  73.119  1.00  0.00    -0.021 C  
HETATM    2  C   UNL     1      -7.386   3.860  74.106  1.00  0.00    -0.062 C  
ENDROOT
BRANCH   2   3
HETATM    3  C   UNL     1      -8.357   4.799  73.406  1.00  0.00    -0.103 C  
HETATM    4  O   UNL     1      -7.697   6.011  73.067  1.00  0.00    -0.101 OA 
HETATM    5  H   UNL     1      -8.302   6.597  72.630  1.00  0.00     0.000 HD 
ENDBRANCH   2   3
TORSDOF 1
ENDMDL
MODEL      155
REMARK 921   NORMALIZED FREE ENERGY PREDICTED BY IDOCK:   -0.19 KCAL/MOL
REMARK 922        TOTAL FREE ENERGY PREDICTED BY IDOCK:   -0.21 KCAL/MOL
REMARK 923 INTER-LIGAND FREE ENERGY PREDICTED BY IDOCK:   -0.21 KCAL/MOL
REMARK 924 INTRA-LIGAND FREE ENERGY PREDICTED BY IDOCK:    0.00 KCAL/MOL
REMARK 927      BINDING AFFINITY PREDICTED BY RF-SCORE:    0.00 PKD
ROOT
HETATM    1  C   UNL     1      -6.174   6.385  67.961  1.00  0.00    -0.032 C  
HETATM    2  C   UNL     1      -7.110   5.258  67.561  1.00  0.00    -0.067 C  
ENDROOT
BRANCH   2   3
HETATM    3  C   UNL     1      -6.906   4.021  68.424  1.00  0.00    -0.047 C  
HETATM    4  O   UNL     1      -8.161   3.554  68.900  1.00  0.00    -0.060 OA 
HETATM    5  H   UNL     1      -8.035   2.782  69.438  1.00  0.00     0.000 HD 
ENDBRANCH   2   3
TORSDOF 1
ENDMDL
