MODEL        1
REMARK 921   NORMALIZED FREE ENERGY PREDICTED BY IDOCK:   -6.67 KCAL/MOL
REMARK 922        TOTAL FREE ENERGY PREDICTED BY IDOCK:  -10.59 KCAL/MOL
REMARK 923 INTER-LIGAND FREE ENERGY PREDICTED BY IDOCK:   -9.40 KCAL/MOL
REMARK 924 INTRA-LIGAND FREE ENERGY PREDICTED BY IDOCK:   -1.18 KCAL/MOL
REMARK 927      BINDING AFFINITY PREDICTED BY RF-SCORE:    0.00 PKD
ROOT
HETATM    1  C   UNL     1     -10.216  19.999  65.946  1.00  0.00    -0.527 C  
HETATM    2  C   UNL     1      -9.477  20.291  67.258  1.00  0.00    -0.423 C  
HETATM    3  C   UNL     1     -10.278  19.844  68.481  1.00  0.00    -0.529 C  
ENDROOT
BRANCH   2   4
HETATM    4  N   UNL     1      -7.973  19.799  67.305  1.00  0.00    -0.274 N  
HETATM    5  C   UNL     1      -7.767  18.919  68.552  1.00  0.00    -0.331 C  
BRANCH   4   6
HETATM    6  C   UNL     1      -7.699  18.888  66.044  1.00  0.00    -0.213 C  
BRANCH   6   7
HETATM    7  C   UNL     1      -7.602  17.379  66.294  1.00  0.00    -0.313 C  
BRANCH   7   8
HETATM    8  O   UNL     1      -8.892  16.775  66.093  1.00  0.00    -0.361 OA 
BRANCH   8   9
HETATM    9  C   UNL     1      -9.221  15.731  66.924  1.00  0.00    -0.229 C  
HETATM   10  O   UNL     1      -8.354  15.104  67.526  1.00  0.00    -0.150 OA 
BRANCH   9  11
HETATM   11  C   UNL     1     -10.738  15.490  67.027  1.00  0.00    -0.321 C  
HETATM   12  C   UNL     1     -11.220  14.377  66.112  1.00  0.00    -0.336 A  
HETATM   13  C   UNL     1     -11.084  14.483  64.715  1.00  0.00    -0.400 A  
HETATM   14  C   UNL     1     -11.355  13.390  63.892  1.00  0.00    -0.298 A  
HETATM   15  C   UNL     1     -11.815  12.199  64.447  1.00  0.00    -0.436 A  
HETATM   16  C   UNL     1     -12.027  12.112  65.823  1.00  0.00    -0.267 A  
HETATM   17  C   UNL     1     -11.732  13.197  66.651  1.00  0.00    -0.375 A  
HETATM   18  O   UNL     1     -11.968  13.012  67.988  1.00  0.00    -0.350 OA 
HETATM   19  C   UNL     1     -11.764  14.065  68.846  1.00  0.00    -0.340 A  
HETATM   20  C   UNL     1     -12.187  13.861  70.163  1.00  0.00    -0.425 A  
HETATM   21  C   UNL     1     -12.001  14.853  71.123  1.00  0.00    -0.389 A  
HETATM   22  C   UNL     1     -11.394  16.052  70.764  1.00  0.00    -0.427 A  
HETATM   23  C   UNL     1     -10.989  16.265  69.443  1.00  0.00    -0.337 A  
HETATM   24  C   UNL     1     -11.165  15.270  68.466  1.00  0.00    -0.308 A  
ENDBRANCH   9  11
ENDBRANCH   8   9
ENDBRANCH   7   8
ENDBRANCH   6   7
ENDBRANCH   4   6
BRANCH   4  25
HETATM   25  C   UNL     1      -6.879  20.966  67.237  1.00  0.00    -0.365 C  
HETATM   26  C   UNL     1      -5.833  20.911  68.350  1.00  0.00    -0.391 C  
HETATM   27  C   UNL     1      -6.142  21.010  65.887  1.00  0.00    -0.289 C  
ENDBRANCH   4  25
ENDBRANCH   2   4
TORSDOF 7
ENDMDL
MODEL        2
REMARK 921   NORMALIZED FREE ENERGY PREDICTED BY IDOCK:   -6.67 KCAL/MOL
REMARK 922        TOTAL FREE ENERGY PREDICTED BY IDOCK:  -10.58 KCAL/MOL
REMARK 923 INTER-LIGAND FREE ENERGY PREDICTED BY IDOCK:   -9.50 KCAL/MOL
REMARK 924 INTRA-LIGAND FREE ENERGY PREDICTED BY IDOCK:   -1.08 KCAL/MOL
REMARK 927      BINDING AFFINITY PREDICTED BY RF-SCORE:    0.00 PKD
ROOT
HETATM    1  C   UNL     1     -13.392  10.038  71.972  1.00  0.00    -0.513 C  
HETATM    2  C   UNL     1     -13.097   8.554  72.218  1.00  0.00    -0.334 C  
HETATM    3  C   UNL     1     -14.161   7.645  71.602  1.00  0.00    -0.578 C  
ENDROOT
BRANCH   2   4
HETATM    4  N   UNL     1     -11.626   8.093  71.859  1.00  0.00    -0.286 N  
HETATM    5  C   UNL     1     -11.678   7.098  70.686  1.00  0.00    -0.307 C  
BRANCH   4   6
HETATM    6  C   UNL     1     -10.809   9.352  71.365  1.00  0.00    -0.360 C  
BRANCH   6   7
HETATM    7  C   UNL     1     -10.453   9.397  69.875  1.00  0.00    -0.233 C  
BRANCH   7   8
HETATM    8  O   UNL     1     -11.354  10.287  69.193  1.00  0.00    -0.230 OA 
BRANCH   8   9
HETATM    9  C   UNL     1     -10.833  11.484  68.763  1.00  0.00    -0.216 C  
HETATM   10  O   UNL     1      -9.620  11.647  68.665  1.00  0.00    -0.190 OA 
BRANCH   9  11
HETATM   11  C   UNL     1     -11.911  12.522  68.401  1.00  0.00    -0.353 C  
HETATM   12  C   UNL     1     -11.995  13.658  69.406  1.00  0.00    -0.394 A  
HETATM   13  C   UNL     1     -12.337  13.408  70.749  1.00  0.00    -0.433 A  
HETATM   14  C   UNL     1     -12.234  14.417  71.706  1.00  0.00    -0.357 A  
HETATM   15  C   UNL     1     -11.839  15.697  71.326  1.00  0.00    -0.473 A  
HETATM   16  C   UNL     1     -11.574  15.971  69.984  1.00  0.00    -0.316 A  
HETATM   17  C   UNL     1     -11.653  14.956  69.029  1.00  0.00    -0.305 A  
HETATM   18  O   UNL     1     -11.368  15.322  67.740  1.00  0.00    -0.326 OA 
HETATM   19  C   UNL     1     -11.496  14.386  66.744  1.00  0.00    -0.370 A  
HETATM   20  C   UNL     1     -11.358  14.870  65.439  1.00  0.00    -0.346 A  
HETATM   21  C   UNL     1     -11.440  14.000  64.354  1.00  0.00    -0.357 A  
HETATM   22  C   UNL     1     -11.663  12.644  64.576  1.00  0.00    -0.416 A  
HETATM   23  C   UNL     1     -11.821  12.163  65.878  1.00  0.00    -0.342 A  
HETATM   24  C   UNL     1     -11.733  13.029  66.982  1.00  0.00    -0.441 A  
ENDBRANCH   9  11
ENDBRANCH   8   9
ENDBRANCH   7   8
ENDBRANCH   6   7
ENDBRANCH   4   6
BRANCH   4  25
HETATM   25  C   UNL     1     -10.789   7.493  73.086  1.00  0.00    -0.395 C  
HETATM   26  C   UNL     1     -10.772   5.966  73.147  1.00  0.00    -0.288 C  
HETATM   27  C   UNL     1      -9.332   7.990  73.109  1.00  0.00    -0.346 C  
ENDBRANCH   4  25
ENDBRANCH   2   4
TORSDOF 7
ENDMDL
MODEL        3
REMARK 921   NORMALIZED FREE ENERGY PREDICTED BY IDOCK:   -6.65 KCAL/MOL
REMARK 922        TOTAL FREE ENERGY PREDICTED BY IDOCK:  -10.56 KCAL/MOL
REMARK 923 INTER-LIGAND FREE ENERGY PREDICTED BY IDOCK:   -9.38 KCAL/MOL
REMARK 924 INTRA-LIGAND FREE ENERGY PREDICTED BY IDOCK:   -1.18 KCAL/MOL
REMARK 927      BINDING AFFINITY PREDICTED BY RF-SCORE:    0.00 PKD
ROOT
HETATM    1  C   UNL     1     -10.624  19.588  66.045  1.00  0.00    -0.589 C  
HETATM    2  C   UNL     1      -9.235  19.170  66.544  1.00  0.00    -0.345 C  
HETATM    3  C   UNL     1      -8.588  20.248  67.414  1.00  0.00    -0.420 C  
ENDROOT
BRANCH   2   4
HETATM    4  N   UNL     1      -9.163  17.733  67.205  1.00  0.00    -0.249 N  
HETATM    5  C   UNL     1      -8.516  17.847  68.597  1.00  0.00    -0.266 C  
BRANCH   4   6
HETATM    6  C   UNL     1     -10.635  17.200  67.418  1.00  0.00    -0.297 C  
BRANCH   6   7
HETATM    7  C   UNL     1     -10.932  16.524  68.761  1.00  0.00    -0.330 C  
BRANCH   7   8
HETATM    8  O   UNL     1     -11.712  15.336  68.538  1.00  0.00    -0.340 OA 
BRANCH   8   9
HETATM    9  C   UNL     1     -11.019  14.154  68.428  1.00  0.00    -0.254 C  
HETATM   10  O   UNL     1      -9.840  14.078  68.763  1.00  0.00    -0.213 OA 
BRANCH   9  11
HETATM   11  C   UNL     1     -11.878  12.992  67.898  1.00  0.00    -0.389 C  
HETATM   12  C   UNL     1     -11.915  12.932  66.380  1.00  0.00    -0.462 A  
HETATM   13  C   UNL     1     -12.451  13.995  65.629  1.00  0.00    -0.531 A  
HETATM   14  C   UNL     1     -12.317  14.021  64.241  1.00  0.00    -0.393 A  
HETATM   15  C   UNL     1     -11.693  12.964  63.584  1.00  0.00    -0.572 A  
HETATM   16  C   UNL     1     -11.229  11.871  64.314  1.00  0.00    -0.424 A  
HETATM   17  C   UNL     1     -11.341  11.855  65.706  1.00  0.00    -0.299 A  
HETATM   18  O   UNL     1     -10.850  10.740  66.334  1.00  0.00    -0.204 OA 
HETATM   19  C   UNL     1     -10.993  10.632  67.695  1.00  0.00    -0.310 A  
HETATM   20  C   UNL     1     -10.627   9.400  68.245  1.00  0.00    -0.256 A  
HETATM   21  C   UNL     1     -10.704   9.193  69.621  1.00  0.00    -0.236 A  
HETATM   22  C   UNL     1     -11.151  10.220  70.446  1.00  0.00    -0.391 A  
HETATM   23  C   UNL     1     -11.536  11.445  69.896  1.00  0.00    -0.402 A  
HETATM   24  C   UNL     1     -11.457  11.670  68.510  1.00  0.00    -0.358 A  
ENDBRANCH   9  11
ENDBRANCH   8   9
ENDBRANCH   7   8
ENDBRANCH   6   7
ENDBRANCH   4   6
BRANCH   4  25
HETATM   25  C   UNL     1      -8.428  16.620  66.318  1.00  0.00    -0.320 C  
HETATM   26  C   UNL     1      -7.435  15.756  67.093  1.00  0.00    -0.259 C  
HETATM   27  C   UNL     1      -9.419  15.685  65.600  1.00  0.00    -0.272 C  
ENDBRANCH   4  25
ENDBRANCH   2   4
TORSDOF 7
ENDMDL
MODEL        4
REMARK 921   NORMALIZED FREE ENERGY PREDICTED BY IDOCK:   -6.62 KCAL/MOL
REMARK 922        TOTAL FREE ENERGY PREDICTED BY IDOCK:  -10.51 KCAL/MOL
REMARK 923 INTER-LIGAND FREE ENERGY PREDICTED BY IDOCK:   -9.58 KCAL/MOL
REMARK 924 INTRA-LIGAND FREE ENERGY PREDICTED BY IDOCK:   -0.93 KCAL/MOL
REMARK 927      BINDING AFFINITY PREDICTED BY RF-SCORE:    0.00 PKD
ROOT
HETATM    1  C   UNL     1     -13.481   9.930  71.958  1.00  0.00    -0.478 C  
HETATM    2  C   UNL     1     -12.709   8.606  72.001  1.00  0.00    -0.376 C  
HETATM    3  C   UNL     1     -13.537   7.440  71.462  1.00  0.00    -0.454 C  
ENDROOT
BRANCH   2   4
HETATM    4  N   UNL     1     -11.255   8.656  71.376  1.00  0.00    -0.259 N  
HETATM    5  C   UNL     1     -11.134   7.576  70.286  1.00  0.00    -0.248 C  
BRANCH   4   6
HETATM    6  C   UNL     1     -11.057  10.055  70.669  1.00  0.00    -0.335 C  
BRANCH   6   7
HETATM    7  C   UNL     1     -11.250  10.089  69.149  1.00  0.00    -0.149 C  
BRANCH   7   8
HETATM    8  O   UNL     1     -11.933  11.300  68.779  1.00  0.00    -0.431 OA 
BRANCH   8   9
HETATM    9  C   UNL     1     -11.181  12.450  68.750  1.00  0.00    -0.273 C  
HETATM   10  O   UNL     1      -9.955  12.402  68.702  1.00  0.00    -0.196 OA 
BRANCH   9  11
HETATM   11  C   UNL     1     -12.030  13.733  68.745  1.00  0.00    -0.400 C  
HETATM   12  C   UNL     1     -12.268  14.287  70.140  1.00  0.00    -0.407 A  
HETATM   13  C   UNL     1     -12.967  13.535  71.104  1.00  0.00    -0.338 A  
HETATM   14  C   UNL     1     -13.024  13.963  72.430  1.00  0.00    -0.457 A  
HETATM   15  C   UNL     1     -12.431  15.167  72.798  1.00  0.00    -0.486 A  
HETATM   16  C   UNL     1     -11.805  15.955  71.832  1.00  0.00    -0.595 A  
HETATM   17  C   UNL     1     -11.726  15.517  70.509  1.00  0.00    -0.349 A  
HETATM   18  O   UNL     1     -11.086  16.358  69.636  1.00  0.00    -0.333 OA 
HETATM   19  C   UNL     1     -11.035  16.016  68.307  1.00  0.00    -0.335 A  
HETATM   20  C   UNL     1     -10.523  16.996  67.451  1.00  0.00    -0.322 A  
HETATM   21  C   UNL     1     -10.399  16.743  66.087  1.00  0.00    -0.338 A  
HETATM   22  C   UNL     1     -10.793  15.509  65.579  1.00  0.00    -0.372 A  
HETATM   23  C   UNL     1     -11.325  14.536  66.430  1.00  0.00    -0.349 A  
HETATM   24  C   UNL     1     -11.448  14.776  67.810  1.00  0.00    -0.363 A  
ENDBRANCH   9  11
ENDBRANCH   8   9
ENDBRANCH   7   8
ENDBRANCH   6   7
ENDBRANCH   4   6
BRANCH   4  25
HETATM   25  C   UNL     1     -10.061   8.539  72.437  1.00  0.00    -0.295 C  
HETATM   26  C   UNL     1     -10.196   7.365  73.406  1.00  0.00    -0.402 C  
HETATM   27  C   UNL     1      -8.678   8.452  71.766  1.00  0.00    -0.241 C  
ENDBRANCH   4  25
ENDBRANCH   2   4
TORSDOF 7
ENDMDL
MODEL        5
REMARK 921   NORMALIZED FREE ENERGY PREDICTED BY IDOCK:   -6.53 KCAL/MOL
REMARK 922        TOTAL FREE ENERGY PREDICTED BY IDOCK:  -10.39 KCAL/MOL
REMARK 923 INTER-LIGAND FREE ENERGY PREDICTED BY IDOCK:   -8.98 KCAL/MOL
REMARK 924 INTRA-LIGAND FREE ENERGY PREDICTED BY IDOCK:   -1.41 KCAL/MOL
REMARK 927      BINDING AFFINITY PREDICTED BY RF-SCORE:    0.00 PKD
ROOT
HETATM    1  C   UNL     1     -10.760  17.095  69.017  1.00  0.00    -0.219 C  
HETATM    2  C   UNL     1      -9.336  17.015  68.454  1.00  0.00    -0.266 C  
HETATM    3  C   UNL     1      -8.612  15.744  68.898  1.00  0.00    -0.220 C  
ENDROOT
BRANCH   2   4
HETATM    4  N   UNL     1      -9.215  17.269  66.896  1.00  0.00    -0.246 N  
HETATM    5  C   UNL     1      -8.062  16.418  66.332  1.00  0.00    -0.322 C  
BRANCH   4   6
HETATM    6  C   UNL     1     -10.543  16.774  66.198  1.00  0.00    -0.210 C  
BRANCH   6   7
HETATM    7  C   UNL     1     -10.549  15.332  65.679  1.00  0.00    -0.362 C  
BRANCH   7   8
HETATM    8  O   UNL     1     -11.888  14.811  65.722  1.00  0.00    -0.309 OA 
BRANCH   8   9
HETATM    9  C   UNL     1     -12.019  13.454  65.893  1.00  0.00    -0.409 C  
HETATM   10  O   UNL     1     -12.911  12.828  65.327  1.00  0.00    -0.690 OA 
BRANCH   9  11
HETATM   11  C   UNL     1     -10.936  12.848  66.804  1.00  0.00    -0.300 C  
HETATM   12  C   UNL     1     -11.391  12.709  68.247  1.00  0.00    -0.337 A  
HETATM   13  C   UNL     1     -11.740  13.843  69.004  1.00  0.00    -0.378 A  
HETATM   14  C   UNL     1     -12.330  13.702  70.260  1.00  0.00    -0.392 A  
HETATM   15  C   UNL     1     -12.529  12.433  70.795  1.00  0.00    -0.356 A  
HETATM   16  C   UNL     1     -12.114  11.307  70.084  1.00  0.00    -0.448 A  
HETATM   17  C   UNL     1     -11.546  11.446  68.816  1.00  0.00    -0.313 A  
HETATM   18  O   UNL     1     -11.176  10.282  68.194  1.00  0.00    -0.278 OA 
HETATM   19  C   UNL     1     -10.548  10.355  66.976  1.00  0.00    -0.245 A  
HETATM   20  C   UNL     1     -10.046   9.147  66.482  1.00  0.00    -0.357 A  
HETATM   21  C   UNL     1      -9.416   9.102  65.240  1.00  0.00    -0.169 A  
HETATM   22  C   UNL     1      -9.287  10.269  64.493  1.00  0.00    -0.328 A  
HETATM   23  C   UNL     1      -9.770  11.481  64.994  1.00  0.00    -0.268 A  
HETATM   24  C   UNL     1     -10.413  11.538  66.243  1.00  0.00    -0.294 A  
ENDBRANCH   9  11
ENDBRANCH   8   9
ENDBRANCH   7   8
ENDBRANCH   6   7
ENDBRANCH   4   6
BRANCH   4  25
HETATM   25  C   UNL     1      -9.056  18.806  66.474  1.00  0.00    -0.323 C  
HETATM   26  C   UNL     1     -10.364  19.483  66.066  1.00  0.00    -0.604 C  
HETATM   27  C   UNL     1      -8.397  19.658  67.574  1.00  0.00    -0.337 C  
ENDBRANCH   4  25
ENDBRANCH   2   4
TORSDOF 7
ENDMDL
MODEL        6
REMARK 921   NORMALIZED FREE ENERGY PREDICTED BY IDOCK:   -6.52 KCAL/MOL
REMARK 922        TOTAL FREE ENERGY PREDICTED BY IDOCK:  -10.37 KCAL/MOL
REMARK 923 INTER-LIGAND FREE ENERGY PREDICTED BY IDOCK:   -9.46 KCAL/MOL
REMARK 924 INTRA-LIGAND FREE ENERGY PREDICTED BY IDOCK:   -0.91 KCAL/MOL
REMARK 927      BINDING AFFINITY PREDICTED BY RF-SCORE:    0.00 PKD
ROOT
HETATM    1  C   UNL     1     -10.517  19.648  65.840  1.00  0.00    -0.591 C  
HETATM    2  C   UNL     1      -9.607  20.095  66.991  1.00  0.00    -0.424 C  
HETATM    3  C   UNL     1     -10.314  20.023  68.344  1.00  0.00    -0.465 C  
ENDROOT
BRANCH   2   4
HETATM    4  N   UNL     1      -8.176  19.418  67.017  1.00  0.00    -0.265 N  
HETATM    5  C   UNL     1      -7.672  19.356  68.470  1.00  0.00    -0.345 C  
BRANCH   4   6
HETATM    6  C   UNL     1      -8.312  17.929  66.507  1.00  0.00    -0.262 C  
BRANCH   6   7
HETATM    7  C   UNL     1      -8.373  16.839  67.583  1.00  0.00    -0.182 C  
BRANCH   7   8
HETATM    8  O   UNL     1      -9.730  16.682  68.031  1.00  0.00    -0.234 OA 
BRANCH   8   9
HETATM    9  C   UNL     1      -9.965  15.694  68.957  1.00  0.00    -0.233 C  
HETATM   10  O   UNL     1      -9.111  15.386  69.784  1.00  0.00    -0.243 OA 
BRANCH   9  11
HETATM   11  C   UNL     1     -11.376  15.086  68.855  1.00  0.00    -0.312 C  
HETATM   12  C   UNL     1     -11.411  13.818  68.018  1.00  0.00    -0.344 A  
HETATM   13  C   UNL     1     -11.057  13.844  66.656  1.00  0.00    -0.310 A  
HETATM   14  C   UNL     1     -10.912  12.657  65.939  1.00  0.00    -0.310 A  
HETATM   15  C   UNL     1     -11.169  11.437  66.557  1.00  0.00    -0.276 A  
HETATM   16  C   UNL     1     -11.596  11.408  67.885  1.00  0.00    -0.337 A  
HETATM   17  C   UNL     1     -11.718  12.595  68.611  1.00  0.00    -0.325 A  
HETATM   18  O   UNL     1     -12.138  12.463  69.908  1.00  0.00    -0.299 OA 
HETATM   19  C   UNL     1     -12.345  13.597  70.654  1.00  0.00    -0.368 A  
HETATM   20  C   UNL     1     -12.936  13.398  71.906  1.00  0.00    -0.422 A  
HETATM   21  C   UNL     1     -13.163  14.478  72.756  1.00  0.00    -0.600 A  
HETATM   22  C   UNL     1     -12.801  15.759  72.351  1.00  0.00    -0.539 A  
HETATM   23  C   UNL     1     -12.230  15.962  71.092  1.00  0.00    -0.447 A  
HETATM   24  C   UNL     1     -11.989  14.880  70.227  1.00  0.00    -0.365 A  
ENDBRANCH   9  11
ENDBRANCH   8   9
ENDBRANCH   7   8
ENDBRANCH   6   7
ENDBRANCH   4   6
BRANCH   4  25
HETATM   25  C   UNL     1      -7.090  20.102  66.059  1.00  0.00    -0.287 C  
HETATM   26  C   UNL     1      -6.173  21.101  66.764  1.00  0.00    -0.381 C  
HETATM   27  C   UNL     1      -6.207  19.071  65.333  1.00  0.00    -0.300 C  
ENDBRANCH   4  25
ENDBRANCH   2   4
TORSDOF 7
ENDMDL
MODEL        7
REMARK 921   NORMALIZED FREE ENERGY PREDICTED BY IDOCK:   -6.51 KCAL/MOL
REMARK 922        TOTAL FREE ENERGY PREDICTED BY IDOCK:  -10.36 KCAL/MOL
REMARK 923 INTER-LIGAND FREE ENERGY PREDICTED BY IDOCK:   -9.36 KCAL/MOL
REMARK 924 INTRA-LIGAND FREE ENERGY PREDICTED BY IDOCK:   -0.99 KCAL/MOL
REMARK 927      BINDING AFFINITY PREDICTED BY RF-SCORE:    0.00 PKD
ROOT
HETATM    1  C   UNL     1     -10.600  19.430  65.908  1.00  0.00    -0.551 C  
HETATM    2  C   UNL     1      -9.580  18.889  66.917  1.00  0.00    -0.314 C  
HETATM    3  C   UNL     1      -9.855  19.385  68.336  1.00  0.00    -0.513 C  
ENDROOT
BRANCH   2   4
HETATM    4  N   UNL     1      -9.341  17.325  66.856  1.00  0.00    -0.247 N  
HETATM    5  C   UNL     1      -9.596  16.719  68.249  1.00  0.00    -0.244 C  
BRANCH   4   6
HETATM    6  C   UNL     1     -10.400  16.690  65.872  1.00  0.00    -0.340 C  
BRANCH   6   7
HETATM    7  C   UNL     1     -10.427  15.159  65.788  1.00  0.00    -0.339 C  
BRANCH   7   8
HETATM    8  O   UNL     1     -11.789  14.701  65.828  1.00  0.00    -0.346 OA 
BRANCH   8   9
HETATM    9  C   UNL     1     -11.986  13.371  66.116  1.00  0.00    -0.413 C  
HETATM   10  O   UNL     1     -12.873  12.728  65.561  1.00  0.00    -0.531 OA 
BRANCH   9  11
HETATM   11  C   UNL     1     -10.978  12.814  67.137  1.00  0.00    -0.295 C  
HETATM   12  C   UNL     1     -11.472  12.920  68.570  1.00  0.00    -0.345 A  
HETATM   13  C   UNL     1     -11.737  14.176  69.149  1.00  0.00    -0.368 A  
HETATM   14  C   UNL     1     -12.362  14.264  70.392  1.00  0.00    -0.419 A  
HETATM   15  C   UNL     1     -12.681  13.105  71.093  1.00  0.00    -0.386 A  
HETATM   16  C   UNL     1     -12.350  11.859  70.561  1.00  0.00    -0.372 A  
HETATM   17  C   UNL     1     -11.746  11.768  69.305  1.00  0.00    -0.335 A  
HETATM   18  O   UNL     1     -11.466  10.501  68.865  1.00  0.00    -0.255 OA 
HETATM   19  C   UNL     1     -10.809  10.348  67.669  1.00  0.00    -0.306 A  
HETATM   20  C   UNL     1     -10.403   9.044  67.366  1.00  0.00    -0.335 A  
HETATM   21  C   UNL     1      -9.755   8.772  66.163  1.00  0.00    -0.320 A  
HETATM   22  C   UNL     1      -9.510   9.805  65.265  1.00  0.00    -0.343 A  
HETATM   23  C   UNL     1      -9.897  11.112  65.575  1.00  0.00    -0.281 A  
HETATM   24  C   UNL     1     -10.558  11.400  66.783  1.00  0.00    -0.298 A  
ENDBRANCH   9  11
ENDBRANCH   8   9
ENDBRANCH   7   8
ENDBRANCH   6   7
ENDBRANCH   4   6
BRANCH   4  25
HETATM   25  C   UNL     1      -7.909  16.884  66.290  1.00  0.00    -0.311 C  
HETATM   26  C   UNL     1      -6.995  18.050  65.915  1.00  0.00    -0.319 C  
HETATM   27  C   UNL     1      -7.144  15.968  67.262  1.00  0.00    -0.238 C  
ENDBRANCH   4  25
ENDBRANCH   2   4
TORSDOF 7
ENDMDL
MODEL        8
REMARK 921   NORMALIZED FREE ENERGY PREDICTED BY IDOCK:   -6.51 KCAL/MOL
REMARK 922        TOTAL FREE ENERGY PREDICTED BY IDOCK:  -10.35 KCAL/MOL
REMARK 923 INTER-LIGAND FREE ENERGY PREDICTED BY IDOCK:   -9.52 KCAL/MOL
REMARK 924 INTRA-LIGAND FREE ENERGY PREDICTED BY IDOCK:   -0.83 KCAL/MOL
REMARK 927      BINDING AFFINITY PREDICTED BY RF-SCORE:    0.00 PKD
ROOT
HETATM    1  C   UNL     1     -14.149   7.013  71.580  1.00  0.00    -0.404 C  
HETATM    2  C   UNL     1     -13.261   8.259  71.484  1.00  0.00    -0.287 C  
HETATM    3  C   UNL     1     -13.655   9.326  72.506  1.00  0.00    -0.478 C  
ENDROOT
BRANCH   2   4
HETATM    4  N   UNL     1     -11.704   7.975  71.475  1.00  0.00    -0.274 N  
HETATM    5  C   UNL     1     -11.352   7.121  70.243  1.00  0.00    -0.269 C  
BRANCH   4   6
HETATM    6  C   UNL     1     -10.941   9.350  71.321  1.00  0.00    -0.370 C  
BRANCH   6   7
HETATM    7  C   UNL     1     -10.794   9.898  69.898  1.00  0.00    -0.278 C  
BRANCH   7   8
HETATM    8  O   UNL     1     -12.000  10.585  69.521  1.00  0.00    -0.259 OA 
BRANCH   8   9
HETATM    9  C   UNL     1     -11.852  11.728  68.773  1.00  0.00    -0.320 C  
HETATM   10  O   UNL     1     -12.236  11.776  67.607  1.00  0.00    -0.534 OA 
BRANCH   9  11
HETATM   11  C   UNL     1     -11.216  12.891  69.556  1.00  0.00    -0.143 C  
HETATM   12  C   UNL     1     -10.543  13.910  68.653  1.00  0.00    -0.265 A  
HETATM   13  C   UNL     1      -9.457  13.543  67.836  1.00  0.00    -0.215 A  
HETATM   14  C   UNL     1      -8.962  14.426  66.876  1.00  0.00    -0.263 A  
HETATM   15  C   UNL     1      -9.509  15.700  66.758  1.00  0.00    -0.261 A  
HETATM   16  C   UNL     1     -10.533  16.099  67.617  1.00  0.00    -0.292 A  
HETATM   17  C   UNL     1     -11.046  15.207  68.561  1.00  0.00    -0.276 A  
HETATM   18  O   UNL     1     -12.054  15.689  69.354  1.00  0.00    -0.356 OA 
HETATM   19  C   UNL     1     -12.554  14.885  70.349  1.00  0.00    -0.343 A  
HETATM   20  C   UNL     1     -13.454  15.498  71.226  1.00  0.00    -0.560 A  
HETATM   21  C   UNL     1     -14.044  14.765  72.253  1.00  0.00    -0.587 A  
HETATM   22  C   UNL     1     -13.730  13.418  72.405  1.00  0.00    -0.698 A  
HETATM   23  C   UNL     1     -12.814  12.810  71.542  1.00  0.00    -0.369 A  
HETATM   24  C   UNL     1     -12.217  13.536  70.496  1.00  0.00    -0.433 A  
ENDBRANCH   9  11
ENDBRANCH   8   9
ENDBRANCH   7   8
ENDBRANCH   6   7
ENDBRANCH   4   6
BRANCH   4  25
HETATM   25  C   UNL     1     -11.131   7.314  72.816  1.00  0.00    -0.319 C  
HETATM   26  C   UNL     1     -11.001   5.792  72.760  1.00  0.00    -0.314 C  
HETATM   27  C   UNL     1      -9.767   7.896  73.229  1.00  0.00    -0.352 C  
ENDBRANCH   4  25
ENDBRANCH   2   4
TORSDOF 7
ENDMDL
MODEL        9
REMARK 921   NORMALIZED FREE ENERGY PREDICTED BY IDOCK:   -6.45 KCAL/MOL
REMARK 922        TOTAL FREE ENERGY PREDICTED BY IDOCK:  -10.28 KCAL/MOL
REMARK 923 INTER-LIGAND FREE ENERGY PREDICTED BY IDOCK:   -8.91 KCAL/MOL
REMARK 924 INTRA-LIGAND FREE ENERGY PREDICTED BY IDOCK:   -1.37 KCAL/MOL
REMARK 927      BINDING AFFINITY PREDICTED BY RF-SCORE:    0.00 PKD
ROOT
HETATM    1  C   UNL     1     -10.687  17.084  65.640  1.00  0.00    -0.150 C  
HETATM    2  C   UNL     1      -9.845  18.202  66.265  1.00  0.00    -0.310 C  
HETATM    3  C   UNL     1     -10.655  19.481  66.481  1.00  0.00    -0.579 C  
ENDROOT
BRANCH   2   4
HETATM    4  N   UNL     1      -9.021  17.783  67.550  1.00  0.00    -0.242 N  
HETATM    5  C   UNL     1      -9.863  18.065  68.808  1.00  0.00    -0.354 C  
BRANCH   4   6
HETATM    6  C   UNL     1      -8.766  16.225  67.501  1.00  0.00    -0.181 C  
BRANCH   6   7
HETATM    7  C   UNL     1      -9.302  15.404  68.679  1.00  0.00    -0.202 C  
BRANCH   7   8
HETATM    8  O   UNL     1     -10.054  14.284  68.181  1.00  0.00    -0.221 OA 
BRANCH   8   9
HETATM    9  C   UNL     1     -11.423  14.371  68.265  1.00  0.00    -0.305 C  
HETATM   10  O   UNL     1     -11.967  15.392  68.679  1.00  0.00    -0.319 OA 
BRANCH   9  11
HETATM   11  C   UNL     1     -12.146  13.109  67.763  1.00  0.00    -0.262 C  
HETATM   12  C   UNL     1     -11.976  12.888  66.269  1.00  0.00    -0.472 A  
HETATM   13  C   UNL     1     -12.459  13.832  65.343  1.00  0.00    -0.532 A  
HETATM   14  C   UNL     1     -12.142  13.722  63.989  1.00  0.00    -0.448 A  
HETATM   15  C   UNL     1     -11.386  12.643  63.538  1.00  0.00    -0.527 A  
HETATM   16  C   UNL     1     -10.970  11.663  64.439  1.00  0.00    -0.399 A  
HETATM   17  C   UNL     1     -11.266  11.785  65.798  1.00  0.00    -0.281 A  
HETATM   18  O   UNL     1     -10.809  10.775  66.604  1.00  0.00    -0.237 OA 
HETATM   19  C   UNL     1     -11.127  10.801  67.939  1.00  0.00    -0.308 A  
HETATM   20  C   UNL     1     -10.778   9.658  68.666  1.00  0.00    -0.233 A  
HETATM   21  C   UNL     1     -11.028   9.591  70.034  1.00  0.00    -0.284 A  
HETATM   22  C   UNL     1     -11.631  10.668  70.676  1.00  0.00    -0.432 A  
HETATM   23  C   UNL     1     -11.998  11.803  69.948  1.00  0.00    -0.405 A  
HETATM   24  C   UNL     1     -11.745  11.887  68.568  1.00  0.00    -0.388 A  
ENDBRANCH   9  11
ENDBRANCH   8   9
ENDBRANCH   7   8
ENDBRANCH   6   7
ENDBRANCH   4   6
BRANCH   4  25
HETATM   25  C   UNL     1      -7.570  18.451  67.668  1.00  0.00    -0.229 C  
HETATM   26  C   UNL     1      -6.983  18.917  66.336  1.00  0.00    -0.244 C  
HETATM   27  C   UNL     1      -7.542  19.640  68.646  1.00  0.00    -0.366 C  
ENDBRANCH   4  25
ENDBRANCH   2   4
TORSDOF 7
ENDMDL
MODEL       10
REMARK 921   NORMALIZED FREE ENERGY PREDICTED BY IDOCK:   -6.41 KCAL/MOL
REMARK 922        TOTAL FREE ENERGY PREDICTED BY IDOCK:  -10.21 KCAL/MOL
REMARK 923 INTER-LIGAND FREE ENERGY PREDICTED BY IDOCK:   -9.20 KCAL/MOL
REMARK 924 INTRA-LIGAND FREE ENERGY PREDICTED BY IDOCK:   -1.01 KCAL/MOL
REMARK 927      BINDING AFFINITY PREDICTED BY RF-SCORE:    0.00 PKD
ROOT
HETATM    1  C   UNL     1      -6.371  18.451  69.395  1.00  0.00    -0.259 C  
HETATM    2  C   UNL     1      -7.143  19.501  68.589  1.00  0.00    -0.338 C  
HETATM    3  C   UNL     1      -6.250  20.664  68.154  1.00  0.00    -0.350 C  
ENDROOT
BRANCH   2   4
HETATM    4  N   UNL     1      -8.013  18.927  67.397  1.00  0.00    -0.245 N  
HETATM    5  C   UNL     1      -7.559  19.578  66.078  1.00  0.00    -0.315 C  
BRANCH   4   6
HETATM    6  C   UNL     1      -7.736  17.377  67.270  1.00  0.00    -0.200 C  
BRANCH   6   7
HETATM    7  C   UNL     1      -8.881  16.440  67.671  1.00  0.00    -0.188 C  
BRANCH   7   8
HETATM    8  O   UNL     1      -9.163  15.536  66.589  1.00  0.00    -0.229 OA 
BRANCH   8   9
HETATM    9  C   UNL     1     -10.343  15.730  65.912  1.00  0.00    -0.354 C  
HETATM   10  O   UNL     1     -10.478  16.671  65.134  1.00  0.00    -0.647 OA 
BRANCH   9  11
HETATM   11  C   UNL     1     -11.400  14.652  66.208  1.00  0.00    -0.347 C  
HETATM   12  C   UNL     1     -11.100  13.329  65.523  1.00  0.00    -0.299 A  
HETATM   13  C   UNL     1     -11.047  13.242  64.119  1.00  0.00    -0.393 A  
HETATM   14  C   UNL     1     -10.593  12.078  63.499  1.00  0.00    -0.514 A  
HETATM   15  C   UNL     1     -10.236  10.975  64.268  1.00  0.00    -0.414 A  
HETATM   16  C   UNL     1     -10.359  11.028  65.657  1.00  0.00    -0.311 A  
HETATM   17  C   UNL     1     -10.791  12.200  66.280  1.00  0.00    -0.282 A  
HETATM   18  O   UNL     1     -10.874  12.156  67.647  1.00  0.00    -0.218 OA 
HETATM   19  C   UNL     1     -11.358  13.254  68.315  1.00  0.00    -0.300 A  
HETATM   20  C   UNL     1     -11.578  13.079  69.685  1.00  0.00    -0.322 A  
HETATM   21  C   UNL     1     -12.039  14.138  70.464  1.00  0.00    -0.420 A  
HETATM   22  C   UNL     1     -12.285  15.372  69.870  1.00  0.00    -0.363 A  
HETATM   23  C   UNL     1     -12.086  15.542  68.497  1.00  0.00    -0.048 A  
HETATM   24  C   UNL     1     -11.614  14.484  67.701  1.00  0.00    -0.402 A  
ENDBRANCH   9  11
ENDBRANCH   8   9
ENDBRANCH   7   8
ENDBRANCH   6   7
ENDBRANCH   4   6
BRANCH   4  25
HETATM   25  C   UNL     1      -9.597  19.065  67.591  1.00  0.00    -0.309 C  
HETATM   26  C   UNL     1     -10.016  19.619  68.952  1.00  0.00    -0.524 C  
HETATM   27  C   UNL     1     -10.255  19.927  66.499  1.00  0.00    -0.611 C  
ENDBRANCH   4  25
ENDBRANCH   2   4
TORSDOF 7
ENDMDL
MODEL       11
REMARK 921   NORMALIZED FREE ENERGY PREDICTED BY IDOCK:   -6.40 KCAL/MOL
REMARK 922        TOTAL FREE ENERGY PREDICTED BY IDOCK:  -10.20 KCAL/MOL
REMARK 923 INTER-LIGAND FREE ENERGY PREDICTED BY IDOCK:   -8.93 KCAL/MOL
REMARK 924 INTRA-LIGAND FREE ENERGY PREDICTED BY IDOCK:   -1.27 KCAL/MOL
REMARK 927      BINDING AFFINITY PREDICTED BY RF-SCORE:    0.00 PKD
ROOT
HETATM    1  C   UNL     1     -10.368  17.247  68.965  1.00  0.00    -0.330 C  
HETATM    2  C   UNL     1      -9.044  17.706  68.342  1.00  0.00    -0.277 C  
HETATM    3  C   UNL     1      -7.859  16.874  68.832  1.00  0.00    -0.233 C  
ENDROOT
BRANCH   2   4
HETATM    4  N   UNL     1      -9.063  17.865  66.767  1.00  0.00    -0.261 N  
HETATM    5  C   UNL     1      -7.971  16.970  66.154  1.00  0.00    -0.264 C  
BRANCH   4   6
HETATM    6  C   UNL     1     -10.452  17.343  66.223  1.00  0.00    -0.276 C  
BRANCH   6   7
HETATM    7  C   UNL     1     -10.461  15.945  65.596  1.00  0.00    -0.392 C  
BRANCH   7   8
HETATM    8  O   UNL     1     -11.233  15.054  66.421  1.00  0.00    -0.342 OA 
BRANCH   8   9
HETATM    9  C   UNL     1     -10.573  13.969  66.945  1.00  0.00    -0.280 C  
HETATM   10  O   UNL     1      -9.493  14.100  67.515  1.00  0.00    -0.201 OA 
BRANCH   9  11
HETATM   11  C   UNL     1     -11.341  12.646  66.769  1.00  0.00    -0.373 C  
HETATM   12  C   UNL     1     -10.811  11.807  65.618  1.00  0.00    -0.342 A  
HETATM   13  C   UNL     1     -10.851  12.290  64.297  1.00  0.00    -0.392 A  
HETATM   14  C   UNL     1     -10.201  11.603  63.272  1.00  0.00    -0.445 A  
HETATM   15  C   UNL     1      -9.551  10.402  63.544  1.00  0.00    -0.361 A  
HETATM   16  C   UNL     1      -9.575   9.878  64.836  1.00  0.00    -0.356 A  
HETATM   17  C   UNL     1     -10.204  10.577  65.868  1.00  0.00    -0.245 A  
HETATM   18  O   UNL     1     -10.168   9.984  67.103  1.00  0.00    -0.203 OA 
HETATM   19  C   UNL     1     -10.828  10.587  68.144  1.00  0.00    -0.253 A  
HETATM   20  C   UNL     1     -10.896   9.845  69.327  1.00  0.00    -0.255 A  
HETATM   21  C   UNL     1     -11.517  10.375  70.456  1.00  0.00    -0.431 A  
HETATM   22  C   UNL     1     -12.074  11.648  70.399  1.00  0.00    -0.462 A  
HETATM   23  C   UNL     1     -12.025  12.384  69.211  1.00  0.00    -0.308 A  
HETATM   24  C   UNL     1     -11.395  11.863  68.067  1.00  0.00    -0.352 A  
ENDBRANCH   9  11
ENDBRANCH   8   9
ENDBRANCH   7   8
ENDBRANCH   6   7
ENDBRANCH   4   6
BRANCH   4  25
HETATM   25  C   UNL     1      -8.935  19.372  66.240  1.00  0.00    -0.346 C  
HETATM   26  C   UNL     1     -10.273  20.086  66.048  1.00  0.00    -0.568 C  
HETATM   27  C   UNL     1      -8.052  20.246  67.150  1.00  0.00    -0.379 C  
ENDBRANCH   4  25
ENDBRANCH   2   4
TORSDOF 7
ENDMDL
MODEL       12
REMARK 921   NORMALIZED FREE ENERGY PREDICTED BY IDOCK:   -6.39 KCAL/MOL
REMARK 922        TOTAL FREE ENERGY PREDICTED BY IDOCK:  -10.19 KCAL/MOL
REMARK 923 INTER-LIGAND FREE ENERGY PREDICTED BY IDOCK:   -8.99 KCAL/MOL
REMARK 924 INTRA-LIGAND FREE ENERGY PREDICTED BY IDOCK:   -1.20 KCAL/MOL
REMARK 927      BINDING AFFINITY PREDICTED BY RF-SCORE:    0.00 PKD
ROOT
HETATM    1  C   UNL     1      -7.039  17.578  66.397  1.00  0.00    -0.321 C  
HETATM    2  C   UNL     1      -8.091  16.886  67.272  1.00  0.00    -0.184 C  
HETATM    3  C   UNL     1      -7.640  16.766  68.728  1.00  0.00    -0.240 C  
ENDROOT
BRANCH   2   4
HETATM    4  N   UNL     1      -9.559  17.461  67.138  1.00  0.00    -0.258 N  
HETATM    5  C   UNL     1     -10.236  16.842  65.902  1.00  0.00    -0.328 C  
BRANCH   4   6
HETATM    6  C   UNL     1     -10.396  17.012  68.401  1.00  0.00    -0.351 C  
BRANCH   6   7
HETATM    7  C   UNL     1     -11.622  16.132  68.133  1.00  0.00    -0.133 C  
BRANCH   7   8
HETATM    8  O   UNL     1     -11.489  14.892  68.850  1.00  0.00    -0.269 OA 
BRANCH   8   9
HETATM    9  C   UNL     1     -10.781  13.892  68.228  1.00  0.00    -0.251 C  
HETATM   10  O   UNL     1      -9.557  13.947  68.136  1.00  0.00    -0.206 OA 
BRANCH   9  11
HETATM   11  C   UNL     1     -11.668  12.739  67.727  1.00  0.00    -0.412 C  
HETATM   12  C   UNL     1     -11.704  12.639  66.211  1.00  0.00    -0.460 A  
HETATM   13  C   UNL     1     -12.212  13.695  65.432  1.00  0.00    -0.474 A  
HETATM   14  C   UNL     1     -12.076  13.681  64.044  1.00  0.00    -0.474 A  
HETATM   15  C   UNL     1     -11.478  12.592  63.416  1.00  0.00    -0.523 A  
HETATM   16  C   UNL     1     -11.042  11.506  64.176  1.00  0.00    -0.417 A  
HETATM   17  C   UNL     1     -11.156  11.530  65.568  1.00  0.00    -0.191 A  
HETATM   18  O   UNL     1     -10.694  10.421  66.226  1.00  0.00    -0.151 OA 
HETATM   19  C   UNL     1     -10.842  10.353  67.589  1.00  0.00    -0.306 A  
HETATM   20  C   UNL     1     -10.508   9.127  68.173  1.00  0.00    -0.260 A  
HETATM   21  C   UNL     1     -10.592   8.958  69.553  1.00  0.00    -0.233 A  
HETATM   22  C   UNL     1     -11.014  10.017  70.350  1.00  0.00    -0.384 A  
HETATM   23  C   UNL     1     -11.368  11.237  69.766  1.00  0.00    -0.348 A  
HETATM   24  C   UNL     1     -11.280  11.423  68.375  1.00  0.00    -0.324 A  
ENDBRANCH   9  11
ENDBRANCH   8   9
ENDBRANCH   7   8
ENDBRANCH   6   7
ENDBRANCH   4   6
BRANCH   4  25
HETATM   25  C   UNL     1      -9.657  19.060  67.106  1.00  0.00    -0.312 C  
HETATM   26  C   UNL     1     -10.535  19.613  65.984  1.00  0.00    -0.622 C  
HETATM   27  C   UNL     1     -10.152  19.650  68.439  1.00  0.00    -0.557 C  
ENDBRANCH   4  25
ENDBRANCH   2   4
TORSDOF 7
ENDMDL
MODEL       13
REMARK 921   NORMALIZED FREE ENERGY PREDICTED BY IDOCK:   -6.36 KCAL/MOL
REMARK 922        TOTAL FREE ENERGY PREDICTED BY IDOCK:  -10.15 KCAL/MOL
REMARK 923 INTER-LIGAND FREE ENERGY PREDICTED BY IDOCK:   -9.15 KCAL/MOL
REMARK 924 INTRA-LIGAND FREE ENERGY PREDICTED BY IDOCK:   -1.00 KCAL/MOL
REMARK 927      BINDING AFFINITY PREDICTED BY RF-SCORE:    0.00 PKD
ROOT
HETATM    1  C   UNL     1      -9.105   7.063  69.266  1.00  0.00    -0.137 C  
HETATM    2  C   UNL     1     -10.530   7.553  69.548  1.00  0.00    -0.226 C  
HETATM    3  C   UNL     1     -11.527   6.398  69.645  1.00  0.00    -0.446 C  
ENDROOT
BRANCH   2   4
HETATM    4  N   UNL     1     -10.664   8.572  70.752  1.00  0.00    -0.211 N  
HETATM    5  C   UNL     1      -9.259   8.983  71.227  1.00  0.00    -0.244 C  
BRANCH   4   6
HETATM    6  C   UNL     1     -11.379   9.880  70.229  1.00  0.00    -0.291 C  
BRANCH   6   7
HETATM    7  C   UNL     1     -11.254  10.179  68.731  1.00  0.00    -0.164 C  
BRANCH   7   8
HETATM    8  O   UNL     1     -11.903  11.428  68.435  1.00  0.00    -0.463 OA 
BRANCH   8   9
HETATM    9  C   UNL     1     -11.181  12.572  68.673  1.00  0.00    -0.278 C  
HETATM   10  O   UNL     1      -9.957  12.539  68.769  1.00  0.00    -0.145 OA 
BRANCH   9  11
HETATM   11  C   UNL     1     -12.054  13.837  68.760  1.00  0.00    -0.344 C  
HETATM   12  C   UNL     1     -12.400  14.216  70.190  1.00  0.00    -0.413 A  
HETATM   13  C   UNL     1     -13.148  13.346  71.005  1.00  0.00    -0.185 A  
HETATM   14  C   UNL     1     -13.307  13.611  72.365  1.00  0.00    -0.641 A  
HETATM   15  C   UNL     1     -12.766  14.770  72.915  1.00  0.00    -0.521 A  
HETATM   16  C   UNL     1     -12.090  15.675  72.097  1.00  0.00    -0.539 A  
HETATM   17  C   UNL     1     -11.910  15.400  70.740  1.00  0.00    -0.353 A  
HETATM   18  O   UNL     1     -11.228  16.347  70.022  1.00  0.00    -0.348 OA 
HETATM   19  C   UNL     1     -11.078  16.168  68.669  1.00  0.00    -0.356 A  
HETATM   20  C   UNL     1     -10.528  17.249  67.974  1.00  0.00    -0.375 A  
HETATM   21  C   UNL     1     -10.304  17.163  66.601  1.00  0.00    -0.310 A  
HETATM   22  C   UNL     1     -10.636  15.994  65.923  1.00  0.00    -0.338 A  
HETATM   23  C   UNL     1     -11.206  14.920  66.613  1.00  0.00    -0.340 A  
HETATM   24  C   UNL     1     -11.430  14.991  67.999  1.00  0.00    -0.357 A  
ENDBRANCH   9  11
ENDBRANCH   8   9
ENDBRANCH   7   8
ENDBRANCH   6   7
ENDBRANCH   4   6
BRANCH   4  25
HETATM   25  C   UNL     1     -11.557   8.055  71.976  1.00  0.00    -0.316 C  
HETATM   26  C   UNL     1     -10.757   7.686  73.225  1.00  0.00    -0.409 C  
HETATM   27  C   UNL     1     -12.645   9.065  72.385  1.00  0.00    -0.403 C  
ENDBRANCH   4  25
ENDBRANCH   2   4
TORSDOF 7
ENDMDL
MODEL       14
REMARK 921   NORMALIZED FREE ENERGY PREDICTED BY IDOCK:   -6.34 KCAL/MOL
REMARK 922        TOTAL FREE ENERGY PREDICTED BY IDOCK:  -10.13 KCAL/MOL
REMARK 923 INTER-LIGAND FREE ENERGY PREDICTED BY IDOCK:   -9.09 KCAL/MOL
REMARK 924 INTRA-LIGAND FREE ENERGY PREDICTED BY IDOCK:   -1.04 KCAL/MOL
REMARK 927      BINDING AFFINITY PREDICTED BY RF-SCORE:    0.00 PKD
ROOT
HETATM    1  C   UNL     1      -6.295  17.636  68.672  1.00  0.00    -0.192 C  
HETATM    2  C   UNL     1      -7.360  18.733  68.564  1.00  0.00    -0.297 C  
HETATM    3  C   UNL     1      -6.755  20.090  68.203  1.00  0.00    -0.326 C  
ENDROOT
BRANCH   2   4
HETATM    4  N   UNL     1      -8.611  18.368  67.664  1.00  0.00    -0.257 N  
HETATM    5  C   UNL     1      -8.129  17.630  66.402  1.00  0.00    -0.267 C  
BRANCH   4   6
HETATM    6  C   UNL     1      -9.534  17.367  68.464  1.00  0.00    -0.297 C  
BRANCH   6   7
HETATM    7  C   UNL     1      -9.802  16.008  67.809  1.00  0.00    -0.231 C  
BRANCH   7   8
HETATM    8  O   UNL     1     -11.217  15.837  67.619  1.00  0.00    -0.318 OA 
BRANCH   8   9
HETATM    9  C   UNL     1     -11.724  14.580  67.847  1.00  0.00    -0.351 C  
HETATM   10  O   UNL     1     -12.534  14.075  67.074  1.00  0.00    -0.326 OA 
BRANCH   9  11
HETATM   11  C   UNL     1     -11.146  13.909  69.105  1.00  0.00    -0.284 C  
HETATM   12  C   UNL     1     -11.987  14.161  70.346  1.00  0.00    -0.400 A  
HETATM   13  C   UNL     1     -12.179  15.468  70.832  1.00  0.00    -0.450 A  
HETATM   14  C   UNL     1     -13.095  15.716  71.854  1.00  0.00    -0.545 A  
HETATM   15  C   UNL     1     -13.789  14.658  72.436  1.00  0.00    -0.580 A  
HETATM   16  C   UNL     1     -13.545  13.352  72.012  1.00  0.00    -0.577 A  
HETATM   17  C   UNL     1     -12.647  13.105  70.973  1.00  0.00    -0.312 A  
HETATM   18  O   UNL     1     -12.480  11.790  70.624  1.00  0.00    -0.324 OA 
HETATM   19  C   UNL     1     -11.558  11.476  69.656  1.00  0.00    -0.333 A  
HETATM   20  C   UNL     1     -11.316  10.111  69.473  1.00  0.00    -0.260 A  
HETATM   21  C   UNL     1     -10.422   9.680  68.497  1.00  0.00    -0.241 A  
HETATM   22  C   UNL     1      -9.766  10.616  67.704  1.00  0.00    -0.186 A  
HETATM   23  C   UNL     1      -9.991  11.982  67.899  1.00  0.00    -0.199 A  
HETATM   24  C   UNL     1     -10.897  12.430  68.877  1.00  0.00    -0.239 A  
ENDBRANCH   9  11
ENDBRANCH   8   9
ENDBRANCH   7   8
ENDBRANCH   6   7
ENDBRANCH   4   6
BRANCH   4  25
HETATM   25  C   UNL     1      -9.551  19.607  67.282  1.00  0.00    -0.346 C  
HETATM   26  C   UNL     1     -10.411  19.383  66.039  1.00  0.00    -0.584 C  
HETATM   27  C   UNL     1     -10.478  20.027  68.438  1.00  0.00    -0.369 C  
ENDBRANCH   4  25
ENDBRANCH   2   4
TORSDOF 7
ENDMDL
MODEL       15
REMARK 921   NORMALIZED FREE ENERGY PREDICTED BY IDOCK:   -6.27 KCAL/MOL
REMARK 922        TOTAL FREE ENERGY PREDICTED BY IDOCK:  -10.03 KCAL/MOL
REMARK 923 INTER-LIGAND FREE ENERGY PREDICTED BY IDOCK:   -9.35 KCAL/MOL
REMARK 924 INTRA-LIGAND FREE ENERGY PREDICTED BY IDOCK:   -0.68 KCAL/MOL
REMARK 927      BINDING AFFINITY PREDICTED BY RF-SCORE:    0.00 PKD
ROOT
HETATM    1  C   UNL     1     -11.135   6.174  69.573  1.00  0.00    -0.490 C  
HETATM    2  C   UNL     1     -10.057   6.850  70.428  1.00  0.00    -0.187 C  
HETATM    3  C   UNL     1      -8.661   6.689  69.827  1.00  0.00    -0.136 C  
ENDROOT
BRANCH   2   4
HETATM    4  N   UNL     1     -10.370   8.346  70.843  1.00  0.00    -0.191 N  
HETATM    5  C   UNL     1      -9.069   9.168  70.794  1.00  0.00    -0.255 C  
BRANCH   4   6
HETATM    6  C   UNL     1     -11.354   8.971  69.777  1.00  0.00     0.062 C  
BRANCH   6   7
HETATM    7  C   UNL     1     -10.929  10.302  69.147  1.00  0.00    -0.238 C  
BRANCH   7   8
HETATM    8  O   UNL     1     -12.098  11.035  68.741  1.00  0.00    -0.518 OA 
BRANCH   8   9
HETATM    9  C   UNL     1     -11.885  12.250  68.135  1.00  0.00    -0.311 C  
HETATM   10  O   UNL     1     -12.260  12.457  66.984  1.00  0.00    -0.508 OA 
BRANCH   9  11
HETATM   11  C   UNL     1     -11.191  13.275  69.050  1.00  0.00    -0.320 C  
HETATM   12  C   UNL     1     -10.582  14.435  68.280  1.00  0.00    -0.243 A  
HETATM   13  C   UNL     1      -9.559  14.215  67.337  1.00  0.00    -0.229 A  
HETATM   14  C   UNL     1      -9.132  15.248  66.503  1.00  0.00    -0.334 A  
HETATM   15  C   UNL     1      -9.683  16.520  66.634  1.00  0.00    -0.275 A  
HETATM   16  C   UNL     1     -10.641  16.763  67.618  1.00  0.00    -0.325 A  
HETATM   17  C   UNL     1     -11.087  15.724  68.438  1.00  0.00    -0.341 A  
HETATM   18  O   UNL     1     -12.033  16.061  69.370  1.00  0.00    -0.311 OA 
HETATM   19  C   UNL     1     -12.462  15.100  70.252  1.00  0.00    -0.342 A  
HETATM   20  C   UNL     1     -13.295  15.553  71.280  1.00  0.00    -0.588 A  
HETATM   21  C   UNL     1     -13.811  14.657  72.214  1.00  0.00    -0.583 A  
HETATM   22  C   UNL     1     -13.490  13.306  72.119  1.00  0.00    -0.655 A  
HETATM   23  C   UNL     1     -12.641  12.855  71.105  1.00  0.00    -0.373 A  
HETATM   24  C   UNL     1     -12.119  13.748  70.152  1.00  0.00    -0.429 A  
ENDBRANCH   9  11
ENDBRANCH   8   9
ENDBRANCH   7   8
ENDBRANCH   6   7
ENDBRANCH   4   6
BRANCH   4  25
HETATM   25  C   UNL     1     -11.104   8.514  72.256  1.00  0.00    -0.360 C  
HETATM   26  C   UNL     1     -12.608   8.766  72.155  1.00  0.00    -0.463 C  
HETATM   27  C   UNL     1     -10.881   7.309  73.188  1.00  0.00    -0.401 C  
ENDBRANCH   4  25
ENDBRANCH   2   4
TORSDOF 7
ENDMDL
MODEL       16
REMARK 921   NORMALIZED FREE ENERGY PREDICTED BY IDOCK:   -6.25 KCAL/MOL
REMARK 922        TOTAL FREE ENERGY PREDICTED BY IDOCK:   -9.99 KCAL/MOL
REMARK 923 INTER-LIGAND FREE ENERGY PREDICTED BY IDOCK:   -8.82 KCAL/MOL
REMARK 924 INTRA-LIGAND FREE ENERGY PREDICTED BY IDOCK:   -1.17 KCAL/MOL
REMARK 927      BINDING AFFINITY PREDICTED BY RF-SCORE:    0.00 PKD
ROOT
HETATM    1  C   UNL     1     -10.537  18.661  65.993  1.00  0.00    -0.410 C  
HETATM    2  C   UNL     1      -9.520  19.317  66.934  1.00  0.00    -0.325 C  
HETATM    3  C   UNL     1     -10.160  19.776  68.244  1.00  0.00    -0.575 C  
ENDROOT
BRANCH   2   4
HETATM    4  N   UNL     1      -8.189  18.491  67.166  1.00  0.00    -0.248 N  
HETATM    5  C   UNL     1      -7.667  18.759  68.589  1.00  0.00    -0.326 C  
BRANCH   4   6
HETATM    6  C   UNL     1      -8.529  16.951  67.077  1.00  0.00    -0.203 C  
BRANCH   6   7
HETATM    7  C   UNL     1      -8.526  16.171  68.397  1.00  0.00    -0.184 C  
BRANCH   7   8
HETATM    8  O   UNL     1      -9.531  15.143  68.348  1.00  0.00    -0.197 OA 
BRANCH   8   9
HETATM    9  C   UNL     1     -10.797  15.497  68.748  1.00  0.00    -0.256 C  
HETATM   10  O   UNL     1     -10.994  16.526  69.388  1.00  0.00    -0.310 OA 
BRANCH   9  11
HETATM   11  C   UNL     1     -11.882  14.511  68.278  1.00  0.00    -0.347 C  
HETATM   12  C   UNL     1     -11.605  13.946  66.895  1.00  0.00    -0.400 A  
HETATM   13  C   UNL     1     -11.541  14.793  65.771  1.00  0.00    -0.290 A  
HETATM   14  C   UNL     1     -11.107  14.303  64.540  1.00  0.00    -0.321 A  
HETATM   15  C   UNL     1     -10.783  12.956  64.403  1.00  0.00    -0.407 A  
HETATM   16  C   UNL     1     -10.919  12.096  65.492  1.00  0.00    -0.343 A  
HETATM   17  C   UNL     1     -11.330  12.589  66.732  1.00  0.00    -0.334 A  
HETATM   18  O   UNL     1     -11.427  11.668  67.742  1.00  0.00    -0.284 OA 
HETATM   19  C   UNL     1     -11.893  12.077  68.967  1.00  0.00    -0.315 A  
HETATM   20  C   UNL     1     -12.130  11.058  69.894  1.00  0.00    -0.435 A  
HETATM   21  C   UNL     1     -12.575  11.365  71.178  1.00  0.00    -0.490 A  
HETATM   22  C   UNL     1     -12.787  12.694  71.532  1.00  0.00    -0.368 A  
HETATM   23  C   UNL     1     -12.570  13.712  70.600  1.00  0.00    -0.366 A  
HETATM   24  C   UNL     1     -12.114  13.417  69.303  1.00  0.00    -0.312 A  
ENDBRANCH   9  11
ENDBRANCH   8   9
ENDBRANCH   7   8
ENDBRANCH   6   7
ENDBRANCH   4   6
BRANCH   4  25
HETATM   25  C   UNL     1      -7.042  18.741  66.076  1.00  0.00    -0.268 C  
HETATM   26  C   UNL     1      -6.875  20.203  65.664  1.00  0.00    -0.314 C  
HETATM   27  C   UNL     1      -5.670  18.209  66.528  1.00  0.00    -0.188 C  
ENDBRANCH   4  25
ENDBRANCH   2   4
TORSDOF 7
ENDMDL
MODEL       17
REMARK 921   NORMALIZED FREE ENERGY PREDICTED BY IDOCK:   -6.21 KCAL/MOL
REMARK 922        TOTAL FREE ENERGY PREDICTED BY IDOCK:   -9.94 KCAL/MOL
REMARK 923 INTER-LIGAND FREE ENERGY PREDICTED BY IDOCK:   -8.71 KCAL/MOL
REMARK 924 INTRA-LIGAND FREE ENERGY PREDICTED BY IDOCK:   -1.23 KCAL/MOL
REMARK 927      BINDING AFFINITY PREDICTED BY RF-SCORE:    0.00 PKD
ROOT
HETATM    1  C   UNL     1     -10.163  11.285  64.442  1.00  0.00    -0.377 C  
HETATM    2  C   UNL     1     -11.047  12.481  64.070  1.00  0.00    -0.397 C  
HETATM    3  C   UNL     1     -12.410  12.044  63.533  1.00  0.00    -0.661 C  
ENDROOT
BRANCH   2   4
HETATM    4  N   UNL     1     -11.165  13.601  65.183  1.00  0.00    -0.302 N  
HETATM    5  C   UNL     1     -12.652  13.898  65.448  1.00  0.00    -0.507 C  
BRANCH   4   6
HETATM    6  C   UNL     1     -10.555  13.042  66.529  1.00  0.00    -0.282 C  
BRANCH   6   7
HETATM    7  C   UNL     1     -11.552  12.680  67.636  1.00  0.00    -0.357 C  
BRANCH   7   8
HETATM    8  O   UNL     1     -11.965  11.311  67.481  1.00  0.00    -0.612 OA 
BRANCH   8   9
HETATM    9  C   UNL     1     -11.110  10.349  67.963  1.00  0.00    -0.298 C  
HETATM   10  O   UNL     1     -10.872   9.333  67.317  1.00  0.00    -0.238 OA 
BRANCH   9  11
HETATM   11  C   UNL     1     -10.492  10.712  69.326  1.00  0.00    -0.252 C  
HETATM   12  C   UNL     1     -11.227  10.077  70.494  1.00  0.00    -0.408 A  
HETATM   13  C   UNL     1     -12.577  10.385  70.748  1.00  0.00    -0.462 A  
HETATM   14  C   UNL     1     -13.300   9.668  71.700  1.00  0.00    -0.485 A  
HETATM   15  C   UNL     1     -12.673   8.673  72.444  1.00  0.00    -0.423 A  
HETATM   16  C   UNL     1     -11.315   8.415  72.252  1.00  0.00    -0.448 A  
HETATM   17  C   UNL     1     -10.596   9.116  71.282  1.00  0.00    -0.329 A  
HETATM   18  O   UNL     1      -9.271   8.788  71.164  1.00  0.00    -0.192 OA 
HETATM   19  C   UNL     1      -8.493   9.489  70.277  1.00  0.00    -0.207 A  
HETATM   20  C   UNL     1      -7.122   9.221  70.332  1.00  0.00    -0.091 A  
HETATM   21  C   UNL     1      -6.245   9.856  69.455  1.00  0.00    -0.045 A  
HETATM   22  C   UNL     1      -6.741  10.762  68.524  1.00  0.00    -0.057 A  
HETATM   23  C   UNL     1      -8.109  11.047  68.481  1.00  0.00    -0.140 A  
HETATM   24  C   UNL     1      -9.006  10.408  69.356  1.00  0.00    -0.168 A  
ENDBRANCH   9  11
ENDBRANCH   8   9
ENDBRANCH   7   8
ENDBRANCH   6   7
ENDBRANCH   4   6
BRANCH   4  25
HETATM   25  C   UNL     1     -10.356  14.948  64.872  1.00  0.00    -0.313 C  
HETATM   26  C   UNL     1     -11.239  16.135  64.488  1.00  0.00    -0.275 C  
HETATM   27  C   UNL     1      -9.453  15.380  66.041  1.00  0.00    -0.381 C  
ENDBRANCH   4  25
ENDBRANCH   2   4
TORSDOF 7
ENDMDL
MODEL       18
REMARK 921   NORMALIZED FREE ENERGY PREDICTED BY IDOCK:   -6.13 KCAL/MOL
REMARK 922        TOTAL FREE ENERGY PREDICTED BY IDOCK:   -9.82 KCAL/MOL
REMARK 923 INTER-LIGAND FREE ENERGY PREDICTED BY IDOCK:   -8.14 KCAL/MOL
REMARK 924 INTRA-LIGAND FREE ENERGY PREDICTED BY IDOCK:   -1.68 KCAL/MOL
REMARK 927      BINDING AFFINITY PREDICTED BY RF-SCORE:    0.00 PKD
ROOT
HETATM    1  C   UNL     1     -10.637  15.878  65.589  1.00  0.00    -0.393 C  
HETATM    2  C   UNL     1     -10.532  16.285  67.063  1.00  0.00    -0.306 C  
HETATM    3  C   UNL     1     -11.338  15.359  67.974  1.00  0.00    -0.345 C  
ENDROOT
BRANCH   2   4
HETATM    4  N   UNL     1      -9.058  16.522  67.591  1.00  0.00    -0.198 N  
HETATM    5  C   UNL     1      -8.983  16.128  69.078  1.00  0.00    -0.247 C  
BRANCH   4   6
HETATM    6  C   UNL     1      -8.080  15.562  66.806  1.00  0.00    -0.212 C  
BRANCH   6   7
HETATM    7  C   UNL     1      -7.552  14.344  67.572  1.00  0.00    -0.193 C  
BRANCH   7   8
HETATM    8  O   UNL     1      -8.563  13.321  67.602  1.00  0.00    -0.171 OA 
BRANCH   8   9
HETATM    9  C   UNL     1      -8.204  12.084  67.124  1.00  0.00    -0.181 C  
HETATM   10  O   UNL     1      -7.024  11.783  66.970  1.00  0.00    -0.139 OA 
BRANCH   9  11
HETATM   11  C   UNL     1      -9.407  11.160  66.862  1.00  0.00    -0.189 C  
HETATM   12  C   UNL     1     -10.169  10.812  68.130  1.00  0.00    -0.194 A  
HETATM   13  C   UNL     1      -9.543  10.107  69.175  1.00  0.00    -0.222 A  
HETATM   14  C   UNL     1     -10.182   9.950  70.405  1.00  0.00    -0.299 A  
HETATM   15  C   UNL     1     -11.469  10.448  70.588  1.00  0.00    -0.438 A  
HETATM   16  C   UNL     1     -12.125  11.079  69.531  1.00  0.00    -0.400 A  
HETATM   17  C   UNL     1     -11.478  11.258  68.307  1.00  0.00    -0.308 A  
HETATM   18  O   UNL     1     -12.203  11.894  67.333  1.00  0.00    -0.502 OA 
HETATM   19  C   UNL     1     -11.648  12.039  66.086  1.00  0.00    -0.304 A  
HETATM   20  C   UNL     1     -12.503  12.539  65.099  1.00  0.00    -0.451 A  
HETATM   21  C   UNL     1     -12.034  12.753  63.805  1.00  0.00    -0.585 A  
HETATM   22  C   UNL     1     -10.709  12.463  63.498  1.00  0.00    -0.473 A  
HETATM   23  C   UNL     1      -9.858  11.944  64.478  1.00  0.00    -0.203 A  
HETATM   24  C   UNL     1     -10.317  11.730  65.790  1.00  0.00    -0.293 A  
ENDBRANCH   9  11
ENDBRANCH   8   9
ENDBRANCH   7   8
ENDBRANCH   6   7
ENDBRANCH   4   6
BRANCH   4  25
HETATM   25  C   UNL     1      -8.488  18.000  67.358  1.00  0.00    -0.240 C  
HETATM   26  C   UNL     1      -9.545  19.101  67.441  1.00  0.00    -0.373 C  
HETATM   27  C   UNL     1      -7.348  18.356  68.328  1.00  0.00    -0.285 C  
ENDBRANCH   4  25
ENDBRANCH   2   4
TORSDOF 7
ENDMDL
MODEL       19
REMARK 921   NORMALIZED FREE ENERGY PREDICTED BY IDOCK:   -6.13 KCAL/MOL
REMARK 922        TOTAL FREE ENERGY PREDICTED BY IDOCK:   -9.82 KCAL/MOL
REMARK 923 INTER-LIGAND FREE ENERGY PREDICTED BY IDOCK:   -8.79 KCAL/MOL
REMARK 924 INTRA-LIGAND FREE ENERGY PREDICTED BY IDOCK:   -1.03 KCAL/MOL
REMARK 927      BINDING AFFINITY PREDICTED BY RF-SCORE:    0.00 PKD
ROOT
HETATM    1  C   UNL     1      -9.961   6.094  70.228  1.00  0.00    -0.226 C  
HETATM    2  C   UNL     1     -11.121   6.303  71.208  1.00  0.00    -0.289 C  
HETATM    3  C   UNL     1     -10.985   5.430  72.455  1.00  0.00    -0.312 C  
ENDROOT
BRANCH   2   4
HETATM    4  N   UNL     1     -11.442   7.813  71.557  1.00  0.00    -0.258 N  
HETATM    5  C   UNL     1     -10.337   8.368  72.474  1.00  0.00    -0.301 C  
BRANCH   4   6
HETATM    6  C   UNL     1     -11.407   8.659  70.223  1.00  0.00    -0.136 C  
BRANCH   6   7
HETATM    7  C   UNL     1     -10.273   9.682  70.089  1.00  0.00    -0.264 C  
BRANCH   7   8
HETATM    8  O   UNL     1     -10.161  10.096  68.716  1.00  0.00    -0.170 OA 
BRANCH   8   9
HETATM    9  C   UNL     1     -10.107  11.449  68.482  1.00  0.00    -0.206 C  
HETATM   10  O   UNL     1      -9.050  12.066  68.578  1.00  0.00    -0.178 OA 
BRANCH   9  11
HETATM   11  C   UNL     1     -11.462  12.050  68.066  1.00  0.00    -0.392 C  
HETATM   12  C   UNL     1     -11.896  13.199  68.961  1.00  0.00    -0.358 A  
HETATM   13  C   UNL     1     -12.130  12.994  70.334  1.00  0.00    -0.391 A  
HETATM   14  C   UNL     1     -12.346  14.077  71.185  1.00  0.00    -0.443 A  
HETATM   15  C   UNL     1     -12.383  15.369  70.669  1.00  0.00    -0.451 A  
HETATM   16  C   UNL     1     -12.230  15.573  69.298  1.00  0.00    -0.209 A  
HETATM   17  C   UNL     1     -11.989  14.492  68.448  1.00  0.00    -0.274 A  
HETATM   18  O   UNL     1     -11.846  14.794  67.119  1.00  0.00    -0.374 OA 
HETATM   19  C   UNL     1     -11.676  13.768  66.223  1.00  0.00    -0.376 A  
HETATM   20  C   UNL     1     -11.710  14.133  64.873  1.00  0.00    -0.395 A  
HETATM   21  C   UNL     1     -11.519  13.174  63.881  1.00  0.00    -0.451 A  
HETATM   22  C   UNL     1     -11.296  11.849  64.240  1.00  0.00    -0.425 A  
HETATM   23  C   UNL     1     -11.282  11.479  65.587  1.00  0.00    -0.212 A  
HETATM   24  C   UNL     1     -11.467  12.438  66.599  1.00  0.00    -0.429 A  
ENDBRANCH   9  11
ENDBRANCH   8   9
ENDBRANCH   7   8
ENDBRANCH   6   7
ENDBRANCH   4   6
BRANCH   4  25
HETATM   25  C   UNL     1     -12.893   8.066  72.187  1.00  0.00    -0.241 C  
HETATM   26  C   UNL     1     -13.328   9.531  72.193  1.00  0.00    -0.545 C  
HETATM   27  C   UNL     1     -13.993   7.242  71.492  1.00  0.00    -0.486 C  
ENDBRANCH   4  25
ENDBRANCH   2   4
TORSDOF 7
ENDMDL
MODEL       20
REMARK 921   NORMALIZED FREE ENERGY PREDICTED BY IDOCK:   -6.11 KCAL/MOL
REMARK 922        TOTAL FREE ENERGY PREDICTED BY IDOCK:   -9.80 KCAL/MOL
REMARK 923 INTER-LIGAND FREE ENERGY PREDICTED BY IDOCK:   -8.48 KCAL/MOL
REMARK 924 INTRA-LIGAND FREE ENERGY PREDICTED BY IDOCK:   -1.32 KCAL/MOL
REMARK 927      BINDING AFFINITY PREDICTED BY RF-SCORE:    0.00 PKD
ROOT
HETATM    1  C   UNL     1      -9.738  11.687  63.188  1.00  0.00    -0.385 C  
HETATM    2  C   UNL     1     -10.778  12.582  63.872  1.00  0.00    -0.437 C  
HETATM    3  C   UNL     1     -12.209  12.162  63.537  1.00  0.00    -0.670 C  
ENDROOT
BRANCH   2   4
HETATM    4  N   UNL     1     -10.558  12.800  65.425  1.00  0.00    -0.281 N  
HETATM    5  C   UNL     1     -11.795  12.293  66.188  1.00  0.00    -0.329 C  
BRANCH   4   6
HETATM    6  C   UNL     1      -9.331  11.921  65.890  1.00  0.00    -0.184 C  
BRANCH   6   7
HETATM    7  C   UNL     1      -9.635  10.784  66.872  1.00  0.00    -0.171 C  
BRANCH   7   8
HETATM    8  O   UNL     1      -8.860  10.964  68.070  1.00  0.00    -0.128 OA 
BRANCH   8   9
HETATM    9  C   UNL     1      -9.192  10.176  69.146  1.00  0.00    -0.197 C  
HETATM   10  O   UNL     1      -8.379   9.948  70.038  1.00  0.00    -0.186 OA 
BRANCH   9  11
HETATM   11  C   UNL     1     -10.648   9.679  69.110  1.00  0.00    -0.237 C  
HETATM   12  C   UNL     1     -10.761   8.175  69.298  1.00  0.00    -0.141 A  
HETATM   13  C   UNL     1     -10.177   7.288  68.374  1.00  0.00    -0.203 A  
HETATM   14  C   UNL     1     -10.122   5.921  68.642  1.00  0.00    -0.213 A  
HETATM   15  C   UNL     1     -10.693   5.418  69.808  1.00  0.00    -0.280 A  
HETATM   16  C   UNL     1     -11.343   6.281  70.690  1.00  0.00    -0.409 A  
HETATM   17  C   UNL     1     -11.377   7.654  70.434  1.00  0.00    -0.219 A  
HETATM   18  O   UNL     1     -12.033   8.420  71.362  1.00  0.00    -0.284 OA 
HETATM   19  C   UNL     1     -12.162   9.767  71.134  1.00  0.00    -0.362 A  
HETATM   20  C   UNL     1     -12.986  10.456  72.029  1.00  0.00    -0.499 A  
HETATM   21  C   UNL     1     -13.163  11.832  71.907  1.00  0.00    -0.468 A  
HETATM   22  C   UNL     1     -12.517  12.519  70.884  1.00  0.00    -0.361 A  
HETATM   23  C   UNL     1     -11.709  11.830  69.976  1.00  0.00    -0.386 A  
HETATM   24  C   UNL     1     -11.516  10.442  70.093  1.00  0.00    -0.396 A  
ENDBRANCH   9  11
ENDBRANCH   8   9
ENDBRANCH   7   8
ENDBRANCH   6   7
ENDBRANCH   4   6
BRANCH   4  25
HETATM   25  C   UNL     1     -10.196  14.301  65.850  1.00  0.00    -0.324 C  
HETATM   26  C   UNL     1     -10.888  15.375  65.011  1.00  0.00    -0.462 C  
HETATM   27  C   UNL     1     -10.494  14.586  67.334  1.00  0.00    -0.264 C  
ENDBRANCH   4  25
ENDBRANCH   2   4
TORSDOF 7
ENDMDL
MODEL       21
REMARK 921   NORMALIZED FREE ENERGY PREDICTED BY IDOCK:   -6.09 KCAL/MOL
REMARK 922        TOTAL FREE ENERGY PREDICTED BY IDOCK:   -9.77 KCAL/MOL
REMARK 923 INTER-LIGAND FREE ENERGY PREDICTED BY IDOCK:   -8.89 KCAL/MOL
REMARK 924 INTRA-LIGAND FREE ENERGY PREDICTED BY IDOCK:   -0.88 KCAL/MOL
REMARK 927      BINDING AFFINITY PREDICTED BY RF-SCORE:    0.00 PKD
ROOT
HETATM    1  C   UNL     1      -8.842   8.260  72.225  1.00  0.00    -0.274 C  
HETATM    2  C   UNL     1     -10.107   7.405  72.090  1.00  0.00    -0.190 C  
HETATM    3  C   UNL     1     -10.774   7.147  73.441  1.00  0.00    -0.410 C  
ENDROOT
BRANCH   2   4
HETATM    4  N   UNL     1     -11.135   7.895  70.990  1.00  0.00    -0.246 N  
HETATM    5  C   UNL     1     -12.540   7.985  71.614  1.00  0.00    -0.322 C  
BRANCH   4   6
HETATM    6  C   UNL     1     -10.732   9.353  70.536  1.00  0.00    -0.276 C  
BRANCH   6   7
HETATM    7  C   UNL     1     -11.823  10.426  70.629  1.00  0.00    -0.350 C  
BRANCH   7   8
HETATM    8  O   UNL     1     -11.316  11.671  70.119  1.00  0.00    -0.187 OA 
BRANCH   8   9
HETATM    9  C   UNL     1     -11.904  12.157  68.976  1.00  0.00    -0.306 C  
HETATM   10  O   UNL     1     -12.215  11.405  68.055  1.00  0.00    -0.607 OA 
BRANCH   9  11
HETATM   11  C   UNL     1     -12.149  13.676  69.015  1.00  0.00    -0.348 C  
HETATM   12  C   UNL     1     -12.456  14.187  70.412  1.00  0.00    -0.424 A  
HETATM   13  C   UNL     1     -13.594  13.738  71.109  1.00  0.00    -0.091 A  
HETATM   14  C   UNL     1     -13.776  14.063  72.453  1.00  0.00    -0.669 A  
HETATM   15  C   UNL     1     -12.854  14.880  73.101  1.00  0.00    -0.619 A  
HETATM   16  C   UNL     1     -11.765  15.392  72.395  1.00  0.00    -0.565 A  
HETATM   17  C   UNL     1     -11.569  15.048  71.056  1.00  0.00    -0.322 A  
HETATM   18  O   UNL     1     -10.468  15.596  70.452  1.00  0.00    -0.315 OA 
HETATM   19  C   UNL     1     -10.257  15.352  69.117  1.00  0.00    -0.239 A  
HETATM   20  C   UNL     1      -9.218  16.078  68.527  1.00  0.00    -0.206 A  
HETATM   21  C   UNL     1      -8.900  15.885  67.184  1.00  0.00    -0.228 A  
HETATM   22  C   UNL     1      -9.625  14.968  66.431  1.00  0.00    -0.314 A  
HETATM   23  C   UNL     1     -10.677  14.256  67.014  1.00  0.00    -0.290 A  
HETATM   24  C   UNL     1     -11.004  14.436  68.370  1.00  0.00    -0.261 A  
ENDBRANCH   9  11
ENDBRANCH   8   9
ENDBRANCH   7   8
ENDBRANCH   6   7
ENDBRANCH   4   6
BRANCH   4  25
HETATM   25  C   UNL     1     -11.156   7.019  69.649  1.00  0.00    -0.219 C  
HETATM   26  C   UNL     1     -10.382   7.635  68.485  1.00  0.00    -0.225 C  
HETATM   27  C   UNL     1     -10.634   5.587  69.868  1.00  0.00    -0.387 C  
ENDBRANCH   4  25
ENDBRANCH   2   4
TORSDOF 7
ENDMDL
MODEL       22
REMARK 921   NORMALIZED FREE ENERGY PREDICTED BY IDOCK:   -6.02 KCAL/MOL
REMARK 922        TOTAL FREE ENERGY PREDICTED BY IDOCK:   -9.67 KCAL/MOL
REMARK 923 INTER-LIGAND FREE ENERGY PREDICTED BY IDOCK:   -8.52 KCAL/MOL
REMARK 924 INTRA-LIGAND FREE ENERGY PREDICTED BY IDOCK:   -1.16 KCAL/MOL
REMARK 927      BINDING AFFINITY PREDICTED BY RF-SCORE:    0.00 PKD
ROOT
HETATM    1  C   UNL     1     -10.418  19.410  66.178  1.00  0.00    -0.600 C  
HETATM    2  C   UNL     1      -9.543  19.254  67.427  1.00  0.00    -0.314 C  
HETATM    3  C   UNL     1     -10.087  20.049  68.614  1.00  0.00    -0.465 C  
ENDROOT
BRANCH   2   4
HETATM    4  N   UNL     1      -9.181  17.762  67.813  1.00  0.00    -0.253 N  
HETATM    5  C   UNL     1     -10.000  17.344  69.048  1.00  0.00    -0.265 C  
BRANCH   4   6
HETATM    6  C   UNL     1      -9.615  16.814  66.625  1.00  0.00    -0.258 C  
BRANCH   6   7
HETATM    7  C   UNL     1     -10.457  15.588  66.998  1.00  0.00    -0.304 C  
BRANCH   7   8
HETATM    8  O   UNL     1      -9.673  14.396  66.819  1.00  0.00    -0.251 OA 
BRANCH   8   9
HETATM    9  C   UNL     1      -9.709  13.474  67.838  1.00  0.00    -0.225 C  
HETATM   10  O   UNL     1      -8.825  13.437  68.689  1.00  0.00    -0.108 OA 
BRANCH   9  11
HETATM   11  C   UNL     1     -10.956  12.571  67.798  1.00  0.00    -0.270 C  
HETATM   12  C   UNL     1     -10.670  11.199  67.211  1.00  0.00    -0.304 A  
HETATM   13  C   UNL     1     -10.227  11.063  65.882  1.00  0.00    -0.309 A  
HETATM   14  C   UNL     1      -9.790   9.827  65.405  1.00  0.00    -0.365 A  
HETATM   15  C   UNL     1      -9.840   8.707  66.230  1.00  0.00    -0.320 A  
HETATM   16  C   UNL     1     -10.352   8.819  67.523  1.00  0.00    -0.334 A  
HETATM   17  C   UNL     1     -10.766  10.060  68.010  1.00  0.00    -0.256 A  
HETATM   18  O   UNL     1     -11.247  10.070  69.293  1.00  0.00    -0.222 OA 
HETATM   19  C   UNL     1     -11.735  11.246  69.806  1.00  0.00    -0.349 A  
HETATM   20  C   UNL     1     -12.366  11.147  71.050  1.00  0.00    -0.487 A  
HETATM   21  C   UNL     1     -12.871  12.285  71.676  1.00  0.00    -0.378 A  
HETATM   22  C   UNL     1     -12.747  13.523  71.054  1.00  0.00    -0.399 A  
HETATM   23  C   UNL     1     -12.135  13.621  69.801  1.00  0.00    -0.396 A  
HETATM   24  C   UNL     1     -11.615  12.481  69.162  1.00  0.00    -0.375 A  
ENDBRANCH   9  11
ENDBRANCH   8   9
ENDBRANCH   7   8
ENDBRANCH   6   7
ENDBRANCH   4   6
BRANCH   4  25
HETATM   25  C   UNL     1      -7.620  17.482  68.036  1.00  0.00    -0.220 C  
HETATM   26  C   UNL     1      -7.311  16.537  69.196  1.00  0.00    -0.220 C  
HETATM   27  C   UNL     1      -6.929  16.934  66.774  1.00  0.00    -0.270 C  
ENDBRANCH   4  25
ENDBRANCH   2   4
TORSDOF 7
ENDMDL
MODEL       23
REMARK 921   NORMALIZED FREE ENERGY PREDICTED BY IDOCK:   -6.02 KCAL/MOL
REMARK 922        TOTAL FREE ENERGY PREDICTED BY IDOCK:   -9.66 KCAL/MOL
REMARK 923 INTER-LIGAND FREE ENERGY PREDICTED BY IDOCK:   -8.92 KCAL/MOL
REMARK 924 INTRA-LIGAND FREE ENERGY PREDICTED BY IDOCK:   -0.75 KCAL/MOL
REMARK 927      BINDING AFFINITY PREDICTED BY RF-SCORE:    0.00 PKD
ROOT
HETATM    1  C   UNL     1      -9.985  11.733  63.289  1.00  0.00    -0.435 C  
HETATM    2  C   UNL     1     -11.117  12.713  63.616  1.00  0.00    -0.443 C  
HETATM    3  C   UNL     1     -12.496  12.069  63.472  1.00  0.00    -0.654 C  
ENDROOT
BRANCH   2   4
HETATM    4  N   UNL     1     -10.954  13.496  64.982  1.00  0.00    -0.318 N  
HETATM    5  C   UNL     1     -12.270  13.410  65.777  1.00  0.00    -0.458 C  
BRANCH   4   6
HETATM    6  C   UNL     1      -9.842  12.779  65.846  1.00  0.00    -0.238 C  
BRANCH   6   7
HETATM    7  C   UNL     1     -10.296  11.590  66.699  1.00  0.00    -0.226 C  
BRANCH   7   8
HETATM    8  O   UNL     1     -10.422  12.004  68.071  1.00  0.00    -0.195 OA 
BRANCH   8   9
HETATM    9  C   UNL     1     -11.437  11.430  68.799  1.00  0.00    -0.290 C  
HETATM   10  O   UNL     1     -12.345  10.817  68.244  1.00  0.00    -0.296 OA 
BRANCH   9  11
HETATM   11  C   UNL     1     -11.274  11.611  70.319  1.00  0.00     0.215 C  
HETATM   12  C   UNL     1     -12.189  12.684  70.885  1.00  0.00    -0.280 A  
HETATM   13  C   UNL     1     -12.075  14.023  70.466  1.00  0.00    -0.424 A  
HETATM   14  C   UNL     1     -13.028  14.967  70.844  1.00  0.00    -0.463 A  
HETATM   15  C   UNL     1     -14.075  14.599  71.685  1.00  0.00    -0.571 A  
HETATM   16  C   UNL     1     -14.150  13.293  72.167  1.00  0.00    -0.364 A  
HETATM   17  C   UNL     1     -13.210  12.340  71.770  1.00  0.00    -0.326 A  
HETATM   18  O   UNL     1     -13.372  11.084  72.292  1.00  0.00    -0.390 OA 
HETATM   19  C   UNL     1     -12.440  10.120  71.995  1.00  0.00    -0.175 A  
HETATM   20  C   UNL     1     -12.571   8.917  72.696  1.00  0.00    -0.267 A  
HETATM   21  C   UNL     1     -11.696   7.861  72.450  1.00  0.00    -0.423 A  
HETATM   22  C   UNL     1     -10.688   8.011  71.503  1.00  0.00    -0.274 A  
HETATM   23  C   UNL     1     -10.543   9.219  70.817  1.00  0.00    -0.351 A  
HETATM   24  C   UNL     1     -11.423  10.291  71.051  1.00  0.00    -0.386 A  
ENDBRANCH   9  11
ENDBRANCH   8   9
ENDBRANCH   7   8
ENDBRANCH   6   7
ENDBRANCH   4   6
BRANCH   4  25
HETATM   25  C   UNL     1     -10.469  15.015  64.835  1.00  0.00    -0.337 C  
HETATM   26  C   UNL     1     -11.604  16.019  64.634  1.00  0.00    -0.169 C  
HETATM   27  C   UNL     1      -9.619  15.485  66.029  1.00  0.00    -0.380 C  
ENDBRANCH   4  25
ENDBRANCH   2   4
TORSDOF 7
ENDMDL
MODEL       24
REMARK 921   NORMALIZED FREE ENERGY PREDICTED BY IDOCK:   -5.91 KCAL/MOL
REMARK 922        TOTAL FREE ENERGY PREDICTED BY IDOCK:   -9.52 KCAL/MOL
REMARK 923 INTER-LIGAND FREE ENERGY PREDICTED BY IDOCK:   -8.36 KCAL/MOL
REMARK 924 INTRA-LIGAND FREE ENERGY PREDICTED BY IDOCK:   -1.16 KCAL/MOL
REMARK 927      BINDING AFFINITY PREDICTED BY RF-SCORE:    0.00 PKD
ROOT
HETATM    1  C   UNL     1     -10.636  17.271  67.657  1.00  0.00    -0.350 C  
HETATM    2  C   UNL     1     -10.169  16.425  66.466  1.00  0.00    -0.304 C  
HETATM    3  C   UNL     1      -8.679  16.612  66.177  1.00  0.00    -0.322 C  
ENDROOT
BRANCH   2   4
HETATM    4  N   UNL     1     -10.589  14.900  66.519  1.00  0.00    -0.299 N  
HETATM    5  C   UNL     1      -9.345  14.041  66.808  1.00  0.00    -0.277 C  
BRANCH   4   6
HETATM    6  C   UNL     1     -11.588  14.693  67.726  1.00  0.00    -0.359 C  
BRANCH   6   7
HETATM    7  C   UNL     1     -11.089  13.827  68.888  1.00  0.00    -0.266 C  
BRANCH   7   8
HETATM    8  O   UNL     1     -12.032  12.771  69.139  1.00  0.00    -0.291 OA 
BRANCH   8   9
HETATM    9  C   UNL     1     -11.644  11.500  68.788  1.00  0.00    -0.316 C  
HETATM   10  O   UNL     1     -11.888  11.051  67.671  1.00  0.00    -0.599 OA 
BRANCH   9  11
HETATM   11  C   UNL     1     -10.872  10.769  69.901  1.00  0.00    -0.264 C  
HETATM   12  C   UNL     1     -11.744   9.803  70.685  1.00  0.00    -0.377 A  
HETATM   13  C   UNL     1     -12.852  10.266  71.419  1.00  0.00    -0.544 A  
HETATM   14  C   UNL     1     -13.754   9.364  71.984  1.00  0.00    -0.466 A  
HETATM   15  C   UNL     1     -13.533   7.995  71.866  1.00  0.00    -0.342 A  
HETATM   16  C   UNL     1     -12.395   7.530  71.207  1.00  0.00    -0.356 A  
HETATM   17  C   UNL     1     -11.504   8.431  70.620  1.00  0.00    -0.219 A  
HETATM   18  O   UNL     1     -10.420   7.878  69.990  1.00  0.00    -0.220 OA 
HETATM   19  C   UNL     1      -9.471   8.712  69.454  1.00  0.00    -0.161 A  
HETATM   20  C   UNL     1      -8.314   8.086  68.981  1.00  0.00    -0.129 A  
HETATM   21  C   UNL     1      -7.300   8.836  68.390  1.00  0.00    -0.086 A  
HETATM   22  C   UNL     1      -7.443  10.215  68.275  1.00  0.00    -0.082 A  
HETATM   23  C   UNL     1      -8.590  10.845  68.765  1.00  0.00    -0.159 A  
HETATM   24  C   UNL     1      -9.625  10.099  69.357  1.00  0.00    -0.249 A  
ENDBRANCH   9  11
ENDBRANCH   8   9
ENDBRANCH   7   8
ENDBRANCH   6   7
ENDBRANCH   4   6
BRANCH   4  25
HETATM   25  C   UNL     1     -11.367  14.370  65.223  1.00  0.00    -0.346 C  
HETATM   26  C   UNL     1     -10.632  13.271  64.457  1.00  0.00    -0.437 C  
HETATM   27  C   UNL     1     -12.784  13.863  65.548  1.00  0.00    -0.536 C  
ENDBRANCH   4  25
ENDBRANCH   2   4
TORSDOF 7
ENDMDL
MODEL       25
REMARK 921   NORMALIZED FREE ENERGY PREDICTED BY IDOCK:   -5.91 KCAL/MOL
REMARK 922        TOTAL FREE ENERGY PREDICTED BY IDOCK:   -9.51 KCAL/MOL
REMARK 923 INTER-LIGAND FREE ENERGY PREDICTED BY IDOCK:   -8.16 KCAL/MOL
REMARK 924 INTRA-LIGAND FREE ENERGY PREDICTED BY IDOCK:   -1.35 KCAL/MOL
REMARK 927      BINDING AFFINITY PREDICTED BY RF-SCORE:    0.00 PKD
ROOT
HETATM    1  C   UNL     1      -9.476   7.720  66.932  1.00  0.00    -0.238 C  
HETATM    2  C   UNL     1      -8.707   8.617  67.908  1.00  0.00    -0.137 C  
HETATM    3  C   UNL     1      -7.262   8.846  67.464  1.00  0.00    -0.080 C  
ENDROOT
BRANCH   2   4
HETATM    4  N   UNL     1      -9.440   9.964  68.303  1.00  0.00    -0.139 N  
HETATM    5  C   UNL     1      -8.542  11.158  67.930  1.00  0.00    -0.135 C  
BRANCH   4   6
HETATM    6  C   UNL     1     -10.761  10.090  67.447  1.00  0.00    -0.274 C  
BRANCH   6   7
HETATM    7  C   UNL     1     -10.935  11.381  66.639  1.00  0.00    -0.285 C  
BRANCH   7   8
HETATM    8  O   UNL     1     -12.040  12.133  67.168  1.00  0.00    -0.575 OA 
BRANCH   8   9
HETATM    9  C   UNL     1     -11.905  13.501  67.184  1.00  0.00    -0.387 C  
HETATM   10  O   UNL     1     -12.563  14.210  66.428  1.00  0.00    -0.427 OA 
BRANCH   9  11
HETATM   11  C   UNL     1     -10.908  14.002  68.244  1.00  0.00    -0.268 C  
HETATM   12  C   UNL     1     -10.102  15.201  67.774  1.00  0.00    -0.230 A  
HETATM   13  C   UNL     1      -9.246  15.101  66.660  1.00  0.00    -0.298 A  
HETATM   14  C   UNL     1      -8.652  16.241  66.119  1.00  0.00    -0.342 A  
HETATM   15  C   UNL     1      -8.863  17.482  66.713  1.00  0.00    -0.275 A  
HETATM   16  C   UNL     1      -9.647  17.577  67.862  1.00  0.00    -0.277 A  
HETATM   17  C   UNL     1     -10.262  16.441  68.390  1.00  0.00    -0.259 A  
HETATM   18  O   UNL     1     -11.017  16.637  69.517  1.00  0.00    -0.307 OA 
HETATM   19  C   UNL     1     -11.591  15.548  70.125  1.00  0.00    -0.337 A  
HETATM   20  C   UNL     1     -12.200  15.796  71.359  1.00  0.00    -0.500 A  
HETATM   21  C   UNL     1     -12.839  14.768  72.048  1.00  0.00    -0.399 A  
HETATM   22  C   UNL     1     -12.866  13.489  71.502  1.00  0.00    -0.440 A  
HETATM   23  C   UNL     1     -12.240  13.234  70.279  1.00  0.00    -0.391 A  
HETATM   24  C   UNL     1     -11.598  14.265  69.570  1.00  0.00    -0.353 A  
ENDBRANCH   9  11
ENDBRANCH   8   9
ENDBRANCH   7   8
ENDBRANCH   6   7
ENDBRANCH   4   6
BRANCH   4  25
HETATM   25  C   UNL     1      -9.909  10.053  69.832  1.00  0.00    -0.224 C  
HETATM   26  C   UNL     1     -11.401   9.797  70.046  1.00  0.00    -0.269 C  
HETATM   27  C   UNL     1      -9.122   9.100  70.750  1.00  0.00    -0.313 C  
ENDBRANCH   4  25
ENDBRANCH   2   4
TORSDOF 7
ENDMDL
MODEL       26
REMARK 921   NORMALIZED FREE ENERGY PREDICTED BY IDOCK:   -5.91 KCAL/MOL
REMARK 922        TOTAL FREE ENERGY PREDICTED BY IDOCK:   -9.51 KCAL/MOL
REMARK 923 INTER-LIGAND FREE ENERGY PREDICTED BY IDOCK:   -8.44 KCAL/MOL
REMARK 924 INTRA-LIGAND FREE ENERGY PREDICTED BY IDOCK:   -1.07 KCAL/MOL
REMARK 927      BINDING AFFINITY PREDICTED BY RF-SCORE:    0.00 PKD
ROOT
HETATM    1  C   UNL     1     -12.707   7.249  71.541  1.00  0.00    -0.422 C  
HETATM    2  C   UNL     1     -11.352   6.576  71.291  1.00  0.00    -0.303 C  
HETATM    3  C   UNL     1     -11.146   6.226  69.817  1.00  0.00    -0.473 C  
ENDROOT
BRANCH   2   4
HETATM    4  N   UNL     1     -10.105   7.325  71.915  1.00  0.00    -0.178 N  
HETATM    5  C   UNL     1      -8.811   6.734  71.327  1.00  0.00    -0.136 C  
BRANCH   4   6
HETATM    6  C   UNL     1     -10.160   8.844  71.485  1.00  0.00    -0.324 C  
BRANCH   6   7
HETATM    7  C   UNL     1      -9.156   9.292  70.417  1.00  0.00    -0.247 C  
BRANCH   7   8
HETATM    8  O   UNL     1      -9.729  10.353  69.634  1.00  0.00    -0.205 OA 
BRANCH   8   9
HETATM    9  C   UNL     1     -10.486   9.982  68.549  1.00  0.00    -0.202 C  
HETATM   10  O   UNL     1     -10.240   8.950  67.930  1.00  0.00    -0.198 OA 
BRANCH   9  11
HETATM   11  C   UNL     1     -11.642  10.953  68.252  1.00  0.00    -0.335 C  
HETATM   12  C   UNL     1     -12.217  11.585  69.508  1.00  0.00    -0.287 A  
HETATM   13  C   UNL     1     -12.814  10.791  70.506  1.00  0.00    -0.335 A  
HETATM   14  C   UNL     1     -13.173  11.347  71.733  1.00  0.00    -0.472 A  
HETATM   15  C   UNL     1     -12.988  12.708  71.960  1.00  0.00    -0.379 A  
HETATM   16  C   UNL     1     -12.469  13.515  70.948  1.00  0.00    -0.448 A  
HETATM   17  C   UNL     1     -12.087  12.956  69.727  1.00  0.00    -0.245 A  
HETATM   18  O   UNL     1     -11.583  13.829  68.799  1.00  0.00    -0.280 OA 
HETATM   19  C   UNL     1     -11.254  13.352  67.555  1.00  0.00    -0.284 A  
HETATM   20  C   UNL     1     -10.911  14.322  66.607  1.00  0.00    -0.301 A  
HETATM   21  C   UNL     1     -10.531  13.946  65.321  1.00  0.00    -0.386 A  
HETATM   22  C   UNL     1     -10.498  12.597  64.981  1.00  0.00    -0.331 A  
HETATM   23  C   UNL     1     -10.861  11.628  65.920  1.00  0.00    -0.339 A  
HETATM   24  C   UNL     1     -11.239  11.994  67.224  1.00  0.00    -0.371 A  
ENDBRANCH   9  11
ENDBRANCH   8   9
ENDBRANCH   7   8
ENDBRANCH   6   7
ENDBRANCH   4   6
BRANCH   4  25
HETATM   25  C   UNL     1     -10.057   7.335  73.516  1.00  0.00    -0.340 C  
HETATM   26  C   UNL     1     -10.400   5.993  74.162  1.00  0.00    -0.301 C  
HETATM   27  C   UNL     1      -8.695   7.798  74.066  1.00  0.00    -0.316 C  
ENDBRANCH   4  25
ENDBRANCH   2   4
TORSDOF 7
ENDMDL
MODEL       27
REMARK 921   NORMALIZED FREE ENERGY PREDICTED BY IDOCK:   -5.90 KCAL/MOL
REMARK 922        TOTAL FREE ENERGY PREDICTED BY IDOCK:   -9.50 KCAL/MOL
REMARK 923 INTER-LIGAND FREE ENERGY PREDICTED BY IDOCK:   -8.72 KCAL/MOL
REMARK 924 INTRA-LIGAND FREE ENERGY PREDICTED BY IDOCK:   -0.79 KCAL/MOL
REMARK 927      BINDING AFFINITY PREDICTED BY RF-SCORE:    0.00 PKD
ROOT
HETATM    1  C   UNL     1     -10.920   6.669  67.217  1.00  0.00    -0.456 C  
HETATM    2  C   UNL     1     -10.906   6.945  68.725  1.00  0.00    -0.192 C  
HETATM    3  C   UNL     1     -10.734   5.665  69.543  1.00  0.00    -0.380 C  
ENDROOT
BRANCH   2   4
HETATM    4  N   UNL     1      -9.923   8.096  69.188  1.00  0.00    -0.187 N  
HETATM    5  C   UNL     1      -8.969   8.445  68.031  1.00  0.00    -0.138 C  
BRANCH   4   6
HETATM    6  C   UNL     1     -10.771   9.392  69.498  1.00  0.00    -0.222 C  
BRANCH   6   7
HETATM    7  C   UNL     1     -10.623  10.561  68.517  1.00  0.00    -0.206 C  
BRANCH   7   8
HETATM    8  O   UNL     1     -11.889  11.227  68.369  1.00  0.00    -0.482 OA 
BRANCH   8   9
HETATM    9  C   UNL     1     -11.852  12.546  67.984  1.00  0.00    -0.325 C  
HETATM   10  O   UNL     1     -12.374  12.913  66.935  1.00  0.00    -0.384 OA 
BRANCH   9  11
HETATM   11  C   UNL     1     -11.147  13.458  69.004  1.00  0.00    -0.293 C  
HETATM   12  C   UNL     1     -10.504  14.675  68.358  1.00  0.00    -0.243 A  
HETATM   13  C   UNL     1      -9.476  14.528  67.409  1.00  0.00    -0.202 A  
HETATM   14  C   UNL     1      -9.017  15.628  66.685  1.00  0.00    -0.317 A  
HETATM   15  C   UNL     1      -9.542  16.893  66.937  1.00  0.00    -0.262 A  
HETATM   16  C   UNL     1     -10.506  17.058  67.931  1.00  0.00    -0.354 A  
HETATM   17  C   UNL     1     -10.984  15.954  68.640  1.00  0.00    -0.320 A  
HETATM   18  O   UNL     1     -11.934  16.217  69.591  1.00  0.00    -0.245 OA 
HETATM   19  C   UNL     1     -12.393  15.183  70.369  1.00  0.00    -0.363 A  
HETATM   20  C   UNL     1     -13.228  15.550  71.429  1.00  0.00    -0.587 A  
HETATM   21  C   UNL     1     -13.774  14.577  72.264  1.00  0.00    -0.559 A  
HETATM   22  C   UNL     1     -13.481  13.236  72.039  1.00  0.00    -0.596 A  
HETATM   23  C   UNL     1     -12.630  12.869  70.992  1.00  0.00    -0.376 A  
HETATM   24  C   UNL     1     -12.078  13.841  70.138  1.00  0.00    -0.429 A  
ENDBRANCH   9  11
ENDBRANCH   8   9
ENDBRANCH   7   8
ENDBRANCH   6   7
ENDBRANCH   4   6
BRANCH   4  25
HETATM   25  C   UNL     1      -9.107   7.787  70.531  1.00  0.00    -0.154 C  
HETATM   26  C   UNL     1      -7.592   7.936  70.394  1.00  0.00    -0.082 C  
HETATM   27  C   UNL     1      -9.569   8.651  71.718  1.00  0.00    -0.360 C  
ENDBRANCH   4  25
ENDBRANCH   2   4
TORSDOF 7
ENDMDL
MODEL       28
REMARK 921   NORMALIZED FREE ENERGY PREDICTED BY IDOCK:   -5.90 KCAL/MOL
REMARK 922        TOTAL FREE ENERGY PREDICTED BY IDOCK:   -9.50 KCAL/MOL
REMARK 923 INTER-LIGAND FREE ENERGY PREDICTED BY IDOCK:   -8.36 KCAL/MOL
REMARK 924 INTRA-LIGAND FREE ENERGY PREDICTED BY IDOCK:   -1.13 KCAL/MOL
REMARK 927      BINDING AFFINITY PREDICTED BY RF-SCORE:    0.00 PKD
ROOT
HETATM    1  C   UNL     1      -9.946  10.628  65.141  1.00  0.00    -0.366 C  
HETATM    2  C   UNL     1      -8.774   9.963  65.870  1.00  0.00    -0.139 C  
HETATM    3  C   UNL     1      -7.682  10.966  66.240  1.00  0.00    -0.147 C  
ENDROOT
BRANCH   2   4
HETATM    4  N   UNL     1      -9.180   9.033  67.086  1.00  0.00    -0.132 N  
HETATM    5  C   UNL     1      -8.317   9.392  68.309  1.00  0.00    -0.119 C  
BRANCH   4   6
HETATM    6  C   UNL     1     -10.682   9.334  67.472  1.00  0.00    -0.203 C  
BRANCH   6   7
HETATM    7  C   UNL     1     -10.910  10.190  68.724  1.00  0.00    -0.225 C  
BRANCH   7   8
HETATM    8  O   UNL     1     -12.091  10.991  68.548  1.00  0.00    -0.573 OA 
BRANCH   8   9
HETATM    9  C   UNL     1     -11.911  12.254  68.037  1.00  0.00    -0.305 C  
HETATM   10  O   UNL     1     -12.338  12.553  66.925  1.00  0.00    -0.431 OA 
BRANCH   9  11
HETATM   11  C   UNL     1     -11.180  13.204  69.003  1.00  0.00    -0.309 C  
HETATM   12  C   UNL     1     -10.490  14.354  68.288  1.00  0.00    -0.245 A  
HETATM   13  C   UNL     1      -9.461  14.110  67.359  1.00  0.00    -0.220 A  
HETATM   14  C   UNL     1      -8.958  15.146  66.572  1.00  0.00    -0.326 A  
HETATM   15  C   UNL     1      -9.439  16.441  66.738  1.00  0.00    -0.265 A  
HETATM   16  C   UNL     1     -10.404  16.704  67.711  1.00  0.00    -0.306 A  
HETATM   17  C   UNL     1     -10.925  15.664  68.483  1.00  0.00    -0.303 A  
HETATM   18  O   UNL     1     -11.872  16.021  69.407  1.00  0.00    -0.325 OA 
HETATM   19  C   UNL     1     -12.373  15.056  70.245  1.00  0.00    -0.342 A  
HETATM   20  C   UNL     1     -13.202  15.518  71.272  1.00  0.00    -0.588 A  
HETATM   21  C   UNL     1     -13.788  14.620  72.161  1.00  0.00    -0.569 A  
HETATM   22  C   UNL     1     -13.542  13.258  72.024  1.00  0.00    -0.573 A  
HETATM   23  C   UNL     1     -12.698  12.795  71.011  1.00  0.00    -0.331 A  
HETATM   24  C   UNL     1     -12.105  13.690  70.103  1.00  0.00    -0.431 A  
ENDBRANCH   9  11
ENDBRANCH   8   9
ENDBRANCH   7   8
ENDBRANCH   6   7
ENDBRANCH   4   6
BRANCH   4  25
HETATM   25  C   UNL     1      -9.123   7.462  66.782  1.00  0.00    -0.151 C  
HETATM   26  C   UNL     1     -10.474   6.755  66.874  1.00  0.00    -0.350 C  
HETATM   27  C   UNL     1      -8.509   7.146  65.406  1.00  0.00    -0.090 C  
ENDBRANCH   4  25
ENDBRANCH   2   4
TORSDOF 7
ENDMDL
MODEL       29
REMARK 921   NORMALIZED FREE ENERGY PREDICTED BY IDOCK:   -5.89 KCAL/MOL
REMARK 922        TOTAL FREE ENERGY PREDICTED BY IDOCK:   -9.49 KCAL/MOL
REMARK 923 INTER-LIGAND FREE ENERGY PREDICTED BY IDOCK:   -8.52 KCAL/MOL
REMARK 924 INTRA-LIGAND FREE ENERGY PREDICTED BY IDOCK:   -0.97 KCAL/MOL
REMARK 927      BINDING AFFINITY PREDICTED BY RF-SCORE:    0.00 PKD
ROOT
HETATM    1  C   UNL     1     -11.634   6.554  69.707  1.00  0.00    -0.392 C  
HETATM    2  C   UNL     1     -11.663   7.271  71.062  1.00  0.00    -0.307 C  
HETATM    3  C   UNL     1     -10.951   6.470  72.152  1.00  0.00    -0.283 C  
ENDROOT
BRANCH   2   4
HETATM    4  N   UNL     1     -11.208   8.787  71.029  1.00  0.00    -0.260 N  
HETATM    5  C   UNL     1      -9.818   8.914  71.679  1.00  0.00    -0.317 C  
BRANCH   4   6
HETATM    6  C   UNL     1     -11.060   9.238  69.522  1.00  0.00    -0.080 C  
BRANCH   6   7
HETATM    7  C   UNL     1      -9.760   9.957  69.145  1.00  0.00    -0.198 C  
BRANCH   7   8
HETATM    8  O   UNL     1     -10.064  11.108  68.339  1.00  0.00    -0.171 OA 
BRANCH   8   9
HETATM    9  C   UNL     1      -9.041  11.615  67.574  1.00  0.00    -0.172 C  
HETATM   10  O   UNL     1      -7.953  11.047  67.516  1.00  0.00    -0.112 OA 
BRANCH   9  11
HETATM   11  C   UNL     1      -9.427  12.894  66.810  1.00  0.00    -0.245 C  
HETATM   12  C   UNL     1     -10.401  12.629  65.674  1.00  0.00    -0.293 A  
HETATM   13  C   UNL     1     -10.040  11.799  64.595  1.00  0.00    -0.310 A  
HETATM   14  C   UNL     1     -10.990  11.409  63.652  1.00  0.00    -0.443 A  
HETATM   15  C   UNL     1     -12.296  11.884  63.745  1.00  0.00    -0.541 A  
HETATM   16  C   UNL     1     -12.641  12.769  64.767  1.00  0.00    -0.518 A  
HETATM   17  C   UNL     1     -11.696  13.140  65.725  1.00  0.00    -0.374 A  
HETATM   18  O   UNL     1     -12.133  14.008  66.692  1.00  0.00    -0.428 OA 
HETATM   19  C   UNL     1     -11.234  14.466  67.622  1.00  0.00    -0.313 A  
HETATM   20  C   UNL     1     -11.701  15.477  68.469  1.00  0.00    -0.351 A  
HETATM   21  C   UNL     1     -10.881  15.992  69.469  1.00  0.00    -0.317 A  
HETATM   22  C   UNL     1      -9.589  15.499  69.621  1.00  0.00    -0.264 A  
HETATM   23  C   UNL     1      -9.113  14.503  68.763  1.00  0.00    -0.158 A  
HETATM   24  C   UNL     1      -9.933  13.969  67.753  1.00  0.00    -0.236 A  
ENDBRANCH   9  11
ENDBRANCH   8   9
ENDBRANCH   7   8
ENDBRANCH   6   7
ENDBRANCH   4   6
BRANCH   4  25
HETATM   25  C   UNL     1     -12.246   9.817  71.684  1.00  0.00    -0.404 C  
HETATM   26  C   UNL     1     -12.482  11.080  70.858  1.00  0.00    -0.509 C  
HETATM   27  C   UNL     1     -13.613   9.173  71.980  1.00  0.00    -0.520 C  
ENDBRANCH   4  25
ENDBRANCH   2   4
TORSDOF 7
ENDMDL
MODEL       30
REMARK 921   NORMALIZED FREE ENERGY PREDICTED BY IDOCK:   -5.89 KCAL/MOL
REMARK 922        TOTAL FREE ENERGY PREDICTED BY IDOCK:   -9.48 KCAL/MOL
REMARK 923 INTER-LIGAND FREE ENERGY PREDICTED BY IDOCK:   -8.30 KCAL/MOL
REMARK 924 INTRA-LIGAND FREE ENERGY PREDICTED BY IDOCK:   -1.18 KCAL/MOL
REMARK 927      BINDING AFFINITY PREDICTED BY RF-SCORE:    0.00 PKD
ROOT
HETATM    1  C   UNL     1     -13.026  13.767  65.330  1.00  0.00    -0.328 C  
HETATM    2  C   UNL     1     -12.336  12.455  64.941  1.00  0.00    -0.402 C  
HETATM    3  C   UNL     1     -12.722  11.995  63.535  1.00  0.00    -0.567 C  
ENDROOT
BRANCH   2   4
HETATM    4  N   UNL     1     -10.771  12.422  65.180  1.00  0.00    -0.283 N  
HETATM    5  C   UNL     1     -10.054  12.272  63.826  1.00  0.00    -0.350 C  
BRANCH   4   6
HETATM    6  C   UNL     1     -10.324  13.808  65.792  1.00  0.00    -0.307 C  
BRANCH   6   7
HETATM    7  C   UNL     1     -10.036  14.937  64.796  1.00  0.00    -0.005 C  
BRANCH   7   8
HETATM    8  O   UNL     1      -9.597  16.106  65.509  1.00  0.00    -0.447 OA 
BRANCH   8   9
HETATM    9  C   UNL     1     -10.506  17.129  65.639  1.00  0.00    -0.197 C  
HETATM   10  O   UNL     1     -11.224  17.459  64.699  1.00  0.00    -0.992 OA 
BRANCH   9  11
HETATM   11  C   UNL     1     -10.535  17.743  67.049  1.00  0.00    -0.324 C  
HETATM   12  C   UNL     1     -10.720  16.703  68.141  1.00  0.00    -0.349 A  
HETATM   13  C   UNL     1     -11.884  15.913  68.194  1.00  0.00    -0.001 A  
HETATM   14  C   UNL     1     -11.972  14.839  69.079  1.00  0.00    -0.308 A  
HETATM   15  C   UNL     1     -10.923  14.572  69.954  1.00  0.00    -0.147 A  
HETATM   16  C   UNL     1      -9.798  15.398  69.961  1.00  0.00    -0.110 A  
HETATM   17  C   UNL     1      -9.699  16.459  69.059  1.00  0.00    -0.262 A  
HETATM   18  O   UNL     1      -8.554  17.208  69.139  1.00  0.00    -0.147 OA 
HETATM   19  C   UNL     1      -8.426  18.307  68.326  1.00  0.00    -0.295 A  
HETATM   20  C   UNL     1      -7.318  19.121  68.580  1.00  0.00    -0.365 A  
HETATM   21  C   UNL     1      -7.076  20.246  67.795  1.00  0.00    -0.339 A  
HETATM   22  C   UNL     1      -7.948  20.560  66.757  1.00  0.00    -0.248 A  
HETATM   23  C   UNL     1      -9.068  19.759  66.515  1.00  0.00    -0.450 A  
HETATM   24  C   UNL     1      -9.319  18.617  67.295  1.00  0.00    -0.299 A  
ENDBRANCH   9  11
ENDBRANCH   8   9
ENDBRANCH   7   8
ENDBRANCH   6   7
ENDBRANCH   4   6
BRANCH   4  25
HETATM   25  C   UNL     1     -10.271  11.313  66.222  1.00  0.00    -0.236 C  
HETATM   26  C   UNL     1      -9.735  10.038  65.572  1.00  0.00    -0.355 C  
HETATM   27  C   UNL     1      -9.198  11.847  67.188  1.00  0.00    -0.183 C  
ENDBRANCH   4  25
ENDBRANCH   2   4
TORSDOF 7
ENDMDL
MODEL       31
REMARK 921   NORMALIZED FREE ENERGY PREDICTED BY IDOCK:   -5.89 KCAL/MOL
REMARK 922        TOTAL FREE ENERGY PREDICTED BY IDOCK:   -9.48 KCAL/MOL
REMARK 923 INTER-LIGAND FREE ENERGY PREDICTED BY IDOCK:   -8.19 KCAL/MOL
REMARK 924 INTRA-LIGAND FREE ENERGY PREDICTED BY IDOCK:   -1.29 KCAL/MOL
REMARK 927      BINDING AFFINITY PREDICTED BY RF-SCORE:    0.00 PKD
ROOT
HETATM    1  C   UNL     1     -11.104   6.995  70.557  1.00  0.00    -0.316 C  
HETATM    2  C   UNL     1     -10.938   8.454  70.116  1.00  0.00    -0.215 C  
HETATM    3  C   UNL     1     -10.899   9.414  71.305  1.00  0.00    -0.431 C  
ENDROOT
BRANCH   2   4
HETATM    4  N   UNL     1      -9.763   8.715  69.087  1.00  0.00    -0.170 N  
HETATM    5  C   UNL     1     -10.314   8.617  67.653  1.00  0.00    -0.254 C  
BRANCH   4   6
HETATM    6  C   UNL     1      -9.238  10.191  69.285  1.00  0.00    -0.208 C  
BRANCH   6   7
HETATM    7  C   UNL     1      -9.697  11.227  68.252  1.00  0.00    -0.198 C  
BRANCH   7   8
HETATM    8  O   UNL     1     -10.388  12.297  68.920  1.00  0.00    -0.172 OA 
BRANCH   8   9
HETATM    9  C   UNL     1     -11.755  12.327  68.789  1.00  0.00    -0.340 C  
HETATM   10  O   UNL     1     -12.404  11.290  68.681  1.00  0.00    -0.534 OA 
BRANCH   9  11
HETATM   11  C   UNL     1     -12.340  13.750  68.835  1.00  0.00    -0.067 C  
HETATM   12  C   UNL     1     -12.349  14.339  70.236  1.00  0.00    -0.418 A  
HETATM   13  C   UNL     1     -13.094  13.734  71.266  1.00  0.00    -0.370 A  
HETATM   14  C   UNL     1     -12.956  14.164  72.585  1.00  0.00    -0.505 A  
HETATM   15  C   UNL     1     -12.115  15.232  72.884  1.00  0.00    -0.522 A  
HETATM   16  C   UNL     1     -11.433  15.885  71.857  1.00  0.00    -0.442 A  
HETATM   17  C   UNL     1     -11.551  15.441  70.539  1.00  0.00    -0.326 A  
HETATM   18  O   UNL     1     -10.838  16.143  69.603  1.00  0.00    -0.289 OA 
HETATM   19  C   UNL     1     -10.967  15.800  68.280  1.00  0.00    -0.325 A  
HETATM   20  C   UNL     1     -10.350  16.663  67.369  1.00  0.00    -0.292 A  
HETATM   21  C   UNL     1     -10.393  16.392  66.004  1.00  0.00    -0.365 A  
HETATM   22  C   UNL     1     -11.058  15.257  65.549  1.00  0.00    -0.330 A  
HETATM   23  C   UNL     1     -11.692  14.405  66.457  1.00  0.00    -0.404 A  
HETATM   24  C   UNL     1     -11.650  14.663  67.838  1.00  0.00    -0.373 A  
ENDBRANCH   9  11
ENDBRANCH   8   9
ENDBRANCH   7   8
ENDBRANCH   6   7
ENDBRANCH   4   6
BRANCH   4  25
HETATM   25  C   UNL     1      -8.481   7.774  69.276  1.00  0.00    -0.138 C  
HETATM   26  C   UNL     1      -7.724   7.478  67.982  1.00  0.00    -0.116 C  
HETATM   27  C   UNL     1      -7.478   8.337  70.300  1.00  0.00    -0.066 C  
ENDBRANCH   4  25
ENDBRANCH   2   4
TORSDOF 7
ENDMDL
MODEL       32
REMARK 921   NORMALIZED FREE ENERGY PREDICTED BY IDOCK:   -5.89 KCAL/MOL
REMARK 922        TOTAL FREE ENERGY PREDICTED BY IDOCK:   -9.48 KCAL/MOL
REMARK 923 INTER-LIGAND FREE ENERGY PREDICTED BY IDOCK:   -8.38 KCAL/MOL
REMARK 924 INTRA-LIGAND FREE ENERGY PREDICTED BY IDOCK:   -1.10 KCAL/MOL
REMARK 927      BINDING AFFINITY PREDICTED BY RF-SCORE:    0.00 PKD
ROOT
HETATM    1  C   UNL     1      -9.953  20.210  68.192  1.00  0.00    -0.486 C  
HETATM    2  C   UNL     1     -10.602  19.092  67.369  1.00  0.00    -0.474 C  
HETATM    3  C   UNL     1     -10.868  19.519  65.925  1.00  0.00    -0.426 C  
ENDROOT
BRANCH   2   4
HETATM    4  N   UNL     1      -9.882  17.685  67.462  1.00  0.00    -0.290 N  
HETATM    5  C   UNL     1     -10.445  16.905  68.663  1.00  0.00    -0.352 C  
BRANCH   4   6
HETATM    6  C   UNL     1     -10.228  16.853  66.164  1.00  0.00    -0.341 C  
BRANCH   6   7
HETATM    7  C   UNL     1     -11.129  15.628  66.354  1.00  0.00    -0.123 C  
BRANCH   7   8
HETATM    8  O   UNL     1     -10.680  14.565  65.496  1.00  0.00    -0.304 OA 
BRANCH   8   9
HETATM    9  C   UNL     1     -10.024  13.519  66.099  1.00  0.00    -0.304 C  
HETATM   10  O   UNL     1      -8.954  13.692  66.677  1.00  0.00    -0.211 OA 
BRANCH   9  11
HETATM   11  C   UNL     1     -10.783  12.184  65.998  1.00  0.00    -0.308 C  
HETATM   12  C   UNL     1     -10.186  11.244  64.964  1.00  0.00    -0.339 A  
HETATM   13  C   UNL     1     -10.142  11.604  63.604  1.00  0.00    -0.435 A  
HETATM   14  C   UNL     1      -9.433  10.827  62.689  1.00  0.00    -0.331 A  
HETATM   15  C   UNL     1      -8.804   9.659  63.109  1.00  0.00    -0.254 A  
HETATM   16  C   UNL     1      -8.909   9.255  64.440  1.00  0.00    -0.197 A  
HETATM   17  C   UNL     1      -9.599  10.044  65.363  1.00  0.00    -0.279 A  
HETATM   18  O   UNL     1      -9.641   9.566  66.646  1.00  0.00    -0.164 OA 
HETATM   19  C   UNL     1     -10.362  10.261  67.586  1.00  0.00    -0.220 A  
HETATM   20  C   UNL     1     -10.505   9.630  68.825  1.00  0.00    -0.238 A  
HETATM   21  C   UNL     1     -11.194  10.259  69.860  1.00  0.00    -0.360 A  
HETATM   22  C   UNL     1     -11.742  11.521  69.652  1.00  0.00    -0.419 A  
HETATM   23  C   UNL     1     -11.618  12.144  68.408  1.00  0.00    -0.381 A  
HETATM   24  C   UNL     1     -10.920  11.523  67.357  1.00  0.00    -0.317 A  
ENDBRANCH   9  11
ENDBRANCH   8   9
ENDBRANCH   7   8
ENDBRANCH   6   7
ENDBRANCH   4   6
BRANCH   4  25
HETATM   25  C   UNL     1      -8.282  17.749  67.516  1.00  0.00    -0.225 C  
HETATM   26  C   UNL     1      -7.667  17.046  68.726  1.00  0.00    -0.249 C  
HETATM   27  C   UNL     1      -7.622  17.184  66.245  1.00  0.00    -0.352 C  
ENDBRANCH   4  25
ENDBRANCH   2   4
TORSDOF 7
ENDMDL
MODEL       33
REMARK 921   NORMALIZED FREE ENERGY PREDICTED BY IDOCK:   -5.88 KCAL/MOL
REMARK 922        TOTAL FREE ENERGY PREDICTED BY IDOCK:   -9.47 KCAL/MOL
REMARK 923 INTER-LIGAND FREE ENERGY PREDICTED BY IDOCK:   -8.36 KCAL/MOL
REMARK 924 INTRA-LIGAND FREE ENERGY PREDICTED BY IDOCK:   -1.11 KCAL/MOL
REMARK 927      BINDING AFFINITY PREDICTED BY RF-SCORE:    0.00 PKD
ROOT
HETATM    1  C   UNL     1     -10.067  10.899  65.303  1.00  0.00    -0.340 C  
HETATM    2  C   UNL     1      -8.952  10.092  65.976  1.00  0.00    -0.148 C  
HETATM    3  C   UNL     1      -7.799  10.981  66.442  1.00  0.00    -0.150 C  
ENDROOT
BRANCH   2   4
HETATM    4  N   UNL     1      -9.435   9.087  67.100  1.00  0.00    -0.146 N  
HETATM    5  C   UNL     1      -8.545   9.253  68.346  1.00  0.00    -0.124 C  
BRANCH   4   6
HETATM    6  C   UNL     1     -10.906   9.473  67.525  1.00  0.00    -0.170 C  
BRANCH   6   7
HETATM    7  C   UNL     1     -11.061  10.240  68.843  1.00  0.00    -0.231 C  
BRANCH   7   8
HETATM    8  O   UNL     1     -11.800  11.452  68.609  1.00  0.00    -0.362 OA 
BRANCH   8   9
HETATM    9  C   UNL     1     -11.106  12.632  68.730  1.00  0.00    -0.263 C  
HETATM   10  O   UNL     1      -9.878  12.644  68.752  1.00  0.00    -0.116 OA 
BRANCH   9  11
HETATM   11  C   UNL     1     -12.016  13.871  68.788  1.00  0.00    -0.393 C  
HETATM   12  C   UNL     1     -12.395  14.257  70.208  1.00  0.00    -0.418 A  
HETATM   13  C   UNL     1     -13.129  13.375  71.023  1.00  0.00    -0.185 A  
HETATM   14  C   UNL     1     -13.316  13.651  72.377  1.00  0.00    -0.641 A  
HETATM   15  C   UNL     1     -12.817  14.832  72.920  1.00  0.00    -0.559 A  
HETATM   16  C   UNL     1     -12.156  15.747  72.101  1.00  0.00    -0.570 A  
HETATM   17  C   UNL     1     -11.947  15.461  70.751  1.00  0.00    -0.359 A  
HETATM   18  O   UNL     1     -11.283  16.419  70.031  1.00  0.00    -0.348 OA 
HETATM   19  C   UNL     1     -11.108  16.229  68.683  1.00  0.00    -0.356 A  
HETATM   20  C   UNL     1     -10.578  17.317  67.983  1.00  0.00    -0.394 A  
HETATM   21  C   UNL     1     -10.332  17.221  66.615  1.00  0.00    -0.305 A  
HETATM   22  C   UNL     1     -10.620  16.036  65.946  1.00  0.00    -0.338 A  
HETATM   23  C   UNL     1     -11.168  14.954  66.641  1.00  0.00    -0.340 A  
HETATM   24  C   UNL     1     -11.415  15.035  68.023  1.00  0.00    -0.357 A  
ENDBRANCH   9  11
ENDBRANCH   8   9
ENDBRANCH   7   8
ENDBRANCH   6   7
ENDBRANCH   4   6
BRANCH   4  25
HETATM   25  C   UNL     1      -9.508   7.552  66.646  1.00  0.00    -0.191 C  
HETATM   26  C   UNL     1      -8.311   6.710  67.085  1.00  0.00    -0.113 C  
HETATM   27  C   UNL     1     -10.791   6.852  67.130  1.00  0.00    -0.447 C  
ENDBRANCH   4  25
ENDBRANCH   2   4
TORSDOF 7
ENDMDL
MODEL       34
REMARK 921   NORMALIZED FREE ENERGY PREDICTED BY IDOCK:   -5.87 KCAL/MOL
REMARK 922        TOTAL FREE ENERGY PREDICTED BY IDOCK:   -9.45 KCAL/MOL
REMARK 923 INTER-LIGAND FREE ENERGY PREDICTED BY IDOCK:   -7.98 KCAL/MOL
REMARK 924 INTRA-LIGAND FREE ENERGY PREDICTED BY IDOCK:   -1.47 KCAL/MOL
REMARK 927      BINDING AFFINITY PREDICTED BY RF-SCORE:    0.00 PKD
ROOT
HETATM    1  C   UNL     1      -7.517  18.407  68.191  1.00  0.00    -0.279 C  
HETATM    2  C   UNL     1      -8.970  18.041  68.517  1.00  0.00    -0.289 C  
HETATM    3  C   UNL     1      -9.956  19.099  68.022  1.00  0.00    -0.458 C  
ENDROOT
BRANCH   2   4
HETATM    4  N   UNL     1      -9.401  16.573  68.107  1.00  0.00    -0.214 N  
HETATM    5  C   UNL     1      -9.337  16.435  66.575  1.00  0.00    -0.273 C  
BRANCH   4   6
HETATM    6  C   UNL     1      -8.356  15.553  68.710  1.00  0.00    -0.187 C  
BRANCH   6   7
HETATM    7  C   UNL     1      -7.869  14.438  67.777  1.00  0.00    -0.160 C  
BRANCH   7   8
HETATM    8  O   UNL     1      -8.639  13.247  68.010  1.00  0.00    -0.160 OA 
BRANCH   8   9
HETATM    9  C   UNL     1      -8.239  12.112  67.346  1.00  0.00    -0.175 C  
HETATM   10  O   UNL     1      -7.054  11.912  67.092  1.00  0.00    -0.135 OA 
BRANCH   9  11
HETATM   11  C   UNL     1      -9.401  11.158  67.015  1.00  0.00    -0.182 C  
HETATM   12  C   UNL     1     -10.196  10.752  68.245  1.00  0.00    -0.187 A  
HETATM   13  C   UNL     1      -9.586  10.040  69.294  1.00  0.00    -0.227 A  
HETATM   14  C   UNL     1     -10.263   9.830  70.495  1.00  0.00    -0.321 A  
HETATM   15  C   UNL     1     -11.571  10.281  70.643  1.00  0.00    -0.435 A  
HETATM   16  C   UNL     1     -12.209  10.919  69.579  1.00  0.00    -0.331 A  
HETATM   17  C   UNL     1     -11.524  11.151  68.385  1.00  0.00    -0.306 A  
HETATM   18  O   UNL     1     -12.234  11.789  67.402  1.00  0.00    -0.501 OA 
HETATM   19  C   UNL     1     -11.640  11.985  66.180  1.00  0.00    -0.304 A  
HETATM   20  C   UNL     1     -12.475  12.484  65.175  1.00  0.00    -0.451 A  
HETATM   21  C   UNL     1     -11.967  12.748  63.905  1.00  0.00    -0.554 A  
HETATM   22  C   UNL     1     -10.622  12.509  63.640  1.00  0.00    -0.446 A  
HETATM   23  C   UNL     1      -9.791  11.991  64.637  1.00  0.00    -0.182 A  
HETATM   24  C   UNL     1     -10.289  11.727  65.925  1.00  0.00    -0.280 A  
ENDBRANCH   9  11
ENDBRANCH   8   9
ENDBRANCH   7   8
ENDBRANCH   6   7
ENDBRANCH   4   6
BRANCH   4  25
HETATM   25  C   UNL     1     -10.827  16.108  68.668  1.00  0.00    -0.311 C  
HETATM   26  C   UNL     1     -11.565  15.122  67.763  1.00  0.00    -0.303 C  
HETATM   27  C   UNL     1     -10.739  15.494  70.076  1.00  0.00    -0.331 C  
ENDBRANCH   4  25
ENDBRANCH   2   4
TORSDOF 7
ENDMDL
MODEL       35
REMARK 921   NORMALIZED FREE ENERGY PREDICTED BY IDOCK:   -5.87 KCAL/MOL
REMARK 922        TOTAL FREE ENERGY PREDICTED BY IDOCK:   -9.45 KCAL/MOL
REMARK 923 INTER-LIGAND FREE ENERGY PREDICTED BY IDOCK:   -8.44 KCAL/MOL
REMARK 924 INTRA-LIGAND FREE ENERGY PREDICTED BY IDOCK:   -1.01 KCAL/MOL
REMARK 927      BINDING AFFINITY PREDICTED BY RF-SCORE:    0.00 PKD
ROOT
HETATM    1  C   UNL     1     -12.156  12.685  64.930  1.00  0.00    -0.494 C  
HETATM    2  C   UNL     1     -11.139  11.552  64.749  1.00  0.00    -0.233 C  
HETATM    3  C   UNL     1     -10.317  11.715  63.471  1.00  0.00    -0.488 C  
ENDROOT
BRANCH   2   4
HETATM    4  N   UNL     1     -10.238  11.251  66.015  1.00  0.00    -0.239 N  
HETATM    5  C   UNL     1      -8.803  10.940  65.554  1.00  0.00    -0.188 C  
BRANCH   4   6
HETATM    6  C   UNL     1     -10.168  12.554  66.907  1.00  0.00    -0.226 C  
BRANCH   6   7
HETATM    7  C   UNL     1      -8.946  13.458  66.705  1.00  0.00    -0.179 C  
BRANCH   7   8
HETATM    8  O   UNL     1      -9.254  14.787  67.160  1.00  0.00    -0.203 OA 
BRANCH   8   9
HETATM    9  C   UNL     1     -10.097  15.531  66.371  1.00  0.00    -0.288 C  
HETATM   10  O   UNL     1     -10.066  15.437  65.147  1.00  0.00    -0.337 OA 
BRANCH   9  11
HETATM   11  C   UNL     1     -11.062  16.418  67.178  1.00  0.00     0.026 C  
HETATM   12  C   UNL     1     -11.424  15.819  68.527  1.00  0.00    -0.381 A  
HETATM   13  C   UNL     1     -12.097  14.586  68.610  1.00  0.00    -0.253 A  
HETATM   14  C   UNL     1     -12.263  13.951  69.841  1.00  0.00    -0.393 A  
HETATM   15  C   UNL     1     -11.806  14.563  71.005  1.00  0.00    -0.350 A  
HETATM   16  C   UNL     1     -11.207  15.821  70.938  1.00  0.00    -0.404 A  
HETATM   17  C   UNL     1     -11.019  16.446  69.704  1.00  0.00    -0.329 A  
HETATM   18  O   UNL     1     -10.416  17.677  69.742  1.00  0.00     0.031 OA 
HETATM   19  C   UNL     1     -10.265  18.374  68.569  1.00  0.00    -0.364 A  
HETATM   20  C   UNL     1      -9.803  19.687  68.702  1.00  0.00    -0.519 A  
HETATM   21  C   UNL     1      -9.587  20.474  67.573  1.00  0.00    -0.545 A  
HETATM   22  C   UNL     1      -9.835  19.947  66.310  1.00  0.00    -0.570 A  
HETATM   23  C   UNL     1     -10.317  18.641  66.176  1.00  0.00    -0.481 A  
HETATM   24  C   UNL     1     -10.533  17.834  67.307  1.00  0.00    -0.356 A  
ENDBRANCH   9  11
ENDBRANCH   8   9
ENDBRANCH   7   8
ENDBRANCH   6   7
ENDBRANCH   4   6
BRANCH   4  25
HETATM   25  C   UNL     1     -10.794  10.100  66.981  1.00  0.00    -0.151 C  
HETATM   26  C   UNL     1      -9.729   9.114  67.459  1.00  0.00    -0.204 C  
HETATM   27  C   UNL     1     -11.518  10.662  68.217  1.00  0.00    -0.318 C  
ENDBRANCH   4  25
ENDBRANCH   2   4
TORSDOF 7
ENDMDL
MODEL       36
REMARK 921   NORMALIZED FREE ENERGY PREDICTED BY IDOCK:   -5.86 KCAL/MOL
REMARK 922        TOTAL FREE ENERGY PREDICTED BY IDOCK:   -9.44 KCAL/MOL
REMARK 923 INTER-LIGAND FREE ENERGY PREDICTED BY IDOCK:   -8.53 KCAL/MOL
REMARK 924 INTRA-LIGAND FREE ENERGY PREDICTED BY IDOCK:   -0.91 KCAL/MOL
REMARK 927      BINDING AFFINITY PREDICTED BY RF-SCORE:    0.00 PKD
ROOT
HETATM    1  C   UNL     1     -14.254   7.485  71.716  1.00  0.00    -0.548 C  
HETATM    2  C   UNL     1     -13.118   8.490  71.490  1.00  0.00    -0.299 C  
HETATM    3  C   UNL     1     -13.199   9.676  72.450  1.00  0.00    -0.413 C  
ENDROOT
BRANCH   2   4
HETATM    4  N   UNL     1     -11.667   7.859  71.427  1.00  0.00    -0.274 N  
HETATM    5  C   UNL     1     -11.603   6.848  70.267  1.00  0.00    -0.311 C  
BRANCH   4   6
HETATM    6  C   UNL     1     -10.631   9.006  71.101  1.00  0.00    -0.290 C  
BRANCH   6   7
HETATM    7  C   UNL     1     -10.531   9.445  69.636  1.00  0.00    -0.223 C  
BRANCH   7   8
HETATM    8  O   UNL     1     -10.512  10.881  69.565  1.00  0.00    -0.215 OA 
BRANCH   8   9
HETATM    9  C   UNL     1     -11.061  11.452  68.442  1.00  0.00    -0.242 C  
HETATM   10  O   UNL     1     -12.247  11.293  68.166  1.00  0.00    -0.622 OA 
BRANCH   9  11
HETATM   11  C   UNL     1     -10.060  12.304  67.640  1.00  0.00    -0.204 C  
HETATM   12  C   UNL     1      -9.973  11.891  66.180  1.00  0.00    -0.254 A  
HETATM   13  C   UNL     1      -9.538  10.601  65.822  1.00  0.00    -0.258 A  
HETATM   14  C   UNL     1      -9.634  10.164  64.501  1.00  0.00    -0.376 A  
HETATM   15  C   UNL     1     -10.114  11.024  63.517  1.00  0.00    -0.428 A  
HETATM   16  C   UNL     1     -10.472  12.330  63.853  1.00  0.00    -0.458 A  
HETATM   17  C   UNL     1     -10.400  12.761  65.178  1.00  0.00    -0.295 A  
HETATM   18  O   UNL     1     -10.780  14.058  65.408  1.00  0.00    -0.306 OA 
HETATM   19  C   UNL     1     -10.666  14.563  66.680  1.00  0.00    -0.305 A  
HETATM   20  C   UNL     1     -10.905  15.935  66.808  1.00  0.00    -0.228 A  
HETATM   21  C   UNL     1     -10.845  16.546  68.058  1.00  0.00    -0.337 A  
HETATM   22  C   UNL     1     -10.543  15.783  69.182  1.00  0.00    -0.242 A  
HETATM   23  C   UNL     1     -10.283  14.415  69.053  1.00  0.00    -0.185 A  
HETATM   24  C   UNL     1     -10.347  13.785  67.797  1.00  0.00    -0.241 A  
ENDBRANCH   9  11
ENDBRANCH   8   9
ENDBRANCH   7   8
ENDBRANCH   6   7
ENDBRANCH   4   6
BRANCH   4  25
HETATM   25  C   UNL     1     -11.159   7.198  72.794  1.00  0.00    -0.300 C  
HETATM   26  C   UNL     1     -11.125   5.671  72.779  1.00  0.00    -0.334 C  
HETATM   27  C   UNL     1      -9.768   7.705  73.217  1.00  0.00    -0.346 C  
ENDBRANCH   4  25
ENDBRANCH   2   4
TORSDOF 7
ENDMDL
MODEL       37
REMARK 921   NORMALIZED FREE ENERGY PREDICTED BY IDOCK:   -5.85 KCAL/MOL
REMARK 922        TOTAL FREE ENERGY PREDICTED BY IDOCK:   -9.43 KCAL/MOL
REMARK 923 INTER-LIGAND FREE ENERGY PREDICTED BY IDOCK:   -8.06 KCAL/MOL
REMARK 924 INTRA-LIGAND FREE ENERGY PREDICTED BY IDOCK:   -1.37 KCAL/MOL
REMARK 927      BINDING AFFINITY PREDICTED BY RF-SCORE:    0.00 PKD
ROOT
HETATM    1  C   UNL     1     -11.286  12.271  63.706  1.00  0.00    -0.534 C  
HETATM    2  C   UNL     1     -10.926  13.548  64.474  1.00  0.00    -0.394 C  
HETATM    3  C   UNL     1     -11.940  14.667  64.237  1.00  0.00    -0.406 C  
ENDROOT
BRANCH   2   4
HETATM    4  N   UNL     1     -10.602  13.339  66.009  1.00  0.00    -0.282 N  
HETATM    5  C   UNL     1     -11.754  12.560  66.670  1.00  0.00    -0.387 C  
BRANCH   4   6
HETATM    6  C   UNL     1      -9.304  12.447  66.135  1.00  0.00    -0.155 C  
BRANCH   6   7
HETATM    7  C   UNL     1      -9.448  11.134  66.912  1.00  0.00    -0.185 C  
BRANCH   7   8
HETATM    8  O   UNL     1      -8.765  11.246  68.173  1.00  0.00    -0.141 OA 
BRANCH   8   9
HETATM    9  C   UNL     1      -9.026  10.271  69.106  1.00  0.00    -0.180 C  
HETATM   10  O   UNL     1      -8.205   9.991  69.975  1.00  0.00    -0.178 OA 
BRANCH   9  11
HETATM   11  C   UNL     1     -10.423   9.641  68.955  1.00  0.00    -0.234 C  
HETATM   12  C   UNL     1     -10.385   8.122  68.942  1.00  0.00    -0.225 A  
HETATM   13  C   UNL     1      -9.692   7.428  67.932  1.00  0.00    -0.166 A  
HETATM   14  C   UNL     1      -9.502   6.049  68.022  1.00  0.00    -0.113 A  
HETATM   15  C   UNL     1     -10.045   5.343  69.092  1.00  0.00    -0.293 A  
HETATM   16  C   UNL     1     -10.799   6.013  70.055  1.00  0.00    -0.429 A  
HETATM   17  C   UNL     1     -10.969   7.396  69.978  1.00  0.00    -0.248 A  
HETATM   18  O   UNL     1     -11.720   7.964  70.974  1.00  0.00    -0.283 OA 
HETATM   19  C   UNL     1     -11.982   9.310  70.918  1.00  0.00    -0.257 A  
HETATM   20  C   UNL     1     -12.893   9.789  71.865  1.00  0.00    -0.520 A  
HETATM   21  C   UNL     1     -13.207  11.145  71.916  1.00  0.00    -0.488 A  
HETATM   22  C   UNL     1     -12.613  12.023  71.015  1.00  0.00    -0.370 A  
HETATM   23  C   UNL     1     -11.718  11.543  70.054  1.00  0.00    -0.414 A  
HETATM   24  C   UNL     1     -11.386  10.178  69.997  1.00  0.00    -0.351 A  
ENDBRANCH   9  11
ENDBRANCH   8   9
ENDBRANCH   7   8
ENDBRANCH   6   7
ENDBRANCH   4   6
BRANCH   4  25
HETATM   25  C   UNL     1     -10.278  14.683  66.818  1.00  0.00    -0.268 C  
HETATM   26  C   UNL     1     -10.601  14.611  68.310  1.00  0.00    -0.235 C  
HETATM   27  C   UNL     1      -8.812  15.129  66.665  1.00  0.00    -0.321 C  
ENDBRANCH   4  25
ENDBRANCH   2   4
TORSDOF 7
ENDMDL
MODEL       38
REMARK 921   NORMALIZED FREE ENERGY PREDICTED BY IDOCK:   -5.84 KCAL/MOL
REMARK 922        TOTAL FREE ENERGY PREDICTED BY IDOCK:   -9.41 KCAL/MOL
REMARK 923 INTER-LIGAND FREE ENERGY PREDICTED BY IDOCK:   -8.08 KCAL/MOL
REMARK 924 INTRA-LIGAND FREE ENERGY PREDICTED BY IDOCK:   -1.33 KCAL/MOL
REMARK 927      BINDING AFFINITY PREDICTED BY RF-SCORE:    0.00 PKD
ROOT
HETATM    1  C   UNL     1      -9.237  15.687  68.616  1.00  0.00    -0.205 C  
HETATM    2  C   UNL     1     -10.313  14.672  68.213  1.00  0.00    -0.230 C  
HETATM    3  C   UNL     1     -11.708  15.101  68.668  1.00  0.00    -0.364 C  
ENDROOT
BRANCH   2   4
HETATM    4  N   UNL     1     -10.281  14.227  66.694  1.00  0.00    -0.267 N  
HETATM    5  C   UNL     1      -9.537  15.293  65.869  1.00  0.00    -0.342 C  
BRANCH   4   6
HETATM    6  C   UNL     1      -9.453  12.887  66.577  1.00  0.00    -0.251 C  
BRANCH   6   7
HETATM    7  C   UNL     1      -8.863  12.329  67.877  1.00  0.00    -0.178 C  
BRANCH   7   8
HETATM    8  O   UNL     1      -8.855  10.892  67.823  1.00  0.00    -0.132 OA 
BRANCH   8   9
HETATM    9  C   UNL     1      -9.201  10.228  68.975  1.00  0.00    -0.183 C  
HETATM   10  O   UNL     1      -8.425  10.161  69.924  1.00  0.00    -0.176 OA 
BRANCH   9  11
HETATM   11  C   UNL     1     -10.626   9.648  68.938  1.00  0.00    -0.239 C  
HETATM   12  C   UNL     1     -10.646   8.131  69.023  1.00  0.00    -0.167 A  
HETATM   13  C   UNL     1     -10.036   7.346  68.027  1.00  0.00    -0.216 A  
HETATM   14  C   UNL     1      -9.894   5.969  68.198  1.00  0.00    -0.148 A  
HETATM   15  C   UNL     1     -10.403   5.355  69.339  1.00  0.00    -0.339 A  
HETATM   16  C   UNL     1     -11.078   6.116  70.294  1.00  0.00    -0.436 A  
HETATM   17  C   UNL     1     -11.200   7.497  70.135  1.00  0.00    -0.196 A  
HETATM   18  O   UNL     1     -11.873   8.158  71.129  1.00  0.00    -0.284 OA 
HETATM   19  C   UNL     1     -12.087   9.508  70.998  1.00  0.00    -0.318 A  
HETATM   20  C   UNL     1     -12.926  10.083  71.957  1.00  0.00    -0.514 A  
HETATM   21  C   UNL     1     -13.186  11.451  71.935  1.00  0.00    -0.485 A  
HETATM   22  C   UNL     1     -12.609  12.244  70.948  1.00  0.00    -0.334 A  
HETATM   23  C   UNL     1     -11.787  11.668  69.976  1.00  0.00    -0.435 A  
HETATM   24  C   UNL     1     -11.510  10.289  69.991  1.00  0.00    -0.367 A  
ENDBRANCH   9  11
ENDBRANCH   8   9
ENDBRANCH   7   8
ENDBRANCH   6   7
ENDBRANCH   4   6
BRANCH   4  25
HETATM   25  C   UNL     1     -11.714  13.903  66.056  1.00  0.00    -0.366 C  
HETATM   26  C   UNL     1     -11.958  14.556  64.696  1.00  0.00    -0.478 C  
HETATM   27  C   UNL     1     -11.972  12.392  65.915  1.00  0.00    -0.434 C  
ENDBRANCH   4  25
ENDBRANCH   2   4
TORSDOF 7
ENDMDL
MODEL       39
REMARK 921   NORMALIZED FREE ENERGY PREDICTED BY IDOCK:   -5.81 KCAL/MOL
REMARK 922        TOTAL FREE ENERGY PREDICTED BY IDOCK:   -9.38 KCAL/MOL
REMARK 923 INTER-LIGAND FREE ENERGY PREDICTED BY IDOCK:   -8.67 KCAL/MOL
REMARK 924 INTRA-LIGAND FREE ENERGY PREDICTED BY IDOCK:   -0.70 KCAL/MOL
REMARK 927      BINDING AFFINITY PREDICTED BY RF-SCORE:    0.00 PKD
ROOT
HETATM    1  C   UNL     1     -10.517  18.757  66.157  1.00  0.00    -0.499 C  
HETATM    2  C   UNL     1      -9.596  18.664  67.380  1.00  0.00    -0.296 C  
HETATM    3  C   UNL     1      -9.909  19.741  68.419  1.00  0.00    -0.522 C  
ENDROOT
BRANCH   2   4
HETATM    4  N   UNL     1      -9.474  17.222  68.021  1.00  0.00    -0.265 N  
HETATM    5  C   UNL     1     -10.502  17.083  69.158  1.00  0.00    -0.323 C  
BRANCH   4   6
HETATM    6  C   UNL     1      -9.847  16.148  66.924  1.00  0.00    -0.241 C  
BRANCH   6   7
HETATM    7  C   UNL     1     -11.055  15.252  67.223  1.00  0.00    -0.325 C  
BRANCH   7   8
HETATM    8  O   UNL     1     -10.602  14.009  67.786  1.00  0.00    -0.239 OA 
BRANCH   8   9
HETATM    9  C   UNL     1     -11.565  13.181  68.311  1.00  0.00    -0.335 C  
HETATM   10  O   UNL     1     -12.495  12.775  67.620  1.00  0.00    -0.110 OA 
BRANCH   9  11
HETATM   11  C   UNL     1     -11.316  12.816  69.786  1.00  0.00    -0.103 C  
HETATM   12  C   UNL     1     -12.212  13.586  70.742  1.00  0.00    -0.417 A  
HETATM   13  C   UNL     1     -12.142  14.990  70.822  1.00  0.00    -0.377 A  
HETATM   14  C   UNL     1     -13.086  15.705  71.558  1.00  0.00    -0.561 A  
HETATM   15  C   UNL     1     -14.077  15.027  72.263  1.00  0.00    -0.612 A  
HETATM   16  C   UNL     1     -14.105  13.632  72.251  1.00  0.00    -0.602 A  
HETATM   17  C   UNL     1     -13.175  12.916  71.495  1.00  0.00    -0.257 A  
HETATM   18  O   UNL     1     -13.289  11.551  71.542  1.00  0.00    -0.284 OA 
HETATM   19  C   UNL     1     -12.362  10.788  70.876  1.00  0.00    -0.396 A  
HETATM   20  C   UNL     1     -12.434   9.411  71.108  1.00  0.00    -0.370 A  
HETATM   21  C   UNL     1     -11.560   8.542  70.459  1.00  0.00    -0.145 A  
HETATM   22  C   UNL     1     -10.610   9.052  69.580  1.00  0.00    -0.231 A  
HETATM   23  C   UNL     1     -10.523  10.430  69.363  1.00  0.00    -0.261 A  
HETATM   24  C   UNL     1     -11.404  11.318  70.006  1.00  0.00    -0.292 A  
ENDBRANCH   9  11
ENDBRANCH   8   9
ENDBRANCH   7   8
ENDBRANCH   6   7
ENDBRANCH   4   6
BRANCH   4  25
HETATM   25  C   UNL     1      -8.005  16.829  68.523  1.00  0.00    -0.235 C  
HETATM   26  C   UNL     1      -7.883  15.400  69.050  1.00  0.00    -0.194 C  
HETATM   27  C   UNL     1      -6.933  17.034  67.437  1.00  0.00    -0.182 C  
ENDBRANCH   4  25
ENDBRANCH   2   4
TORSDOF 7
ENDMDL
MODEL       40
REMARK 921   NORMALIZED FREE ENERGY PREDICTED BY IDOCK:   -5.81 KCAL/MOL
REMARK 922        TOTAL FREE ENERGY PREDICTED BY IDOCK:   -9.37 KCAL/MOL
REMARK 923 INTER-LIGAND FREE ENERGY PREDICTED BY IDOCK:   -8.60 KCAL/MOL
REMARK 924 INTRA-LIGAND FREE ENERGY PREDICTED BY IDOCK:   -0.77 KCAL/MOL
REMARK 927      BINDING AFFINITY PREDICTED BY RF-SCORE:    0.00 PKD
ROOT
HETATM    1  C   UNL     1     -10.230   4.989  69.700  1.00  0.00    -0.306 C  
HETATM    2  C   UNL     1     -10.023   6.486  69.444  1.00  0.00    -0.158 C  
HETATM    3  C   UNL     1     -10.755   6.961  68.189  1.00  0.00    -0.260 C  
ENDROOT
BRANCH   2   4
HETATM    4  N   UNL     1     -10.287   7.424  70.691  1.00  0.00    -0.210 N  
HETATM    5  C   UNL     1      -8.985   8.158  71.058  1.00  0.00    -0.151 C  
BRANCH   4   6
HETATM    6  C   UNL     1     -11.342   8.525  70.281  1.00  0.00    -0.130 C  
BRANCH   6   7
HETATM    7  C   UNL     1     -10.882   9.985  70.372  1.00  0.00    -0.318 C  
BRANCH   7   8
HETATM    8  O   UNL     1     -11.637  10.784  69.446  1.00  0.00    -0.265 OA 
BRANCH   8   9
HETATM    9  C   UNL     1     -10.980  11.840  68.862  1.00  0.00    -0.239 C  
HETATM   10  O   UNL     1      -9.774  11.786  68.632  1.00  0.00    -0.191 OA 
BRANCH   9  11
HETATM   11  C   UNL     1     -11.907  13.018  68.514  1.00  0.00    -0.360 C  
HETATM   12  C   UNL     1     -11.926  14.091  69.590  1.00  0.00    -0.393 A  
HETATM   13  C   UNL     1     -12.379  13.798  70.890  1.00  0.00    -0.456 A  
HETATM   14  C   UNL     1     -12.223  14.726  71.920  1.00  0.00    -0.415 A  
HETATM   15  C   UNL     1     -11.662  15.972  71.654  1.00  0.00    -0.583 A  
HETATM   16  C   UNL     1     -11.283  16.297  70.351  1.00  0.00    -0.336 A  
HETATM   17  C   UNL     1     -11.416  15.361  69.325  1.00  0.00    -0.333 A  
HETATM   18  O   UNL     1     -11.010  15.772  68.082  1.00  0.00    -0.303 OA 
HETATM   19  C   UNL     1     -11.179  14.922  67.017  1.00  0.00    -0.344 A  
HETATM   20  C   UNL     1     -10.905  15.468  65.759  1.00  0.00    -0.337 A  
HETATM   21  C   UNL     1     -11.015  14.684  64.613  1.00  0.00    -0.340 A  
HETATM   22  C   UNL     1     -11.404  13.353  64.726  1.00  0.00    -0.356 A  
HETATM   23  C   UNL     1     -11.698  12.812  65.981  1.00  0.00    -0.470 A  
HETATM   24  C   UNL     1     -11.584  13.590  67.146  1.00  0.00    -0.393 A  
ENDBRANCH   9  11
ENDBRANCH   8   9
ENDBRANCH   7   8
ENDBRANCH   6   7
ENDBRANCH   4   6
BRANCH   4  25
HETATM   25  C   UNL     1     -10.911   6.687  71.969  1.00  0.00    -0.233 C  
HETATM   26  C   UNL     1     -10.559   7.341  73.305  1.00  0.00    -0.428 C  
HETATM   27  C   UNL     1     -12.442   6.554  71.888  1.00  0.00    -0.291 C  
ENDBRANCH   4  25
ENDBRANCH   2   4
TORSDOF 7
ENDMDL
MODEL       41
REMARK 921   NORMALIZED FREE ENERGY PREDICTED BY IDOCK:   -5.79 KCAL/MOL
REMARK 922        TOTAL FREE ENERGY PREDICTED BY IDOCK:   -9.35 KCAL/MOL
REMARK 923 INTER-LIGAND FREE ENERGY PREDICTED BY IDOCK:   -7.80 KCAL/MOL
REMARK 924 INTRA-LIGAND FREE ENERGY PREDICTED BY IDOCK:   -1.55 KCAL/MOL
REMARK 927      BINDING AFFINITY PREDICTED BY RF-SCORE:    0.00 PKD
ROOT
HETATM    1  C   UNL     1      -9.511  16.092  66.076  1.00  0.00    -0.384 C  
HETATM    2  C   UNL     1      -9.126  16.643  67.453  1.00  0.00    -0.201 C  
HETATM    3  C   UNL     1     -10.335  17.187  68.214  1.00  0.00    -0.354 C  
ENDROOT
BRANCH   2   4
HETATM    4  N   UNL     1      -8.236  15.678  68.338  1.00  0.00    -0.142 N  
HETATM    5  C   UNL     1      -9.049  15.220  69.562  1.00  0.00    -0.187 C  
BRANCH   4   6
HETATM    6  C   UNL     1      -7.898  14.387  67.494  1.00  0.00    -0.190 C  
BRANCH   6   7
HETATM    7  C   UNL     1      -8.310  13.042  68.103  1.00  0.00    -0.164 C  
BRANCH   7   8
HETATM    8  O   UNL     1      -8.687  12.135  67.053  1.00  0.00    -0.179 OA 
BRANCH   8   9
HETATM    9  C   UNL     1      -9.492  11.078  67.407  1.00  0.00    -0.160 C  
HETATM   10  O   UNL     1      -9.010  10.032  67.834  1.00  0.00    -0.131 OA 
BRANCH   9  11
HETATM   11  C   UNL     1     -10.993  11.376  67.249  1.00  0.00    -0.336 C  
HETATM   12  C   UNL     1     -11.565  12.158  68.419  1.00  0.00    -0.381 A  
HETATM   13  C   UNL     1     -11.559  11.616  69.719  1.00  0.00    -0.389 A  
HETATM   14  C   UNL     1     -11.912  12.402  70.815  1.00  0.00    -0.087 A  
HETATM   15  C   UNL     1     -12.324  13.718  70.623  1.00  0.00    -0.445 A  
HETATM   16  C   UNL     1     -12.407  14.237  69.330  1.00  0.00    -0.238 A  
HETATM   17  C   UNL     1     -12.031  13.459  68.234  1.00  0.00    -0.317 A  
HETATM   18  O   UNL     1     -12.142  14.059  67.007  1.00  0.00    -0.427 OA 
HETATM   19  C   UNL     1     -11.853  13.324  65.884  1.00  0.00    -0.393 A  
HETATM   20  C   UNL     1     -12.152  13.940  64.665  1.00  0.00    -0.458 A  
HETATM   21  C   UNL     1     -11.872  13.295  63.463  1.00  0.00    -0.477 A  
HETATM   22  C   UNL     1     -11.295  12.029  63.481  1.00  0.00    -0.528 A  
HETATM   23  C   UNL     1     -11.014  11.403  64.699  1.00  0.00    -0.324 A  
HETATM   24  C   UNL     1     -11.285  12.046  65.919  1.00  0.00    -0.385 A  
ENDBRANCH   9  11
ENDBRANCH   8   9
ENDBRANCH   7   8
ENDBRANCH   6   7
ENDBRANCH   4   6
BRANCH   4  25
HETATM   25  C   UNL     1      -6.821  16.283  68.781  1.00  0.00    -0.151 C  
HETATM   26  C   UNL     1      -5.622  15.667  68.061  1.00  0.00    -0.140 C  
HETATM   27  C   UNL     1      -6.750  17.812  68.611  1.00  0.00    -0.230 C  
ENDBRANCH   4  25
ENDBRANCH   2   4
TORSDOF 7
ENDMDL
MODEL       42
REMARK 921   NORMALIZED FREE ENERGY PREDICTED BY IDOCK:   -5.79 KCAL/MOL
REMARK 922        TOTAL FREE ENERGY PREDICTED BY IDOCK:   -9.34 KCAL/MOL
REMARK 923 INTER-LIGAND FREE ENERGY PREDICTED BY IDOCK:   -8.18 KCAL/MOL
REMARK 924 INTRA-LIGAND FREE ENERGY PREDICTED BY IDOCK:   -1.16 KCAL/MOL
REMARK 927      BINDING AFFINITY PREDICTED BY RF-SCORE:    0.00 PKD
ROOT
HETATM    1  C   UNL     1     -12.518  14.227  64.719  1.00  0.00    -0.390 C  
HETATM    2  C   UNL     1     -12.357  12.704  64.795  1.00  0.00    -0.489 C  
HETATM    3  C   UNL     1     -13.017  11.996  63.611  1.00  0.00    -0.344 C  
ENDROOT
BRANCH   2   4
HETATM    4  N   UNL     1     -10.881  12.197  65.059  1.00  0.00    -0.290 N  
HETATM    5  C   UNL     1      -9.924  13.403  65.067  1.00  0.00    -0.155 C  
BRANCH   4   6
HETATM    6  C   UNL     1     -10.820  11.545  66.496  1.00  0.00    -0.288 C  
BRANCH   6   7
HETATM    7  C   UNL     1     -11.874  12.012  67.507  1.00  0.00    -0.205 C  
BRANCH   7   8
HETATM    8  O   UNL     1     -12.054  11.001  68.514  1.00  0.00    -0.573 OA 
BRANCH   8   9
HETATM    9  C   UNL     1     -11.834  11.380  69.816  1.00  0.00    -0.364 C  
HETATM   10  O   UNL     1     -12.137  12.503  70.208  1.00  0.00    -0.349 OA 
BRANCH   9  11
HETATM   11  C   UNL     1     -11.228  10.260  70.682  1.00  0.00    -0.406 C  
HETATM   12  C   UNL     1     -12.275   9.292  71.208  1.00  0.00    -0.410 A  
HETATM   13  C   UNL     1     -13.301   9.736  72.063  1.00  0.00    -0.547 A  
HETATM   14  C   UNL     1     -14.361   8.892  72.395  1.00  0.00    -0.385 A  
HETATM   15  C   UNL     1     -14.382   7.584  71.920  1.00  0.00    -0.520 A  
HETATM   16  C   UNL     1     -13.328   7.114  71.136  1.00  0.00    -0.238 A  
HETATM   17  C   UNL     1     -12.279   7.965  70.783  1.00  0.00    -0.032 A  
HETATM   18  O   UNL     1     -11.295   7.412  70.005  1.00  0.00    -0.227 OA 
HETATM   19  C   UNL     1     -10.202   8.177  69.682  1.00  0.00    -0.205 A  
HETATM   20  C   UNL     1      -9.162   7.501  69.036  1.00  0.00    -0.146 A  
HETATM   21  C   UNL     1      -8.018   8.188  68.637  1.00  0.00    -0.115 A  
HETATM   22  C   UNL     1      -7.913   9.553  68.888  1.00  0.00    -0.091 A  
HETATM   23  C   UNL     1      -8.943  10.225  69.552  1.00  0.00    -0.176 A  
HETATM   24  C   UNL     1     -10.106   9.545  69.954  1.00  0.00    -0.262 A  
ENDBRANCH   9  11
ENDBRANCH   8   9
ENDBRANCH   7   8
ENDBRANCH   6   7
ENDBRANCH   4   6
BRANCH   4  25
HETATM   25  C   UNL     1     -10.368  11.063  64.051  1.00  0.00    -0.371 C  
HETATM   26  C   UNL     1      -9.363  11.555  63.011  1.00  0.00    -0.293 C  
HETATM   27  C   UNL     1      -9.751   9.856  64.781  1.00  0.00    -0.305 C  
ENDBRANCH   4  25
ENDBRANCH   2   4
TORSDOF 7
ENDMDL
MODEL       43
REMARK 921   NORMALIZED FREE ENERGY PREDICTED BY IDOCK:   -5.76 KCAL/MOL
REMARK 922        TOTAL FREE ENERGY PREDICTED BY IDOCK:   -9.30 KCAL/MOL
REMARK 923 INTER-LIGAND FREE ENERGY PREDICTED BY IDOCK:   -8.31 KCAL/MOL
REMARK 924 INTRA-LIGAND FREE ENERGY PREDICTED BY IDOCK:   -0.99 KCAL/MOL
REMARK 927      BINDING AFFINITY PREDICTED BY RF-SCORE:    0.00 PKD
ROOT
HETATM    1  C   UNL     1      -5.451  17.710  69.311  1.00  0.00    -0.194 C  
HETATM    2  C   UNL     1      -6.912  18.120  69.092  1.00  0.00    -0.209 C  
HETATM    3  C   UNL     1      -7.144  19.602  69.385  1.00  0.00    -0.326 C  
ENDROOT
BRANCH   2   4
HETATM    4  N   UNL     1      -7.536  17.670  67.708  1.00  0.00    -0.197 N  
HETATM    5  C   UNL     1      -6.402  17.434  66.694  1.00  0.00    -0.214 C  
BRANCH   4   6
HETATM    6  C   UNL     1      -8.274  16.289  67.911  1.00  0.00    -0.150 C  
BRANCH   6   7
HETATM    7  C   UNL     1      -8.527  15.852  69.358  1.00  0.00    -0.191 C  
BRANCH   7   8
HETATM    8  O   UNL     1      -9.604  14.899  69.391  1.00  0.00    -0.167 OA 
BRANCH   8   9
HETATM    9  C   UNL     1     -10.876  15.407  69.496  1.00  0.00    -0.267 C  
HETATM   10  O   UNL     1     -11.073  16.528  69.959  1.00  0.00    -0.345 OA 
BRANCH   9  11
HETATM   11  C   UNL     1     -11.958  14.458  68.950  1.00  0.00    -0.337 C  
HETATM   12  C   UNL     1     -11.577  13.836  67.617  1.00  0.00    -0.381 A  
HETATM   13  C   UNL     1     -11.362  14.641  66.482  1.00  0.00    -0.353 A  
HETATM   14  C   UNL     1     -10.835  14.091  65.314  1.00  0.00    -0.352 A  
HETATM   15  C   UNL     1     -10.568  12.726  65.248  1.00  0.00    -0.312 A  
HETATM   16  C   UNL     1     -10.852  11.910  66.343  1.00  0.00    -0.318 A  
HETATM   17  C   UNL     1     -11.356  12.463  67.521  1.00  0.00    -0.315 A  
HETATM   18  O   UNL     1     -11.597  11.581  68.542  1.00  0.00    -0.263 OA 
HETATM   19  C   UNL     1     -12.158  12.053  69.703  1.00  0.00    -0.230 A  
HETATM   20  C   UNL     1     -12.535  11.077  70.631  1.00  0.00    -0.465 A  
HETATM   21  C   UNL     1     -13.087  11.447  71.856  1.00  0.00    -0.505 A  
HETATM   22  C   UNL     1     -13.265  12.796  72.150  1.00  0.00    -0.546 A  
HETATM   23  C   UNL     1     -12.908  13.771  71.215  1.00  0.00    -0.434 A  
HETATM   24  C   UNL     1     -12.343  13.411  69.978  1.00  0.00    -0.294 A  
ENDBRANCH   9  11
ENDBRANCH   8   9
ENDBRANCH   7   8
ENDBRANCH   6   7
ENDBRANCH   4   6
BRANCH   4  25
HETATM   25  C   UNL     1      -8.642  18.664  67.113  1.00  0.00    -0.269 C  
HETATM   26  C   UNL     1      -8.080  19.760  66.208  1.00  0.00    -0.356 C  
HETATM   27  C   UNL     1      -9.749  17.925  66.340  1.00  0.00    -0.321 C  
ENDBRANCH   4  25
ENDBRANCH   2   4
TORSDOF 7
ENDMDL
MODEL       44
REMARK 921   NORMALIZED FREE ENERGY PREDICTED BY IDOCK:   -5.75 KCAL/MOL
REMARK 922        TOTAL FREE ENERGY PREDICTED BY IDOCK:   -9.29 KCAL/MOL
REMARK 923 INTER-LIGAND FREE ENERGY PREDICTED BY IDOCK:   -8.16 KCAL/MOL
REMARK 924 INTRA-LIGAND FREE ENERGY PREDICTED BY IDOCK:   -1.13 KCAL/MOL
REMARK 927      BINDING AFFINITY PREDICTED BY RF-SCORE:    0.00 PKD
ROOT
HETATM    1  C   UNL     1     -11.922  14.006  69.061  1.00  0.00    -0.392 C  
HETATM    2  C   UNL     1     -11.644  14.627  67.688  1.00  0.00    -0.361 C  
HETATM    3  C   UNL     1     -10.680  15.810  67.775  1.00  0.00    -0.307 C  
ENDROOT
BRANCH   2   4
HETATM    4  N   UNL     1     -11.239  13.598  66.555  1.00  0.00    -0.305 N  
HETATM    5  C   UNL     1      -9.786  13.867  66.121  1.00  0.00    -0.302 C  
BRANCH   4   6
HETATM    6  C   UNL     1     -11.281  12.139  67.159  1.00  0.00    -0.314 C  
BRANCH   6   7
HETATM    7  C   UNL     1      -9.937  11.417  67.306  1.00  0.00    -0.194 C  
BRANCH   7   8
HETATM    8  O   UNL     1      -9.564  11.375  68.694  1.00  0.00    -0.195 OA 
BRANCH   8   9
HETATM    9  C   UNL     1      -9.466  10.131  69.270  1.00  0.00    -0.218 C  
HETATM   10  O   UNL     1      -8.467   9.806  69.907  1.00  0.00    -0.172 OA 
BRANCH   9  11
HETATM   11  C   UNL     1     -10.718   9.262  69.060  1.00  0.00    -0.189 C  
HETATM   12  C   UNL     1     -10.383   7.823  68.703  1.00  0.00    -0.221 A  
HETATM   13  C   UNL     1      -9.674   7.519  67.526  1.00  0.00    -0.190 A  
HETATM   14  C   UNL     1      -9.208   6.225  67.294  1.00  0.00    -0.119 A  
HETATM   15  C   UNL     1      -9.489   5.212  68.206  1.00  0.00    -0.164 A  
HETATM   16  C   UNL     1     -10.258   5.490  69.336  1.00  0.00    -0.329 A  
HETATM   17  C   UNL     1     -10.704   6.789  69.582  1.00  0.00    -0.251 A  
HETATM   18  O   UNL     1     -11.447   6.963  70.720  1.00  0.00    -0.296 OA 
HETATM   19  C   UNL     1     -11.974   8.203  70.983  1.00  0.00    -0.240 A  
HETATM   20  C   UNL     1     -12.859   8.268  72.063  1.00  0.00    -0.369 A  
HETATM   21  C   UNL     1     -13.428   9.483  72.434  1.00  0.00    -0.475 A  
HETATM   22  C   UNL     1     -13.113  10.636  71.722  1.00  0.00    -0.571 A  
HETATM   23  C   UNL     1     -12.244  10.570  70.629  1.00  0.00    -0.446 A  
HETATM   24  C   UNL     1     -11.657   9.350  70.248  1.00  0.00    -0.181 A  
ENDBRANCH   9  11
ENDBRANCH   8   9
ENDBRANCH   7   8
ENDBRANCH   6   7
ENDBRANCH   4   6
BRANCH   4  25
HETATM   25  C   UNL     1     -12.221  13.567  65.290  1.00  0.00    -0.441 C  
HETATM   26  C   UNL     1     -12.058  14.753  64.340  1.00  0.00    -0.457 C  
HETATM   27  C   UNL     1     -12.088  12.272  64.467  1.00  0.00    -0.462 C  
ENDBRANCH   4  25
ENDBRANCH   2   4
TORSDOF 7
ENDMDL
MODEL       45
REMARK 921   NORMALIZED FREE ENERGY PREDICTED BY IDOCK:   -5.75 KCAL/MOL
REMARK 922        TOTAL FREE ENERGY PREDICTED BY IDOCK:   -9.28 KCAL/MOL
REMARK 923 INTER-LIGAND FREE ENERGY PREDICTED BY IDOCK:   -8.09 KCAL/MOL
REMARK 924 INTRA-LIGAND FREE ENERGY PREDICTED BY IDOCK:   -1.19 KCAL/MOL
REMARK 927      BINDING AFFINITY PREDICTED BY RF-SCORE:    0.00 PKD
ROOT
HETATM    1  C   UNL     1      -6.502   9.521  67.190  1.00  0.00    -0.066 C  
HETATM    2  C   UNL     1      -7.582   9.154  66.166  1.00  0.00    -0.095 C  
HETATM    3  C   UNL     1      -7.875   7.654  66.150  1.00  0.00    -0.096 C  
ENDROOT
BRANCH   2   4
HETATM    4  N   UNL     1      -8.901  10.028  66.238  1.00  0.00    -0.142 N  
HETATM    5  C   UNL     1     -10.047   9.171  66.805  1.00  0.00    -0.271 C  
BRANCH   4   6
HETATM    6  C   UNL     1      -8.664  11.217  67.250  1.00  0.00    -0.145 C  
BRANCH   6   7
HETATM    7  C   UNL     1      -9.484  11.190  68.544  1.00  0.00    -0.193 C  
BRANCH   7   8
HETATM    8  O   UNL     1     -10.163  12.448  68.709  1.00  0.00    -0.186 OA 
BRANCH   8   9
HETATM    9  C   UNL     1     -11.531  12.433  68.580  1.00  0.00    -0.303 C  
HETATM   10  O   UNL     1     -12.146  11.374  68.487  1.00  0.00    -0.550 OA 
BRANCH   9  11
HETATM   11  C   UNL     1     -12.160  13.837  68.610  1.00  0.00    -0.333 C  
HETATM   12  C   UNL     1     -12.289  14.396  70.017  1.00  0.00    -0.391 A  
HETATM   13  C   UNL     1     -13.088  13.749  70.978  1.00  0.00    -0.276 A  
HETATM   14  C   UNL     1     -13.059  14.154  72.312  1.00  0.00    -0.514 A  
HETATM   15  C   UNL     1     -12.274  15.239  72.692  1.00  0.00    -0.502 A  
HETATM   16  C   UNL     1     -11.540  15.934  71.730  1.00  0.00    -0.541 A  
HETATM   17  C   UNL     1     -11.549  15.514  70.399  1.00  0.00    -0.337 A  
HETATM   18  O   UNL     1     -10.791  16.256  69.531  1.00  0.00    -0.297 OA 
HETATM   19  C   UNL     1     -10.813  15.937  68.196  1.00  0.00    -0.317 A  
HETATM   20  C   UNL     1     -10.158  16.836  67.349  1.00  0.00    -0.276 A  
HETATM   21  C   UNL     1     -10.094  16.593  65.979  1.00  0.00    -0.359 A  
HETATM   22  C   UNL     1     -10.689  15.449  65.456  1.00  0.00    -0.397 A  
HETATM   23  C   UNL     1     -11.361  14.560  66.298  1.00  0.00    -0.352 A  
HETATM   24  C   UNL     1     -11.427  14.790  67.684  1.00  0.00    -0.363 A  
ENDBRANCH   9  11
ENDBRANCH   8   9
ENDBRANCH   7   8
ENDBRANCH   6   7
ENDBRANCH   4   6
BRANCH   4  25
HETATM   25  C   UNL     1      -9.328  10.718  64.857  1.00  0.00    -0.222 C  
HETATM   26  C   UNL     1      -9.210   9.806  63.637  1.00  0.00    -0.229 C  
HETATM   27  C   UNL     1     -10.758  11.286  64.896  1.00  0.00    -0.337 C  
ENDBRANCH   4  25
ENDBRANCH   2   4
TORSDOF 7
ENDMDL
MODEL       46
REMARK 921   NORMALIZED FREE ENERGY PREDICTED BY IDOCK:   -5.74 KCAL/MOL
REMARK 922        TOTAL FREE ENERGY PREDICTED BY IDOCK:   -9.27 KCAL/MOL
REMARK 923 INTER-LIGAND FREE ENERGY PREDICTED BY IDOCK:   -8.44 KCAL/MOL
REMARK 924 INTRA-LIGAND FREE ENERGY PREDICTED BY IDOCK:   -0.83 KCAL/MOL
REMARK 927      BINDING AFFINITY PREDICTED BY RF-SCORE:    0.00 PKD
ROOT
HETATM    1  C   UNL     1     -14.401   7.542  71.341  1.00  0.00    -0.540 C  
HETATM    2  C   UNL     1     -13.219   8.500  71.150  1.00  0.00    -0.021 C  
HETATM    3  C   UNL     1     -13.355   9.759  72.007  1.00  0.00    -0.547 C  
ENDROOT
BRANCH   2   4
HETATM    4  N   UNL     1     -11.788   7.834  71.274  1.00  0.00    -0.291 N  
HETATM    5  C   UNL     1     -11.609   6.805  70.143  1.00  0.00    -0.341 C  
BRANCH   4   6
HETATM    6  C   UNL     1     -10.691   8.951  71.064  1.00  0.00    -0.247 C  
BRANCH   6   7
HETATM    7  C   UNL     1     -10.525   9.491  69.639  1.00  0.00    -0.223 C  
BRANCH   7   8
HETATM    8  O   UNL     1      -9.596  10.589  69.648  1.00  0.00    -0.160 OA 
BRANCH   8   9
HETATM    9  C   UNL     1      -9.421  11.259  68.460  1.00  0.00    -0.191 C  
HETATM   10  O   UNL     1      -8.299  11.426  67.989  1.00  0.00    -0.130 OA 
BRANCH   9  11
HETATM   11  C   UNL     1     -10.742  11.711  67.814  1.00  0.00    -0.244 C  
HETATM   12  C   UNL     1     -11.279  13.001  68.412  1.00  0.00    -0.304 A  
HETATM   13  C   UNL     1     -11.634  13.071  69.772  1.00  0.00    -0.286 A  
HETATM   14  C   UNL     1     -11.949  14.296  70.359  1.00  0.00    -0.402 A  
HETATM   15  C   UNL     1     -11.963  15.454  69.586  1.00  0.00    -0.366 A  
HETATM   16  C   UNL     1     -11.687  15.379  68.220  1.00  0.00    -0.313 A  
HETATM   17  C   UNL     1     -11.349  14.157  67.637  1.00  0.00    -0.319 A  
HETATM   18  O   UNL     1     -11.089  14.187  66.291  1.00  0.00    -0.310 OA 
HETATM   19  C   UNL     1     -10.818  13.007  65.644  1.00  0.00    -0.273 A  
HETATM   20  C   UNL     1     -10.735  13.087  64.251  1.00  0.00    -0.430 A  
HETATM   21  C   UNL     1     -10.435  11.954  63.498  1.00  0.00    -0.505 A  
HETATM   22  C   UNL     1     -10.221  10.739  64.141  1.00  0.00    -0.412 A  
HETATM   23  C   UNL     1     -10.324  10.653  65.532  1.00  0.00    -0.297 A  
HETATM   24  C   UNL     1     -10.620  11.790  66.304  1.00  0.00    -0.292 A  
ENDBRANCH   9  11
ENDBRANCH   8   9
ENDBRANCH   7   8
ENDBRANCH   6   7
ENDBRANCH   4   6
BRANCH   4  25
HETATM   25  C   UNL     1     -11.469   7.182  72.701  1.00  0.00    -0.235 C  
HETATM   26  C   UNL     1     -11.406   5.655  72.694  1.00  0.00    -0.356 C  
HETATM   27  C   UNL     1     -10.162   7.713  73.317  1.00  0.00    -0.398 C  
ENDBRANCH   4  25
ENDBRANCH   2   4
TORSDOF 7
ENDMDL
MODEL       47
REMARK 921   NORMALIZED FREE ENERGY PREDICTED BY IDOCK:   -5.73 KCAL/MOL
REMARK 922        TOTAL FREE ENERGY PREDICTED BY IDOCK:   -9.26 KCAL/MOL
REMARK 923 INTER-LIGAND FREE ENERGY PREDICTED BY IDOCK:   -8.10 KCAL/MOL
REMARK 924 INTRA-LIGAND FREE ENERGY PREDICTED BY IDOCK:   -1.16 KCAL/MOL
REMARK 927      BINDING AFFINITY PREDICTED BY RF-SCORE:    0.00 PKD
ROOT
HETATM    1  C   UNL     1     -10.180  11.552  63.592  1.00  0.00    -0.450 C  
HETATM    2  C   UNL     1     -11.309  12.581  63.719  1.00  0.00    -0.466 C  
HETATM    3  C   UNL     1     -12.674  11.984  63.375  1.00  0.00    -0.527 C  
ENDROOT
BRANCH   2   4
HETATM    4  N   UNL     1     -11.328  13.392  65.079  1.00  0.00    -0.305 N  
HETATM    5  C   UNL     1     -12.733  13.984  65.297  1.00  0.00    -0.439 C  
BRANCH   4   6
HETATM    6  C   UNL     1     -11.056  12.390  66.269  1.00  0.00    -0.303 C  
BRANCH   6   7
HETATM    7  C   UNL     1     -12.151  12.276  67.335  1.00  0.00     0.050 C  
BRANCH   7   8
HETATM    8  O   UNL     1     -11.873  11.154  68.191  1.00  0.00    -0.559 OA 
BRANCH   8   9
HETATM    9  C   UNL     1     -11.366  11.437  69.436  1.00  0.00    -0.297 C  
HETATM   10  O   UNL     1     -11.775  12.398  70.082  1.00  0.00    -0.286 OA 
BRANCH   9  11
HETATM   11  C   UNL     1     -10.305  10.426  69.906  1.00  0.00    -0.231 C  
HETATM   12  C   UNL     1     -10.915   9.177  70.520  1.00  0.00    -0.307 A  
HETATM   13  C   UNL     1     -11.707   9.259  71.681  1.00  0.00    -0.462 A  
HETATM   14  C   UNL     1     -12.414   8.146  72.136  1.00  0.00    -0.364 A  
HETATM   15  C   UNL     1     -12.298   6.929  71.470  1.00  0.00    -0.420 A  
HETATM   16  C   UNL     1     -11.453   6.822  70.364  1.00  0.00    -0.419 A  
HETATM   17  C   UNL     1     -10.764   7.941  69.894  1.00  0.00    -0.244 A  
HETATM   18  O   UNL     1      -9.965   7.736  68.799  1.00  0.00    -0.166 OA 
HETATM   19  C   UNL     1      -9.208   8.780  68.330  1.00  0.00    -0.137 A  
HETATM   20  C   UNL     1      -8.291   8.458  67.325  1.00  0.00    -0.123 A  
HETATM   21  C   UNL     1      -7.493   9.448  66.757  1.00  0.00    -0.094 A  
HETATM   22  C   UNL     1      -7.610  10.762  67.198  1.00  0.00    -0.105 A  
HETATM   23  C   UNL     1      -8.511  11.083  68.217  1.00  0.00    -0.138 A  
HETATM   24  C   UNL     1      -9.328  10.094  68.794  1.00  0.00    -0.168 A  
ENDBRANCH   9  11
ENDBRANCH   8   9
ENDBRANCH   7   8
ENDBRANCH   6   7
ENDBRANCH   4   6
BRANCH   4  25
HETATM   25  C   UNL     1     -10.202  14.524  65.204  1.00  0.00    -0.389 C  
HETATM   26  C   UNL     1     -10.735  15.953  65.108  1.00  0.00    -0.449 C  
HETATM   27  C   UNL     1      -9.382  14.403  66.502  1.00  0.00    -0.300 C  
ENDBRANCH   4  25
ENDBRANCH   2   4
TORSDOF 7
ENDMDL
MODEL       48
REMARK 921   NORMALIZED FREE ENERGY PREDICTED BY IDOCK:   -5.72 KCAL/MOL
REMARK 922        TOTAL FREE ENERGY PREDICTED BY IDOCK:   -9.25 KCAL/MOL
REMARK 923 INTER-LIGAND FREE ENERGY PREDICTED BY IDOCK:   -7.74 KCAL/MOL
REMARK 924 INTRA-LIGAND FREE ENERGY PREDICTED BY IDOCK:   -1.51 KCAL/MOL
REMARK 927      BINDING AFFINITY PREDICTED BY RF-SCORE:    0.00 PKD
ROOT
HETATM    1  C   UNL     1      -7.106  17.906  66.086  1.00  0.00    -0.341 C  
HETATM    2  C   UNL     1      -8.023  17.080  66.995  1.00  0.00    -0.203 C  
HETATM    3  C   UNL     1      -7.366  16.762  68.339  1.00  0.00    -0.198 C  
ENDROOT
BRANCH   2   4
HETATM    4  N   UNL     1      -9.493  17.644  67.158  1.00  0.00    -0.261 N  
HETATM    5  C   UNL     1     -10.360  17.148  65.987  1.00  0.00    -0.309 C  
BRANCH   4   6
HETATM    6  C   UNL     1     -10.118  17.052  68.483  1.00  0.00    -0.303 C  
BRANCH   6   7
HETATM    7  C   UNL     1     -11.241  16.023  68.311  1.00  0.00    -0.350 C  
BRANCH   7   8
HETATM    8  O   UNL     1     -10.870  14.796  68.962  1.00  0.00    -0.229 OA 
BRANCH   8   9
HETATM    9  C   UNL     1     -10.944  13.649  68.207  1.00  0.00    -0.254 C  
HETATM   10  O   UNL     1     -11.727  12.750  68.498  1.00  0.00    -0.296 OA 
BRANCH   9  11
HETATM   11  C   UNL     1      -9.998  13.658  66.992  1.00  0.00    -0.248 C  
HETATM   12  C   UNL     1      -8.740  12.837  67.220  1.00  0.00    -0.200 A  
HETATM   13  C   UNL     1      -7.832  13.178  68.240  1.00  0.00    -0.143 A  
HETATM   14  C   UNL     1      -6.780  12.322  68.567  1.00  0.00    -0.076 A  
HETATM   15  C   UNL     1      -6.593  11.146  67.847  1.00  0.00    -0.062 A  
HETATM   16  C   UNL     1      -7.443  10.840  66.784  1.00  0.00    -0.129 A  
HETATM   17  C   UNL     1      -8.511  11.683  66.472  1.00  0.00    -0.141 A  
HETATM   18  O   UNL     1      -9.292  11.294  65.416  1.00  0.00    -0.216 OA 
HETATM   19  C   UNL     1     -10.316  12.115  65.014  1.00  0.00    -0.287 A  
HETATM   20  C   UNL     1     -10.960  11.744  63.830  1.00  0.00    -0.500 A  
HETATM   21  C   UNL     1     -12.033  12.491  63.348  1.00  0.00    -0.602 A  
HETATM   22  C   UNL     1     -12.459  13.613  64.051  1.00  0.00    -0.285 A  
HETATM   23  C   UNL     1     -11.803  13.998  65.224  1.00  0.00    -0.363 A  
HETATM   24  C   UNL     1     -10.724  13.249  65.725  1.00  0.00    -0.286 A  
ENDBRANCH   9  11
ENDBRANCH   8   9
ENDBRANCH   7   8
ENDBRANCH   6   7
ENDBRANCH   4   6
BRANCH   4  25
HETATM   25  C   UNL     1      -9.590  19.236  67.312  1.00  0.00    -0.320 C  
HETATM   26  C   UNL     1     -10.453  19.917  66.250  1.00  0.00    -0.590 C  
HETATM   27  C   UNL     1     -10.104  19.667  68.697  1.00  0.00    -0.547 C  
ENDBRANCH   4  25
ENDBRANCH   2   4
TORSDOF 7
ENDMDL
MODEL       49
REMARK 921   NORMALIZED FREE ENERGY PREDICTED BY IDOCK:   -5.66 KCAL/MOL
REMARK 922        TOTAL FREE ENERGY PREDICTED BY IDOCK:   -9.17 KCAL/MOL
REMARK 923 INTER-LIGAND FREE ENERGY PREDICTED BY IDOCK:   -7.88 KCAL/MOL
REMARK 924 INTRA-LIGAND FREE ENERGY PREDICTED BY IDOCK:   -1.28 KCAL/MOL
REMARK 927      BINDING AFFINITY PREDICTED BY RF-SCORE:    0.00 PKD
ROOT
HETATM    1  C   UNL     1      -9.594   9.623  65.299  1.00  0.00    -0.347 C  
HETATM    2  C   UNL     1      -8.595   8.669  65.964  1.00  0.00    -0.155 C  
HETATM    3  C   UNL     1      -7.239   9.333  66.205  1.00  0.00    -0.088 C  
ENDROOT
BRANCH   2   4
HETATM    4  N   UNL     1      -9.137   7.914  67.245  1.00  0.00    -0.133 N  
HETATM    5  C   UNL     1      -8.167   8.146  68.418  1.00  0.00    -0.129 C  
BRANCH   4   6
HETATM    6  C   UNL     1     -10.524   8.549  67.657  1.00  0.00    -0.241 C  
BRANCH   6   7
HETATM    7  C   UNL     1     -10.588   9.228  69.030  1.00  0.00    -0.205 C  
BRANCH   7   8
HETATM    8  O   UNL     1     -11.482  10.352  68.968  1.00  0.00    -0.244 OA 
BRANCH   8   9
HETATM    9  C   UNL     1     -10.943  11.550  68.566  1.00  0.00    -0.223 C  
HETATM   10  O   UNL     1      -9.728  11.688  68.445  1.00  0.00    -0.191 OA 
BRANCH   9  11
HETATM   11  C   UNL     1     -12.003  12.624  68.262  1.00  0.00    -0.271 C  
HETATM   12  C   UNL     1     -12.015  13.745  69.288  1.00  0.00    -0.399 A  
HETATM   13  C   UNL     1     -12.312  13.482  70.639  1.00  0.00    -0.432 A  
HETATM   14  C   UNL     1     -12.143  14.472  71.607  1.00  0.00    -0.379 A  
HETATM   15  C   UNL     1     -11.727  15.746  71.232  1.00  0.00    -0.496 A  
HETATM   16  C   UNL     1     -11.505  16.035  69.885  1.00  0.00    -0.327 A  
HETATM   17  C   UNL     1     -11.651  15.039  68.918  1.00  0.00    -0.326 A  
HETATM   18  O   UNL     1     -11.405  15.419  67.625  1.00  0.00    -0.331 OA 
HETATM   19  C   UNL     1     -11.598  14.504  66.620  1.00  0.00    -0.375 A  
HETATM   20  C   UNL     1     -11.497  15.005  65.318  1.00  0.00    -0.308 A  
HETATM   21  C   UNL     1     -11.645  14.157  64.224  1.00  0.00    -0.327 A  
HETATM   22  C   UNL     1     -11.899  12.805  64.432  1.00  0.00    -0.446 A  
HETATM   23  C   UNL     1     -12.020  12.306  65.732  1.00  0.00    -0.362 A  
HETATM   24  C   UNL     1     -11.866  13.150  66.846  1.00  0.00    -0.444 A  
ENDBRANCH   9  11
ENDBRANCH   8   9
ENDBRANCH   7   8
ENDBRANCH   6   7
ENDBRANCH   4   6
BRANCH   4  25
HETATM   25  C   UNL     1      -9.425   6.353  67.036  1.00  0.00    -0.139 C  
HETATM   26  C   UNL     1     -10.903   5.971  67.115  1.00  0.00    -0.414 C  
HETATM   27  C   UNL     1      -8.862   5.818  65.707  1.00  0.00    -0.151 C  
ENDBRANCH   4  25
ENDBRANCH   2   4
TORSDOF 7
ENDMDL
MODEL       50
REMARK 921   NORMALIZED FREE ENERGY PREDICTED BY IDOCK:   -5.59 KCAL/MOL
REMARK 922        TOTAL FREE ENERGY PREDICTED BY IDOCK:   -9.06 KCAL/MOL
REMARK 923 INTER-LIGAND FREE ENERGY PREDICTED BY IDOCK:   -8.21 KCAL/MOL
REMARK 924 INTRA-LIGAND FREE ENERGY PREDICTED BY IDOCK:   -0.85 KCAL/MOL
REMARK 927      BINDING AFFINITY PREDICTED BY RF-SCORE:    0.00 PKD
ROOT
HETATM    1  C   UNL     1     -11.115  16.331  68.752  1.00  0.00    -0.355 C  
HETATM    2  C   UNL     1     -10.770  16.325  67.258  1.00  0.00    -0.265 C  
HETATM    3  C   UNL     1      -9.797  17.444  66.887  1.00  0.00    -0.289 C  
ENDROOT
BRANCH   2   4
HETATM    4  N   UNL     1     -10.328  14.920  66.677  1.00  0.00    -0.278 N  
HETATM    5  C   UNL     1      -8.796  14.895  66.522  1.00  0.00    -0.221 C  
BRANCH   4   6
HETATM    6  C   UNL     1     -10.708  13.798  67.723  1.00  0.00    -0.246 C  
BRANCH   6   7
HETATM    7  C   UNL     1      -9.618  12.773  68.056  1.00  0.00    -0.217 C  
BRANCH   7   8
HETATM    8  O   UNL     1     -10.200  11.460  68.123  1.00  0.00    -0.176 OA 
BRANCH   8   9
HETATM    9  C   UNL     1     -11.412  11.352  68.761  1.00  0.00    -0.290 C  
HETATM   10  O   UNL     1     -12.459  11.287  68.123  1.00  0.00    -0.236 OA 
BRANCH   9  11
HETATM   11  C   UNL     1     -11.290  11.285  70.294  1.00  0.00    -0.179 C  
HETATM   12  C   UNL     1     -12.228  12.250  71.002  1.00  0.00    -0.210 A  
HETATM   13  C   UNL     1     -12.112  13.639  70.807  1.00  0.00    -0.374 A  
HETATM   14  C   UNL     1     -13.082  14.507  71.307  1.00  0.00    -0.417 A  
HETATM   15  C   UNL     1     -14.148  14.005  72.049  1.00  0.00    -0.600 A  
HETATM   16  C   UNL     1     -14.226  12.637  72.311  1.00  0.00     0.171 A  
HETATM   17  C   UNL     1     -13.269  11.765  71.791  1.00  0.00    -0.329 A  
HETATM   18  O   UNL     1     -13.436  10.440  72.099  1.00  0.00    -0.396 OA 
HETATM   19  C   UNL     1     -12.490   9.539  71.676  1.00  0.00    -0.391 A  
HETATM   20  C   UNL     1     -12.630   8.238  72.169  1.00  0.00    -0.379 A  
HETATM   21  C   UNL     1     -11.742   7.239  71.779  1.00  0.00    -0.321 A  
HETATM   22  C   UNL     1     -10.710   7.542  70.897  1.00  0.00    -0.244 A  
HETATM   23  C   UNL     1     -10.556   8.847  70.419  1.00  0.00    -0.252 A  
HETATM   24  C   UNL     1     -11.449   9.863  70.799  1.00  0.00    -0.433 A  
ENDBRANCH   9  11
ENDBRANCH   8   9
ENDBRANCH   7   8
ENDBRANCH   6   7
ENDBRANCH   4   6
BRANCH   4  25
HETATM   25  C   UNL     1     -11.051  14.497  65.312  1.00  0.00    -0.353 C  
HETATM   26  C   UNL     1     -10.289  13.455  64.495  1.00  0.00    -0.394 C  
HETATM   27  C   UNL     1     -12.483  13.977  65.536  1.00  0.00    -0.533 C  
ENDBRANCH   4  25
ENDBRANCH   2   4
TORSDOF 7
ENDMDL
MODEL       51
REMARK 921   NORMALIZED FREE ENERGY PREDICTED BY IDOCK:   -5.58 KCAL/MOL
REMARK 922        TOTAL FREE ENERGY PREDICTED BY IDOCK:   -9.04 KCAL/MOL
REMARK 923 INTER-LIGAND FREE ENERGY PREDICTED BY IDOCK:   -7.99 KCAL/MOL
REMARK 924 INTRA-LIGAND FREE ENERGY PREDICTED BY IDOCK:   -1.06 KCAL/MOL
REMARK 927      BINDING AFFINITY PREDICTED BY RF-SCORE:    0.00 PKD
ROOT
HETATM    1  C   UNL     1     -12.607  13.468  65.441  1.00  0.00    -0.531 C  
HETATM    2  C   UNL     1     -12.153  12.166  64.770  1.00  0.00    -0.294 C  
HETATM    3  C   UNL     1     -12.776  11.985  63.386  1.00  0.00    -0.527 C  
ENDROOT
BRANCH   2   4
HETATM    4  N   UNL     1     -10.589  11.922  64.767  1.00  0.00    -0.285 N  
HETATM    5  C   UNL     1      -9.867  13.257  64.511  1.00  0.00     0.080 C  
BRANCH   4   6
HETATM    6  C   UNL     1     -10.153  11.425  66.202  1.00  0.00    -0.231 C  
BRANCH   6   7
HETATM    7  C   UNL     1      -8.917  12.095  66.814  1.00  0.00    -0.203 C  
BRANCH   7   8
HETATM    8  O   UNL     1      -9.198  12.469  68.174  1.00  0.00    -0.200 OA 
BRANCH   8   9
HETATM    9  C   UNL     1      -9.052  13.798  68.492  1.00  0.00    -0.133 C  
HETATM   10  O   UNL     1      -7.977  14.238  68.893  1.00  0.00    -0.136 OA 
BRANCH   9  11
HETATM   11  C   UNL     1     -10.328  14.625  68.256  1.00  0.00    -0.230 C  
HETATM   12  C   UNL     1     -11.296  14.561  69.426  1.00  0.00    -0.314 A  
HETATM   13  C   UNL     1     -11.868  13.337  69.821  1.00  0.00    -0.394 A  
HETATM   14  C   UNL     1     -12.606  13.248  71.001  1.00  0.00    -0.408 A  
HETATM   15  C   UNL     1     -12.825  14.388  71.770  1.00  0.00    -0.423 A  
HETATM   16  C   UNL     1     -12.328  15.619  71.344  1.00  0.00    -0.485 A  
HETATM   17  C   UNL     1     -11.568  15.704  70.176  1.00  0.00    -0.354 A  
HETATM   18  O   UNL     1     -11.118  16.956  69.843  1.00  0.00    -0.146 OA 
HETATM   19  C   UNL     1     -10.425  17.118  68.670  1.00  0.00    -0.366 A  
HETATM   20  C   UNL     1     -10.148  18.441  68.310  1.00  0.00    -0.410 A  
HETATM   21  C   UNL     1      -9.423  18.718  67.153  1.00  0.00    -0.328 A  
HETATM   22  C   UNL     1      -8.978  17.670  66.354  1.00  0.00    -0.255 A  
HETATM   23  C   UNL     1      -9.271  16.348  66.701  1.00  0.00    -0.279 A  
HETATM   24  C   UNL     1      -9.996  16.054  67.870  1.00  0.00    -0.233 A  
ENDBRANCH   9  11
ENDBRANCH   8   9
ENDBRANCH   7   8
ENDBRANCH   6   7
ENDBRANCH   4   6
BRANCH   4  25
HETATM   25  C   UNL     1     -10.085  10.791  63.751  1.00  0.00    -0.327 C  
HETATM   26  C   UNL     1      -9.182  11.310  62.633  1.00  0.00    -0.330 C  
HETATM   27  C   UNL     1      -9.355   9.637  64.461  1.00  0.00    -0.247 C  
ENDBRANCH   4  25
ENDBRANCH   2   4
TORSDOF 7
ENDMDL
MODEL       52
REMARK 921   NORMALIZED FREE ENERGY PREDICTED BY IDOCK:   -5.57 KCAL/MOL
REMARK 922        TOTAL FREE ENERGY PREDICTED BY IDOCK:   -9.04 KCAL/MOL
REMARK 923 INTER-LIGAND FREE ENERGY PREDICTED BY IDOCK:   -7.58 KCAL/MOL
REMARK 924 INTRA-LIGAND FREE ENERGY PREDICTED BY IDOCK:   -1.46 KCAL/MOL
REMARK 927      BINDING AFFINITY PREDICTED BY RF-SCORE:    0.00 PKD
ROOT
HETATM    1  C   UNL     1     -10.102   8.138  69.490  1.00  0.00    -0.193 C  
HETATM    2  C   UNL     1      -8.947   8.429  68.525  1.00  0.00    -0.136 C  
HETATM    3  C   UNL     1      -8.282   7.148  68.020  1.00  0.00    -0.120 C  
ENDROOT
BRANCH   2   4
HETATM    4  N   UNL     1      -9.289   9.437  67.353  1.00  0.00    -0.126 N  
HETATM    5  C   UNL     1      -9.170   8.705  66.004  1.00  0.00    -0.216 C  
BRANCH   4   6
HETATM    6  C   UNL     1     -10.793   9.894  67.503  1.00  0.00    -0.243 C  
BRANCH   6   7
HETATM    7  C   UNL     1     -11.175  11.225  66.845  1.00  0.00    -0.230 C  
BRANCH   7   8
HETATM    8  O   UNL     1     -12.087  11.938  67.698  1.00  0.00    -0.568 OA 
BRANCH   8   9
HETATM    9  C   UNL     1     -11.918  13.299  67.782  1.00  0.00    -0.314 C  
HETATM   10  O   UNL     1     -12.528  14.060  67.036  1.00  0.00    -0.326 OA 
BRANCH   9  11
HETATM   11  C   UNL     1     -10.949  13.724  68.900  1.00  0.00    -0.281 C  
HETATM   12  C   UNL     1      -9.951  14.776  68.446  1.00  0.00    -0.223 A  
HETATM   13  C   UNL     1      -9.031  14.499  67.417  1.00  0.00    -0.207 A  
HETATM   14  C   UNL     1      -8.245  15.517  66.877  1.00  0.00    -0.287 A  
HETATM   15  C   UNL     1      -8.330  16.808  67.391  1.00  0.00    -0.197 A  
HETATM   16  C   UNL     1      -9.183  17.072  68.463  1.00  0.00    -0.266 A  
HETATM   17  C   UNL     1      -9.988  16.060  68.988  1.00  0.00    -0.242 A  
HETATM   18  O   UNL     1     -10.797  16.420  70.035  1.00  0.00    -0.345 OA 
HETATM   19  C   UNL     1     -11.561  15.454  70.641  1.00  0.00    -0.332 A  
HETATM   20  C   UNL     1     -12.226  15.852  71.805  1.00  0.00    -0.551 A  
HETATM   21  C   UNL     1     -13.053  14.959  72.483  1.00  0.00    -0.480 A  
HETATM   22  C   UNL     1     -13.212  13.665  71.997  1.00  0.00    -0.522 A  
HETATM   23  C   UNL     1     -12.532  13.259  70.845  1.00  0.00    -0.424 A  
HETATM   24  C   UNL     1     -11.700  14.153  70.147  1.00  0.00    -0.350 A  
ENDBRANCH   9  11
ENDBRANCH   8   9
ENDBRANCH   7   8
ENDBRANCH   6   7
ENDBRANCH   4   6
BRANCH   4  25
HETATM   25  C   UNL     1      -8.428  10.788  67.353  1.00  0.00    -0.119 C  
HETATM   26  C   UNL     1      -7.827  11.149  68.711  1.00  0.00    -0.142 C  
HETATM   27  C   UNL     1      -7.291  10.766  66.316  1.00  0.00    -0.138 C  
ENDBRANCH   4  25
ENDBRANCH   2   4
TORSDOF 7
ENDMDL
MODEL       53
REMARK 921   NORMALIZED FREE ENERGY PREDICTED BY IDOCK:   -5.57 KCAL/MOL
REMARK 922        TOTAL FREE ENERGY PREDICTED BY IDOCK:   -9.04 KCAL/MOL
REMARK 923 INTER-LIGAND FREE ENERGY PREDICTED BY IDOCK:   -8.10 KCAL/MOL
REMARK 924 INTRA-LIGAND FREE ENERGY PREDICTED BY IDOCK:   -0.93 KCAL/MOL
REMARK 927      BINDING AFFINITY PREDICTED BY RF-SCORE:    0.00 PKD
ROOT
HETATM    1  C   UNL     1      -8.677   6.561  69.853  1.00  0.00    -0.140 C  
HETATM    2  C   UNL     1     -10.044   7.241  69.709  1.00  0.00    -0.194 C  
HETATM    3  C   UNL     1     -11.179   6.227  69.566  1.00  0.00    -0.500 C  
ENDROOT
BRANCH   2   4
HETATM    4  N   UNL     1     -10.357   8.354  70.790  1.00  0.00    -0.192 N  
HETATM    5  C   UNL     1      -9.033   8.934  71.320  1.00  0.00    -0.243 C  
BRANCH   4   6
HETATM    6  C   UNL     1     -11.135   9.536  70.088  1.00  0.00    -0.255 C  
BRANCH   6   7
HETATM    7  C   UNL     1     -10.686   9.906  68.669  1.00  0.00    -0.226 C  
BRANCH   7   8
HETATM    8  O   UNL     1     -10.081  11.210  68.682  1.00  0.00    -0.187 OA 
BRANCH   8   9
HETATM    9  C   UNL     1     -10.852  12.254  68.228  1.00  0.00    -0.225 C  
HETATM   10  O   UNL     1     -11.980  12.448  68.674  1.00  0.00    -0.310 OA 
BRANCH   9  11
HETATM   11  C   UNL     1     -10.141  13.123  67.176  1.00  0.00    -0.242 C  
HETATM   12  C   UNL     1     -10.738  12.972  65.787  1.00  0.00    -0.291 A  
HETATM   13  C   UNL     1     -10.722  11.728  65.127  1.00  0.00    -0.343 A  
HETATM   14  C   UNL     1     -11.430  11.548  63.939  1.00  0.00    -0.358 A  
HETATM   15  C   UNL     1     -12.116  12.616  63.370  1.00  0.00    -0.614 A  
HETATM   16  C   UNL     1     -12.072  13.872  63.977  1.00  0.00    -0.437 A  
HETATM   17  C   UNL     1     -11.384  14.048  65.179  1.00  0.00    -0.328 A  
HETATM   18  O   UNL     1     -11.404  15.315  65.700  1.00  0.00    -0.301 OA 
HETATM   19  C   UNL     1     -10.689  15.570  66.844  1.00  0.00    -0.317 A  
HETATM   20  C   UNL     1     -10.612  16.914  67.222  1.00  0.00    -0.270 A  
HETATM   21  C   UNL     1      -9.935  17.281  68.383  1.00  0.00    -0.322 A  
HETATM   22  C   UNL     1      -9.332  16.301  69.166  1.00  0.00    -0.236 A  
HETATM   23  C   UNL     1      -9.391  14.959  68.778  1.00  0.00    -0.203 A  
HETATM   24  C   UNL     1     -10.076  14.575  67.612  1.00  0.00    -0.228 A  
ENDBRANCH   9  11
ENDBRANCH   8   9
ENDBRANCH   7   8
ENDBRANCH   6   7
ENDBRANCH   4   6
BRANCH   4  25
HETATM   25  C   UNL     1     -11.299   7.877  71.995  1.00  0.00    -0.292 C  
HETATM   26  C   UNL     1     -10.563   7.648  73.314  1.00  0.00    -0.411 C  
HETATM   27  C   UNL     1     -12.464   8.849  72.257  1.00  0.00    -0.440 C  
ENDBRANCH   4  25
ENDBRANCH   2   4
TORSDOF 7
ENDMDL
MODEL       54
REMARK 921   NORMALIZED FREE ENERGY PREDICTED BY IDOCK:   -5.57 KCAL/MOL
REMARK 922        TOTAL FREE ENERGY PREDICTED BY IDOCK:   -9.03 KCAL/MOL
REMARK 923 INTER-LIGAND FREE ENERGY PREDICTED BY IDOCK:   -7.85 KCAL/MOL
REMARK 924 INTRA-LIGAND FREE ENERGY PREDICTED BY IDOCK:   -1.18 KCAL/MOL
REMARK 927      BINDING AFFINITY PREDICTED BY RF-SCORE:    0.00 PKD
ROOT
HETATM    1  C   UNL     1     -10.058   7.699  73.387  1.00  0.00    -0.379 C  
HETATM    2  C   UNL     1     -10.271   8.759  72.299  1.00  0.00    -0.240 C  
HETATM    3  C   UNL     1      -9.088   8.839  71.334  1.00  0.00    -0.313 C  
ENDROOT
BRANCH   2   4
HETATM    4  N   UNL     1     -11.662   8.679  71.548  1.00  0.00    -0.287 N  
HETATM    5  C   UNL     1     -12.706   9.503  72.324  1.00  0.00    -0.311 C  
BRANCH   4   6
HETATM    6  C   UNL     1     -11.507   9.347  70.125  1.00  0.00    -0.138 C  
BRANCH   6   7
HETATM    7  C   UNL     1     -12.188  10.706  69.926  1.00  0.00    -0.275 C  
BRANCH   7   8
HETATM    8  O   UNL     1     -11.927  11.183  68.595  1.00  0.00    -0.487 OA 
BRANCH   8   9
HETATM    9  C   UNL     1     -11.405  12.450  68.485  1.00  0.00    -0.293 C  
HETATM   10  O   UNL     1     -11.762  13.350  69.240  1.00  0.00    -0.289 OA 
BRANCH   9  11
HETATM   11  C   UNL     1     -10.342  12.576  67.378  1.00  0.00    -0.222 C  
HETATM   12  C   UNL     1      -9.303  11.468  67.430  1.00  0.00    -0.168 A  
HETATM   13  C   UNL     1      -8.470  11.315  68.554  1.00  0.00    -0.156 A  
HETATM   14  C   UNL     1      -7.650  10.194  68.680  1.00  0.00    -0.086 A  
HETATM   15  C   UNL     1      -7.614   9.242  67.665  1.00  0.00    -0.088 A  
HETATM   16  C   UNL     1      -8.379   9.427  66.514  1.00  0.00    -0.119 A  
HETATM   17  C   UNL     1      -9.219  10.536  66.397  1.00  0.00    -0.166 A  
HETATM   18  O   UNL     1      -9.935  10.626  65.232  1.00  0.00    -0.255 OA 
HETATM   19  C   UNL     1     -10.725  11.729  65.026  1.00  0.00    -0.292 A  
HETATM   20  C   UNL     1     -11.289  11.840  63.751  1.00  0.00    -0.524 A  
HETATM   21  C   UNL     1     -12.132  12.905  63.445  1.00  0.00    -0.610 A  
HETATM   22  C   UNL     1     -12.409  13.863  64.415  1.00  0.00    -0.400 A  
HETATM   23  C   UNL     1     -11.831  13.765  65.683  1.00  0.00    -0.383 A  
HETATM   24  C   UNL     1     -10.983  12.691  66.008  1.00  0.00    -0.313 A  
ENDBRANCH   9  11
ENDBRANCH   8   9
ENDBRANCH   7   8
ENDBRANCH   6   7
ENDBRANCH   4   6
BRANCH   4  25
HETATM   25  C   UNL     1     -12.193   7.194  71.269  1.00  0.00    -0.365 C  
HETATM   26  C   UNL     1     -13.716   7.073  71.211  1.00  0.00    -0.233 C  
HETATM   27  C   UNL     1     -11.614   6.589  69.977  1.00  0.00    -0.455 C  
ENDBRANCH   4  25
ENDBRANCH   2   4
TORSDOF 7
ENDMDL
MODEL       55
REMARK 921   NORMALIZED FREE ENERGY PREDICTED BY IDOCK:   -5.53 KCAL/MOL
REMARK 922        TOTAL FREE ENERGY PREDICTED BY IDOCK:   -8.98 KCAL/MOL
REMARK 923 INTER-LIGAND FREE ENERGY PREDICTED BY IDOCK:   -7.30 KCAL/MOL
REMARK 924 INTRA-LIGAND FREE ENERGY PREDICTED BY IDOCK:   -1.68 KCAL/MOL
REMARK 927      BINDING AFFINITY PREDICTED BY RF-SCORE:    0.00 PKD
ROOT
HETATM    1  C   UNL     1     -10.490  10.899  66.922  1.00  0.00    -0.299 C  
HETATM    2  C   UNL     1     -10.062   9.816  65.924  1.00  0.00    -0.243 C  
HETATM    3  C   UNL     1      -9.890  10.372  64.511  1.00  0.00    -0.405 C  
ENDROOT
BRANCH   2   4
HETATM    4  N   UNL     1      -8.832   8.930  66.381  1.00  0.00    -0.144 N  
HETATM    5  C   UNL     1      -7.811   8.850  65.233  1.00  0.00    -0.104 C  
BRANCH   4   6
HETATM    6  C   UNL     1      -8.115   9.647  67.592  1.00  0.00    -0.113 C  
BRANCH   6   7
HETATM    7  C   UNL     1      -7.817   8.783  68.823  1.00  0.00    -0.101 C  
BRANCH   7   8
HETATM    8  O   UNL     1      -8.048   9.552  70.016  1.00  0.00    -0.128 OA 
BRANCH   8   9
HETATM    9  C   UNL     1      -8.692   8.913  71.048  1.00  0.00    -0.224 C  
HETATM   10  O   UNL     1      -8.217   8.903  72.181  1.00  0.00    -0.373 OA 
BRANCH   9  11
HETATM   11  C   UNL     1     -10.033   8.282  70.632  1.00  0.00    -0.204 C  
HETATM   12  C   UNL     1     -10.210   6.870  71.164  1.00  0.00    -0.211 A  
HETATM   13  C   UNL     1      -9.327   5.842  70.784  1.00  0.00    -0.189 A  
HETATM   14  C   UNL     1      -9.378   4.597  71.412  1.00  0.00    -0.206 A  
HETATM   15  C   UNL     1     -10.340   4.350  72.387  1.00  0.00    -0.241 A  
HETATM   16  C   UNL     1     -11.268   5.339  72.712  1.00  0.00    -0.347 A  
HETATM   17  C   UNL     1     -11.203   6.593  72.102  1.00  0.00    -0.264 A  
HETATM   18  O   UNL     1     -12.154   7.499  72.493  1.00  0.00    -0.228 OA 
HETATM   19  C   UNL     1     -12.187   8.727  71.880  1.00  0.00    -0.361 A  
HETATM   20  C   UNL     1     -13.283   9.534  72.202  1.00  0.00    -0.539 A  
HETATM   21  C   UNL     1     -13.400  10.811  71.659  1.00  0.00    -0.390 A  
HETATM   22  C   UNL     1     -12.420  11.280  70.789  1.00  0.00    -0.471 A  
HETATM   23  C   UNL     1     -11.335  10.467  70.450  1.00  0.00    -0.411 A  
HETATM   24  C   UNL     1     -11.202   9.179  70.997  1.00  0.00    -0.380 A  
ENDBRANCH   9  11
ENDBRANCH   8   9
ENDBRANCH   7   8
ENDBRANCH   6   7
ENDBRANCH   4   6
BRANCH   4  25
HETATM   25  C   UNL     1      -9.215   7.469  66.914  1.00  0.00    -0.149 C  
HETATM   26  C   UNL     1     -10.718   7.211  67.011  1.00  0.00    -0.420 C  
HETATM   27  C   UNL     1      -8.589   6.346  66.068  1.00  0.00    -0.149 C  
ENDBRANCH   4  25
ENDBRANCH   2   4
TORSDOF 7
ENDMDL
MODEL       56
REMARK 921   NORMALIZED FREE ENERGY PREDICTED BY IDOCK:   -5.53 KCAL/MOL
REMARK 922        TOTAL FREE ENERGY PREDICTED BY IDOCK:   -8.98 KCAL/MOL
REMARK 923 INTER-LIGAND FREE ENERGY PREDICTED BY IDOCK:   -7.86 KCAL/MOL
REMARK 924 INTRA-LIGAND FREE ENERGY PREDICTED BY IDOCK:   -1.11 KCAL/MOL
REMARK 927      BINDING AFFINITY PREDICTED BY RF-SCORE:    0.00 PKD
ROOT
HETATM    1  C   UNL     1     -10.132  20.062  66.173  1.00  0.00    -0.588 C  
HETATM    2  C   UNL     1      -8.897  19.199  66.456  1.00  0.00    -0.334 C  
HETATM    3  C   UNL     1      -7.632  19.777  65.821  1.00  0.00    -0.301 C  
ENDROOT
BRANCH   2   4
HETATM    4  N   UNL     1      -8.686  18.805  67.975  1.00  0.00    -0.289 N  
HETATM    5  C   UNL     1      -9.643  19.634  68.851  1.00  0.00    -0.350 C  
BRANCH   4   6
HETATM    6  C   UNL     1      -9.080  17.287  68.163  1.00  0.00    -0.257 C  
BRANCH   6   7
HETATM    7  C   UNL     1     -10.038  16.693  67.124  1.00  0.00    -0.276 C  
BRANCH   7   8
HETATM    8  O   UNL     1     -11.058  15.931  67.793  1.00  0.00    -0.325 OA 
BRANCH   8   9
HETATM    9  C   UNL     1     -11.000  14.565  67.656  1.00  0.00    -0.288 C  
HETATM   10  O   UNL     1     -11.721  13.831  68.326  1.00  0.00    -0.318 OA 
BRANCH   9  11
HETATM   11  C   UNL     1      -9.998  14.103  66.583  1.00  0.00    -0.280 C  
HETATM   12  C   UNL     1      -8.846  13.297  67.161  1.00  0.00    -0.223 A  
HETATM   13  C   UNL     1      -7.961  13.872  68.092  1.00  0.00    -0.148 A  
HETATM   14  C   UNL     1      -7.023  13.083  68.758  1.00  0.00    -0.103 A  
HETATM   15  C   UNL     1      -6.924  11.726  68.465  1.00  0.00    -0.083 A  
HETATM   16  C   UNL     1      -7.746  11.165  67.488  1.00  0.00    -0.116 A  
HETATM   17  C   UNL     1      -8.701  11.949  66.838  1.00  0.00    -0.191 A  
HETATM   18  O   UNL     1      -9.465  11.306  65.898  1.00  0.00    -0.208 OA 
HETATM   19  C   UNL     1     -10.375  12.037  65.175  1.00  0.00    -0.276 A  
HETATM   20  C   UNL     1     -10.993  11.358  64.120  1.00  0.00    -0.411 A  
HETATM   21  C   UNL     1     -11.954  11.996  63.340  1.00  0.00    -0.571 A  
HETATM   22  C   UNL     1     -12.296  13.317  63.615  1.00  0.00    -0.456 A  
HETATM   23  C   UNL     1     -11.664  14.003  64.656  1.00  0.00    -0.417 A  
HETATM   24  C   UNL     1     -10.697  13.368  65.455  1.00  0.00    -0.307 A  
ENDBRANCH   9  11
ENDBRANCH   8   9
ENDBRANCH   7   8
ENDBRANCH   6   7
ENDBRANCH   4   6
BRANCH   4  25
HETATM   25  C   UNL     1      -7.177  18.925  68.500  1.00  0.00    -0.290 C  
HETATM   26  C   UNL     1      -6.965  20.006  69.559  1.00  0.00    -0.211 C  
HETATM   27  C   UNL     1      -6.635  17.596  69.055  1.00  0.00    -0.244 C  
ENDBRANCH   4  25
ENDBRANCH   2   4
TORSDOF 7
ENDMDL
MODEL       57
REMARK 921   NORMALIZED FREE ENERGY PREDICTED BY IDOCK:   -5.51 KCAL/MOL
REMARK 922        TOTAL FREE ENERGY PREDICTED BY IDOCK:   -8.95 KCAL/MOL
REMARK 923 INTER-LIGAND FREE ENERGY PREDICTED BY IDOCK:   -7.81 KCAL/MOL
REMARK 924 INTRA-LIGAND FREE ENERGY PREDICTED BY IDOCK:   -1.14 KCAL/MOL
REMARK 927      BINDING AFFINITY PREDICTED BY RF-SCORE:    0.00 PKD
ROOT
HETATM    1  C   UNL     1      -9.197  15.263  66.243  1.00  0.00    -0.350 C  
HETATM    2  C   UNL     1     -10.684  15.006  66.516  1.00  0.00    -0.312 C  
HETATM    3  C   UNL     1     -11.459  14.695  65.236  1.00  0.00    -0.361 C  
ENDROOT
BRANCH   2   4
HETATM    4  N   UNL     1     -10.984  13.968  67.673  1.00  0.00    -0.265 N  
HETATM    5  C   UNL     1     -11.909  12.861  67.135  1.00  0.00    -0.362 C  
BRANCH   4   6
HETATM    6  C   UNL     1      -9.628  13.276  68.096  1.00  0.00    -0.227 C  
BRANCH   6   7
HETATM    7  C   UNL     1      -9.491  11.783  67.778  1.00  0.00    -0.181 C  
BRANCH   7   8
HETATM    8  O   UNL     1      -9.706  11.016  68.976  1.00  0.00    -0.196 OA 
BRANCH   8   9
HETATM    9  C   UNL     1     -10.434   9.857  68.846  1.00  0.00    -0.211 C  
HETATM   10  O   UNL     1     -11.071   9.622  67.823  1.00  0.00    -0.219 OA 
BRANCH   9  11
HETATM   11  C   UNL     1     -10.319   8.926  70.066  1.00  0.00    -0.219 C  
HETATM   12  C   UNL     1     -11.594   8.877  70.892  1.00  0.00    -0.331 A  
HETATM   13  C   UNL     1     -12.093  10.036  71.515  1.00  0.00    -0.475 A  
HETATM   14  C   UNL     1     -13.352  10.031  72.114  1.00  0.00    -0.469 A  
HETATM   15  C   UNL     1     -14.103   8.860  72.144  1.00  0.00    -0.497 A  
HETATM   16  C   UNL     1     -13.581   7.687  71.596  1.00  0.00    -0.431 A  
HETATM   17  C   UNL     1     -12.331   7.697  70.975  1.00  0.00    -0.208 A  
HETATM   18  O   UNL     1     -11.908   6.498  70.462  1.00  0.00    -0.392 OA 
HETATM   19  C   UNL     1     -10.657   6.425  69.900  1.00  0.00    -0.243 A  
HETATM   20  C   UNL     1     -10.224   5.141  69.556  1.00  0.00    -0.318 A  
HETATM   21  C   UNL     1      -8.983   4.957  68.951  1.00  0.00    -0.136 A  
HETATM   22  C   UNL     1      -8.173   6.058  68.694  1.00  0.00    -0.107 A  
HETATM   23  C   UNL     1      -8.596   7.340  69.056  1.00  0.00    -0.129 A  
HETATM   24  C   UNL     1      -9.849   7.541  69.661  1.00  0.00    -0.180 A  
ENDBRANCH   9  11
ENDBRANCH   8   9
ENDBRANCH   7   8
ENDBRANCH   6   7
ENDBRANCH   4   6
BRANCH   4  25
HETATM   25  C   UNL     1     -11.575  14.609  69.017  1.00  0.00    -0.298 C  
HETATM   26  C   UNL     1     -12.223  13.597  69.962  1.00  0.00    -0.395 C  
HETATM   27  C   UNL     1     -10.520  15.400  69.811  1.00  0.00    -0.303 C  
ENDBRANCH   4  25
ENDBRANCH   2   4
TORSDOF 7
ENDMDL
MODEL       58
REMARK 921   NORMALIZED FREE ENERGY PREDICTED BY IDOCK:   -5.51 KCAL/MOL
REMARK 922        TOTAL FREE ENERGY PREDICTED BY IDOCK:   -8.95 KCAL/MOL
REMARK 923 INTER-LIGAND FREE ENERGY PREDICTED BY IDOCK:   -8.01 KCAL/MOL
REMARK 924 INTRA-LIGAND FREE ENERGY PREDICTED BY IDOCK:   -0.94 KCAL/MOL
REMARK 927      BINDING AFFINITY PREDICTED BY RF-SCORE:    0.00 PKD
ROOT
HETATM    1  C   UNL     1      -8.693   7.836  71.605  1.00  0.00    -0.142 C  
HETATM    2  C   UNL     1     -10.051   7.171  71.859  1.00  0.00    -0.182 C  
HETATM    3  C   UNL     1     -10.606   7.506  73.243  1.00  0.00    -0.438 C  
ENDROOT
BRANCH   2   4
HETATM    4  N   UNL     1     -11.123   7.374  70.711  1.00  0.00    -0.259 N  
HETATM    5  C   UNL     1     -12.485   7.714  71.344  1.00  0.00    -0.333 C  
BRANCH   4   6
HETATM    6  C   UNL     1     -10.695   8.615  69.833  1.00  0.00    -0.225 C  
BRANCH   6   7
HETATM    7  C   UNL     1     -11.359   9.955  70.168  1.00  0.00    -0.275 C  
BRANCH   7   8
HETATM    8  O   UNL     1     -10.591  11.028  69.597  1.00  0.00    -0.193 OA 
BRANCH   8   9
HETATM    9  C   UNL     1     -11.040  11.544  68.405  1.00  0.00    -0.235 C  
HETATM   10  O   UNL     1     -12.208  11.397  68.053  1.00  0.00    -0.607 OA 
BRANCH   9  11
HETATM   11  C   UNL     1      -9.961  12.322  67.632  1.00  0.00    -0.199 C  
HETATM   12  C   UNL     1      -9.862  11.902  66.175  1.00  0.00    -0.254 A  
HETATM   13  C   UNL     1      -9.510  10.584  65.828  1.00  0.00    -0.249 A  
HETATM   14  C   UNL     1      -9.599  10.152  64.505  1.00  0.00    -0.376 A  
HETATM   15  C   UNL     1      -9.990  11.042  63.509  1.00  0.00    -0.421 A  
HETATM   16  C   UNL     1     -10.265  12.370  63.834  1.00  0.00    -0.409 A  
HETATM   17  C   UNL     1     -10.200  12.798  65.162  1.00  0.00    -0.278 A  
HETATM   18  O   UNL     1     -10.493  14.118  65.382  1.00  0.00    -0.316 OA 
HETATM   19  C   UNL     1     -10.379  14.617  66.656  1.00  0.00    -0.273 A  
HETATM   20  C   UNL     1     -10.525  16.002  66.778  1.00  0.00    -0.308 A  
HETATM   21  C   UNL     1     -10.457  16.609  68.030  1.00  0.00    -0.320 A  
HETATM   22  C   UNL     1     -10.240  15.828  69.161  1.00  0.00    -0.231 A  
HETATM   23  C   UNL     1     -10.074  14.446  69.038  1.00  0.00    -0.161 A  
HETATM   24  C   UNL     1     -10.147  13.820  67.781  1.00  0.00    -0.245 A  
ENDBRANCH   9  11
ENDBRANCH   8   9
ENDBRANCH   7   8
ENDBRANCH   6   7
ENDBRANCH   4   6
BRANCH   4  25
HETATM   25  C   UNL     1     -11.255   6.149  69.687  1.00  0.00    -0.418 C  
HETATM   26  C   UNL     1     -11.025   6.526  68.224  1.00  0.00    -0.362 C  
HETATM   27  C   UNL     1     -10.313   4.981  70.035  1.00  0.00    -0.303 C  
ENDBRANCH   4  25
ENDBRANCH   2   4
TORSDOF 7
ENDMDL
MODEL       59
REMARK 921   NORMALIZED FREE ENERGY PREDICTED BY IDOCK:   -5.50 KCAL/MOL
REMARK 922        TOTAL FREE ENERGY PREDICTED BY IDOCK:   -8.94 KCAL/MOL
REMARK 923 INTER-LIGAND FREE ENERGY PREDICTED BY IDOCK:   -7.77 KCAL/MOL
REMARK 924 INTRA-LIGAND FREE ENERGY PREDICTED BY IDOCK:   -1.16 KCAL/MOL
REMARK 927      BINDING AFFINITY PREDICTED BY RF-SCORE:    0.00 PKD
ROOT
HETATM    1  C   UNL     1      -8.300   4.148  67.157  1.00  0.00    -0.100 C  
HETATM    2  C   UNL     1      -9.475   4.095  68.139  1.00  0.00    -0.158 C  
HETATM    3  C   UNL     1      -9.490   2.798  68.949  1.00  0.00    -0.171 C  
ENDROOT
BRANCH   2   4
HETATM    4  N   UNL     1      -9.649   5.379  69.049  1.00  0.00    -0.132 N  
HETATM    5  C   UNL     1      -8.384   6.250  68.944  1.00  0.00    -0.120 C  
BRANCH   4   6
HETATM    6  C   UNL     1     -10.852   6.236  68.488  1.00  0.00    -0.323 C  
BRANCH   6   7
HETATM    7  C   UNL     1     -10.836   6.540  66.986  1.00  0.00    -0.395 C  
BRANCH   7   8
HETATM    8  O   UNL     1     -10.902   7.962  66.783  1.00  0.00    -0.234 OA 
BRANCH   8   9
HETATM    9  C   UNL     1      -9.720   8.601  66.497  1.00  0.00    -0.255 C  
HETATM   10  O   UNL     1      -8.818   8.024  65.897  1.00  0.00    -0.160 OA 
BRANCH   9  11
HETATM   11  C   UNL     1      -9.691  10.067  66.965  1.00  0.00    -0.227 C  
HETATM   12  C   UNL     1     -10.276  11.024  65.940  1.00  0.00    -0.309 A  
HETATM   13  C   UNL     1      -9.690  11.162  64.667  1.00  0.00    -0.308 A  
HETATM   14  C   UNL     1     -10.330  11.895  63.668  1.00  0.00    -0.477 A  
HETATM   15  C   UNL     1     -11.533  12.541  63.943  1.00  0.00    -0.507 A  
HETATM   16  C   UNL     1     -12.079  12.473  65.225  1.00  0.00    -0.500 A  
HETATM   17  C   UNL     1     -11.452  11.719  66.218  1.00  0.00    -0.227 A  
HETATM   18  O   UNL     1     -12.069  11.709  67.442  1.00  0.00    -0.605 OA 
HETATM   19  C   UNL     1     -11.466  11.043  68.480  1.00  0.00    -0.309 A  
HETATM   20  C   UNL     1     -12.058  11.217  69.735  1.00  0.00    -0.394 A  
HETATM   21  C   UNL     1     -11.544  10.563  70.852  1.00  0.00    -0.385 A  
HETATM   22  C   UNL     1     -10.434   9.735  70.713  1.00  0.00    -0.339 A  
HETATM   23  C   UNL     1      -9.829   9.575  69.464  1.00  0.00    -0.205 A  
HETATM   24  C   UNL     1     -10.342  10.225  68.327  1.00  0.00    -0.209 A  
ENDBRANCH   9  11
ENDBRANCH   8   9
ENDBRANCH   7   8
ENDBRANCH   6   7
ENDBRANCH   4   6
BRANCH   4  25
HETATM   25  C   UNL     1     -10.014   5.077  70.579  1.00  0.00    -0.242 C  
HETATM   26  C   UNL     1      -8.825   5.157  71.535  1.00  0.00    -0.145 C  
HETATM   27  C   UNL     1     -11.125   5.997  71.116  1.00  0.00    -0.336 C  
ENDBRANCH   4  25
ENDBRANCH   2   4
TORSDOF 7
ENDMDL
MODEL       60
REMARK 921   NORMALIZED FREE ENERGY PREDICTED BY IDOCK:   -5.50 KCAL/MOL
REMARK 922        TOTAL FREE ENERGY PREDICTED BY IDOCK:   -8.93 KCAL/MOL
REMARK 923 INTER-LIGAND FREE ENERGY PREDICTED BY IDOCK:   -7.95 KCAL/MOL
REMARK 924 INTRA-LIGAND FREE ENERGY PREDICTED BY IDOCK:   -0.98 KCAL/MOL
REMARK 927      BINDING AFFINITY PREDICTED BY RF-SCORE:    0.00 PKD
ROOT
HETATM    1  C   UNL     1     -12.735   9.816  71.406  1.00  0.00    -0.483 C  
HETATM    2  C   UNL     1     -11.973   8.525  71.724  1.00  0.00    -0.332 C  
HETATM    3  C   UNL     1     -12.868   7.289  71.628  1.00  0.00    -0.415 C  
ENDROOT
BRANCH   2   4
HETATM    4  N   UNL     1     -10.605   8.343  70.949  1.00  0.00    -0.200 N  
HETATM    5  C   UNL     1     -10.819   7.391  69.758  1.00  0.00    -0.234 C  
BRANCH   4   6
HETATM    6  C   UNL     1     -10.172   9.741  70.354  1.00  0.00    -0.281 C  
BRANCH   6   7
HETATM    7  C   UNL     1     -10.067   9.835  68.828  1.00  0.00    -0.174 C  
BRANCH   7   8
HETATM    8  O   UNL     1     -10.216  11.206  68.420  1.00  0.00    -0.174 OA 
BRANCH   8   9
HETATM    9  C   UNL     1      -9.180  11.753  67.700  1.00  0.00    -0.180 C  
HETATM   10  O   UNL     1      -8.077  11.215  67.671  1.00  0.00    -0.113 OA 
BRANCH   9  11
HETATM   11  C   UNL     1      -9.575  13.033  66.942  1.00  0.00    -0.243 C  
HETATM   12  C   UNL     1     -10.511  12.763  65.776  1.00  0.00    -0.294 A  
HETATM   13  C   UNL     1     -10.103  11.956  64.697  1.00  0.00    -0.301 A  
HETATM   14  C   UNL     1     -11.019  11.558  63.724  1.00  0.00    -0.485 A  
HETATM   15  C   UNL     1     -12.337  12.003  63.788  1.00  0.00    -0.602 A  
HETATM   16  C   UNL     1     -12.729  12.866  64.811  1.00  0.00    -0.442 A  
HETATM   17  C   UNL     1     -11.819  13.245  65.800  1.00  0.00    -0.387 A  
HETATM   18  O   UNL     1     -12.300  14.090  66.765  1.00  0.00    -0.439 OA 
HETATM   19  C   UNL     1     -11.437  14.554  67.726  1.00  0.00    -0.340 A  
HETATM   20  C   UNL     1     -11.949  15.542  68.573  1.00  0.00    -0.179 A  
HETATM   21  C   UNL     1     -11.167  16.062  69.602  1.00  0.00    -0.336 A  
HETATM   22  C   UNL     1      -9.869  15.594  69.782  1.00  0.00    -0.260 A  
HETATM   23  C   UNL     1      -9.348  14.622  68.924  1.00  0.00    -0.160 A  
HETATM   24  C   UNL     1     -10.129  14.084  67.886  1.00  0.00    -0.237 A  
ENDBRANCH   9  11
ENDBRANCH   8   9
ENDBRANCH   7   8
ENDBRANCH   6   7
ENDBRANCH   4   6
BRANCH   4  25
HETATM   25  C   UNL     1      -9.374   7.863  71.855  1.00  0.00    -0.154 C  
HETATM   26  C   UNL     1      -8.082   8.646  71.625  1.00  0.00    -0.183 C  
HETATM   27  C   UNL     1      -9.697   7.901  73.360  1.00  0.00    -0.318 C  
ENDBRANCH   4  25
ENDBRANCH   2   4
TORSDOF 7
ENDMDL
MODEL       61
REMARK 921   NORMALIZED FREE ENERGY PREDICTED BY IDOCK:   -5.48 KCAL/MOL
REMARK 922        TOTAL FREE ENERGY PREDICTED BY IDOCK:   -8.90 KCAL/MOL
REMARK 923 INTER-LIGAND FREE ENERGY PREDICTED BY IDOCK:   -7.76 KCAL/MOL
REMARK 924 INTRA-LIGAND FREE ENERGY PREDICTED BY IDOCK:   -1.15 KCAL/MOL
REMARK 927      BINDING AFFINITY PREDICTED BY RF-SCORE:    0.00 PKD
ROOT
HETATM    1  C   UNL     1     -11.292  15.220  67.675  1.00  0.00    -0.315 C  
HETATM    2  C   UNL     1     -10.833  13.814  68.081  1.00  0.00    -0.246 C  
HETATM    3  C   UNL     1     -11.692  13.230  69.203  1.00  0.00    -0.379 C  
ENDROOT
BRANCH   2   4
HETATM    4  N   UNL     1     -10.633  12.801  66.881  1.00  0.00    -0.243 N  
HETATM    5  C   UNL     1      -9.144  12.424  66.779  1.00  0.00    -0.212 C  
BRANCH   4   6
HETATM    6  C   UNL     1     -11.428  11.474  67.203  1.00  0.00    -0.237 C  
BRANCH   6   7
HETATM    7  C   UNL     1     -10.617  10.173  67.208  1.00  0.00    -0.261 C  
BRANCH   7   8
HETATM    8  O   UNL     1     -10.839   9.474  68.445  1.00  0.00    -0.207 OA 
BRANCH   8   9
HETATM    9  C   UNL     1      -9.887   9.632  69.423  1.00  0.00    -0.193 C  
HETATM   10  O   UNL     1      -9.027  10.505  69.335  1.00  0.00    -0.170 OA 
BRANCH   9  11
HETATM   11  C   UNL     1     -10.053   8.653  70.599  1.00  0.00    -0.237 C  
HETATM   12  C   UNL     1     -11.452   8.678  71.192  1.00  0.00    -0.332 A  
HETATM   13  C   UNL     1     -11.967   9.851  71.775  1.00  0.00    -0.329 A  
HETATM   14  C   UNL     1     -13.308   9.926  72.150  1.00  0.00    -0.498 A  
HETATM   15  C   UNL     1     -14.136   8.818  71.995  1.00  0.00    -0.508 A  
HETATM   16  C   UNL     1     -13.613   7.627  71.490  1.00  0.00    -0.422 A  
HETATM   17  C   UNL     1     -12.277   7.558  71.092  1.00  0.00    -0.301 A  
HETATM   18  O   UNL     1     -11.859   6.348  70.603  1.00  0.00    -0.367 OA 
HETATM   19  C   UNL     1     -10.539   6.195  70.259  1.00  0.00    -0.258 A  
HETATM   20  C   UNL     1     -10.147   4.893  69.934  1.00  0.00    -0.332 A  
HETATM   21  C   UNL     1      -8.836   4.630  69.542  1.00  0.00    -0.121 A  
HETATM   22  C   UNL     1      -7.916   5.672  69.479  1.00  0.00    -0.092 A  
HETATM   23  C   UNL     1      -8.301   6.970  69.824  1.00  0.00    -0.132 A  
HETATM   24  C   UNL     1      -9.623   7.250  70.215  1.00  0.00    -0.165 A  
ENDBRANCH   9  11
ENDBRANCH   8   9
ENDBRANCH   7   8
ENDBRANCH   6   7
ENDBRANCH   4   6
BRANCH   4  25
HETATM   25  C   UNL     1     -11.196  13.307  65.470  1.00  0.00    -0.287 C  
HETATM   26  C   UNL     1     -10.313  12.946  64.276  1.00  0.00    -0.396 C  
HETATM   27  C   UNL     1     -12.621  12.799  65.183  1.00  0.00    -0.513 C  
ENDBRANCH   4  25
ENDBRANCH   2   4
TORSDOF 7
ENDMDL
MODEL       62
REMARK 921   NORMALIZED FREE ENERGY PREDICTED BY IDOCK:   -5.46 KCAL/MOL
REMARK 922        TOTAL FREE ENERGY PREDICTED BY IDOCK:   -8.87 KCAL/MOL
REMARK 923 INTER-LIGAND FREE ENERGY PREDICTED BY IDOCK:   -7.72 KCAL/MOL
REMARK 924 INTRA-LIGAND FREE ENERGY PREDICTED BY IDOCK:   -1.15 KCAL/MOL
REMARK 927      BINDING AFFINITY PREDICTED BY RF-SCORE:    0.00 PKD
ROOT
HETATM    1  C   UNL     1     -10.767  18.300  68.200  1.00  0.00    -0.223 C  
HETATM    2  C   UNL     1     -10.064  18.349  66.839  1.00  0.00    -0.367 C  
HETATM    3  C   UNL     1     -10.475  19.575  66.023  1.00  0.00    -0.611 C  
ENDROOT
BRANCH   2   4
HETATM    4  N   UNL     1      -8.494  18.152  66.886  1.00  0.00    -0.246 N  
HETATM    5  C   UNL     1      -8.041  18.036  68.353  1.00  0.00    -0.298 C  
BRANCH   4   6
HETATM    6  C   UNL     1      -8.135  16.785  66.180  1.00  0.00    -0.258 C  
BRANCH   6   7
HETATM    7  C   UNL     1      -9.270  15.764  66.044  1.00  0.00    -0.344 C  
BRANCH   7   8
HETATM    8  O   UNL     1      -8.929  14.568  66.765  1.00  0.00    -0.246 OA 
BRANCH   8   9
HETATM    9  C   UNL     1      -9.903  14.035  67.574  1.00  0.00    -0.236 C  
HETATM   10  O   UNL     1     -10.480  14.726  68.409  1.00  0.00    -0.233 OA 
BRANCH   9  11
HETATM   11  C   UNL     1     -10.189  12.550  67.287  1.00  0.00    -0.222 C  
HETATM   12  C   UNL     1     -10.931  12.337  65.978  1.00  0.00    -0.327 A  
HETATM   13  C   UNL     1     -12.217  12.876  65.783  1.00  0.00    -0.498 A  
HETATM   14  C   UNL     1     -12.818  12.838  64.525  1.00  0.00    -0.323 A  
HETATM   15  C   UNL     1     -12.166  12.218  63.463  1.00  0.00    -0.669 A  
HETATM   16  C   UNL     1     -10.926  11.613  63.668  1.00  0.00    -0.507 A  
HETATM   17  C   UNL     1     -10.313  11.671  64.921  1.00  0.00    -0.283 A  
HETATM   18  O   UNL     1      -9.094  11.053  65.021  1.00  0.00    -0.202 OA 
HETATM   19  C   UNL     1      -8.472  11.015  66.244  1.00  0.00    -0.165 A  
HETATM   20  C   UNL     1      -7.321  10.223  66.311  1.00  0.00    -0.118 A  
HETATM   21  C   UNL     1      -6.595  10.138  67.497  1.00  0.00    -0.068 A  
HETATM   22  C   UNL     1      -7.023  10.843  68.617  1.00  0.00    -0.073 A  
HETATM   23  C   UNL     1      -8.184  11.618  68.557  1.00  0.00    -0.144 A  
HETATM   24  C   UNL     1      -8.923  11.718  67.365  1.00  0.00    -0.173 A  
ENDBRANCH   9  11
ENDBRANCH   8   9
ENDBRANCH   7   8
ENDBRANCH   6   7
ENDBRANCH   4   6
BRANCH   4  25
HETATM   25  C   UNL     1      -7.650  19.270  66.110  1.00  0.00    -0.287 C  
HETATM   26  C   UNL     1      -7.082  20.365  67.012  1.00  0.00    -0.331 C  
HETATM   27  C   UNL     1      -6.491  18.675  65.290  1.00  0.00    -0.271 C  
ENDBRANCH   4  25
ENDBRANCH   2   4
TORSDOF 7
ENDMDL
MODEL       63
REMARK 921   NORMALIZED FREE ENERGY PREDICTED BY IDOCK:   -5.44 KCAL/MOL
REMARK 922        TOTAL FREE ENERGY PREDICTED BY IDOCK:   -8.85 KCAL/MOL
REMARK 923 INTER-LIGAND FREE ENERGY PREDICTED BY IDOCK:   -7.52 KCAL/MOL
REMARK 924 INTRA-LIGAND FREE ENERGY PREDICTED BY IDOCK:   -1.33 KCAL/MOL
REMARK 927      BINDING AFFINITY PREDICTED BY RF-SCORE:    0.00 PKD
ROOT
HETATM    1  C   UNL     1     -10.803   6.091  67.138  1.00  0.00    -0.414 C  
HETATM    2  C   UNL     1      -9.865   7.266  67.436  1.00  0.00    -0.159 C  
HETATM    3  C   UNL     1     -10.105   8.447  66.495  1.00  0.00    -0.317 C  
ENDROOT
BRANCH   2   4
HETATM    4  N   UNL     1      -9.801   7.706  68.956  1.00  0.00    -0.164 N  
HETATM    5  C   UNL     1      -8.359   8.118  69.304  1.00  0.00    -0.130 C  
BRANCH   4   6
HETATM    6  C   UNL     1     -10.710   8.983  69.151  1.00  0.00    -0.157 C  
BRANCH   6   7
HETATM    7  C   UNL     1      -9.991  10.288  69.514  1.00  0.00    -0.228 C  
BRANCH   7   8
HETATM    8  O   UNL     1     -10.269  11.282  68.513  1.00  0.00    -0.191 OA 
BRANCH   8   9
HETATM    9  C   UNL     1      -9.188  11.809  67.848  1.00  0.00    -0.181 C  
HETATM   10  O   UNL     1      -8.086  11.268  67.904  1.00  0.00    -0.113 OA 
BRANCH   9  11
HETATM   11  C   UNL     1      -9.528  13.070  67.035  1.00  0.00    -0.237 C  
HETATM   12  C   UNL     1     -10.449  12.783  65.861  1.00  0.00    -0.295 A  
HETATM   13  C   UNL     1     -10.046  11.924  64.822  1.00  0.00    -0.295 A  
HETATM   14  C   UNL     1     -10.955  11.517  63.846  1.00  0.00    -0.474 A  
HETATM   15  C   UNL     1     -12.260  12.003  63.866  1.00  0.00    -0.555 A  
HETATM   16  C   UNL     1     -12.644  12.917  64.848  1.00  0.00    -0.525 A  
HETATM   17  C   UNL     1     -11.742  13.306  65.840  1.00  0.00    -0.365 A  
HETATM   18  O   UNL     1     -12.215  14.201  66.763  1.00  0.00    -0.447 OA 
HETATM   19  C   UNL     1     -11.356  14.676  67.723  1.00  0.00    -0.322 A  
HETATM   20  C   UNL     1     -11.854  15.711  68.520  1.00  0.00    -0.252 A  
HETATM   21  C   UNL     1     -11.076  16.246  69.545  1.00  0.00    -0.330 A  
HETATM   22  C   UNL     1      -9.797  15.747  69.768  1.00  0.00    -0.218 A  
HETATM   23  C   UNL     1      -9.290  14.727  68.959  1.00  0.00    -0.160 A  
HETATM   24  C   UNL     1     -10.067  14.173  67.926  1.00  0.00    -0.235 A  
ENDBRANCH   9  11
ENDBRANCH   8   9
ENDBRANCH   7   8
ENDBRANCH   6   7
ENDBRANCH   4   6
BRANCH   4  25
HETATM   25  C   UNL     1     -10.356   6.621  69.995  1.00  0.00    -0.199 C  
HETATM   26  C   UNL     1      -9.380   6.271  71.118  1.00  0.00    -0.169 C  
HETATM   27  C   UNL     1     -11.692   7.042  70.634  1.00  0.00    -0.384 C  
ENDBRANCH   4  25
ENDBRANCH   2   4
TORSDOF 7
ENDMDL
MODEL       64
REMARK 921   NORMALIZED FREE ENERGY PREDICTED BY IDOCK:   -5.44 KCAL/MOL
REMARK 922        TOTAL FREE ENERGY PREDICTED BY IDOCK:   -8.84 KCAL/MOL
REMARK 923 INTER-LIGAND FREE ENERGY PREDICTED BY IDOCK:   -7.23 KCAL/MOL
REMARK 924 INTRA-LIGAND FREE ENERGY PREDICTED BY IDOCK:   -1.61 KCAL/MOL
REMARK 927      BINDING AFFINITY PREDICTED BY RF-SCORE:    0.00 PKD
ROOT
HETATM    1  C   UNL     1     -10.555  15.923  65.575  1.00  0.00    -0.419 C  
HETATM    2  C   UNL     1     -10.475  16.257  67.069  1.00  0.00    -0.306 C  
HETATM    3  C   UNL     1     -11.386  15.361  67.908  1.00  0.00    -0.328 C  
ENDROOT
BRANCH   2   4
HETATM    4  N   UNL     1      -9.008  16.352  67.657  1.00  0.00    -0.196 N  
HETATM    5  C   UNL     1      -9.018  15.881  69.123  1.00  0.00    -0.256 C  
BRANCH   4   6
HETATM    6  C   UNL     1      -8.077  15.359  66.857  1.00  0.00    -0.224 C  
BRANCH   6   7
HETATM    7  C   UNL     1      -7.872  13.967  67.467  1.00  0.00    -0.184 C  
BRANCH   7   8
HETATM    8  O   UNL     1      -8.720  13.019  66.795  1.00  0.00    -0.188 OA 
BRANCH   8   9
HETATM    9  C   UNL     1      -9.426  12.150  67.591  1.00  0.00    -0.187 C  
HETATM   10  O   UNL     1      -9.449  12.286  68.811  1.00  0.00    -0.071 OA 
BRANCH   9  11
HETATM   11  C   UNL     1     -10.178  11.068  66.794  1.00  0.00    -0.272 C  
HETATM   12  C   UNL     1     -10.977  11.640  65.635  1.00  0.00    -0.322 A  
HETATM   13  C   UNL     1     -12.027  12.550  65.864  1.00  0.00    -0.472 A  
HETATM   14  C   UNL     1     -12.636  13.212  64.798  1.00  0.00    -0.426 A  
HETATM   15  C   UNL     1     -12.239  12.937  63.492  1.00  0.00    -0.595 A  
HETATM   16  C   UNL     1     -11.253  11.979  63.254  1.00  0.00    -0.403 A  
HETATM   17  C   UNL     1     -10.627  11.333  64.321  1.00  0.00    -0.358 A  
HETATM   18  O   UNL     1      -9.667  10.414  63.986  1.00  0.00    -0.293 OA 
HETATM   19  C   UNL     1      -9.063   9.695  64.987  1.00  0.00    -0.233 A  
HETATM   20  C   UNL     1      -8.224   8.659  64.565  1.00  0.00    -0.166 A  
HETATM   21  C   UNL     1      -7.538   7.885  65.498  1.00  0.00    -0.083 A  
HETATM   22  C   UNL     1      -7.694   8.146  66.856  1.00  0.00    -0.096 A  
HETATM   23  C   UNL     1      -8.548   9.168  67.280  1.00  0.00    -0.118 A  
HETATM   24  C   UNL     1      -9.242   9.961  66.348  1.00  0.00    -0.195 A  
ENDBRANCH   9  11
ENDBRANCH   8   9
ENDBRANCH   7   8
ENDBRANCH   6   7
ENDBRANCH   4   6
BRANCH   4  25
HETATM   25  C   UNL     1      -8.318  17.791  67.521  1.00  0.00    -0.226 C  
HETATM   26  C   UNL     1      -9.305  18.947  67.359  1.00  0.00    -0.321 C  
HETATM   27  C   UNL     1      -7.387  18.117  68.702  1.00  0.00    -0.295 C  
ENDBRANCH   4  25
ENDBRANCH   2   4
TORSDOF 7
ENDMDL
MODEL       65
REMARK 921   NORMALIZED FREE ENERGY PREDICTED BY IDOCK:   -5.37 KCAL/MOL
REMARK 922        TOTAL FREE ENERGY PREDICTED BY IDOCK:   -8.75 KCAL/MOL
REMARK 923 INTER-LIGAND FREE ENERGY PREDICTED BY IDOCK:   -7.62 KCAL/MOL
REMARK 924 INTRA-LIGAND FREE ENERGY PREDICTED BY IDOCK:   -1.13 KCAL/MOL
REMARK 927      BINDING AFFINITY PREDICTED BY RF-SCORE:    0.00 PKD
ROOT
HETATM    1  C   UNL     1      -8.081   6.539  71.782  1.00  0.00    -0.104 C  
HETATM    2  C   UNL     1      -9.035   5.987  70.717  1.00  0.00    -0.149 C  
HETATM    3  C   UNL     1      -9.856   4.806  71.235  1.00  0.00    -0.256 C  
ENDROOT
BRANCH   2   4
HETATM    4  N   UNL     1      -9.929   7.073  69.989  1.00  0.00    -0.181 N  
HETATM    5  C   UNL     1     -11.394   6.903  70.432  1.00  0.00    -0.328 C  
BRANCH   4   6
HETATM    6  C   UNL     1      -9.465   8.508  70.460  1.00  0.00    -0.170 C  
BRANCH   6   7
HETATM    7  C   UNL     1     -10.468   9.316  71.290  1.00  0.00    -0.338 C  
BRANCH   7   8
HETATM    8  O   UNL     1     -10.878  10.478  70.548  1.00  0.00    -0.223 OA 
BRANCH   8   9
HETATM    9  C   UNL     1     -12.228  10.733  70.494  1.00  0.00    -0.366 C  
HETATM   10  O   UNL     1     -13.040   9.943  70.969  1.00  0.00    -0.367 OA 
BRANCH   9  11
HETATM   11  C   UNL     1     -12.567  12.082  69.835  1.00  0.00     0.127 C  
HETATM   12  C   UNL     1     -12.540  13.240  70.818  1.00  0.00    -0.357 A  
HETATM   13  C   UNL     1     -13.421  13.275  71.915  1.00  0.00    -0.525 A  
HETATM   14  C   UNL     1     -13.272  14.238  72.913  1.00  0.00    -0.593 A  
HETATM   15  C   UNL     1     -12.277  15.205  72.802  1.00  0.00    -0.485 A  
HETATM   16  C   UNL     1     -11.450  15.224  71.679  1.00  0.00    -0.471 A  
HETATM   17  C   UNL     1     -11.583  14.246  70.691  1.00  0.00    -0.148 A  
HETATM   18  O   UNL     1     -10.721  14.345  69.630  1.00  0.00    -0.177 OA 
HETATM   19  C   UNL     1     -10.846  13.456  68.592  1.00  0.00    -0.263 A  
HETATM   20  C   UNL     1     -10.053  13.720  67.471  1.00  0.00    -0.241 A  
HETATM   21  C   UNL     1     -10.080  12.864  66.373  1.00  0.00    -0.272 A  
HETATM   22  C   UNL     1     -10.905  11.743  66.396  1.00  0.00    -0.325 A  
HETATM   23  C   UNL     1     -11.713  11.488  67.507  1.00  0.00    -0.262 A  
HETATM   24  C   UNL     1     -11.690  12.341  68.625  1.00  0.00    -0.377 A  
ENDBRANCH   9  11
ENDBRANCH   8   9
ENDBRANCH   7   8
ENDBRANCH   6   7
ENDBRANCH   4   6
BRANCH   4  25
HETATM   25  C   UNL     1      -9.808   7.086  68.392  1.00  0.00    -0.146 C  
HETATM   26  C   UNL     1     -10.973   6.410  67.670  1.00  0.00    -0.441 C  
HETATM   27  C   UNL     1      -9.648   8.506  67.821  1.00  0.00    -0.185 C  
ENDBRANCH   4  25
ENDBRANCH   2   4
TORSDOF 7
ENDMDL
MODEL       66
REMARK 921   NORMALIZED FREE ENERGY PREDICTED BY IDOCK:   -5.31 KCAL/MOL
REMARK 922        TOTAL FREE ENERGY PREDICTED BY IDOCK:   -8.67 KCAL/MOL
REMARK 923 INTER-LIGAND FREE ENERGY PREDICTED BY IDOCK:   -7.43 KCAL/MOL
REMARK 924 INTRA-LIGAND FREE ENERGY PREDICTED BY IDOCK:   -1.24 KCAL/MOL
REMARK 927      BINDING AFFINITY PREDICTED BY RF-SCORE:    0.00 PKD
ROOT
HETATM    1  C   UNL     1     -11.750  15.259  68.928  1.00  0.00    -0.362 C  
HETATM    2  C   UNL     1     -11.128  13.880  68.681  1.00  0.00    -0.265 C  
HETATM    3  C   UNL     1     -11.844  12.777  69.460  1.00  0.00    -0.379 C  
ENDROOT
BRANCH   2   4
HETATM    4  N   UNL     1     -10.912  13.504  67.158  1.00  0.00    -0.287 N  
HETATM    5  C   UNL     1      -9.403  13.427  66.864  1.00  0.00    -0.252 C  
BRANCH   4   6
HETATM    6  C   UNL     1     -11.509  12.063  66.904  1.00  0.00    -0.337 C  
BRANCH   6   7
HETATM    7  C   UNL     1     -10.499  10.933  66.673  1.00  0.00    -0.254 C  
BRANCH   7   8
HETATM    8  O   UNL     1     -10.584   9.986  67.752  1.00  0.00    -0.224 OA 
BRANCH   8   9
HETATM    9  C   UNL     1      -9.461   9.831  68.528  1.00  0.00    -0.145 C  
HETATM   10  O   UNL     1      -8.750  10.792  68.811  1.00  0.00    -0.150 OA 
BRANCH   9  11
HETATM   11  C   UNL     1      -9.245   8.384  69.006  1.00  0.00    -0.147 C  
HETATM   12  C   UNL     1     -10.174   7.994  70.143  1.00  0.00    -0.203 A  
HETATM   13  C   UNL     1     -10.124   8.669  71.377  1.00  0.00    -0.325 A  
HETATM   14  C   UNL     1     -11.096   8.438  72.351  1.00  0.00    -0.431 A  
HETATM   15  C   UNL     1     -12.095   7.495  72.125  1.00  0.00    -0.305 A  
HETATM   16  C   UNL     1     -12.104   6.767  70.935  1.00  0.00    -0.421 A  
HETATM   17  C   UNL     1     -11.147   7.015  69.950  1.00  0.00    -0.264 A  
HETATM   18  O   UNL     1     -11.244   6.253  68.815  1.00  0.00    -0.363 OA 
HETATM   19  C   UNL     1     -10.291   6.400  67.838  1.00  0.00    -0.190 A  
HETATM   20  C   UNL     1     -10.351   5.475  66.791  1.00  0.00    -0.321 A  
HETATM   21  C   UNL     1      -9.449   5.552  65.732  1.00  0.00    -0.071 A  
HETATM   22  C   UNL     1      -8.485   6.554  65.722  1.00  0.00    -0.149 A  
HETATM   23  C   UNL     1      -8.410   7.467  66.777  1.00  0.00    -0.126 A  
HETATM   24  C   UNL     1      -9.318   7.405  67.849  1.00  0.00    -0.138 A  
ENDBRANCH   9  11
ENDBRANCH   8   9
ENDBRANCH   7   8
ENDBRANCH   6   7
ENDBRANCH   4   6
BRANCH   4  25
HETATM   25  C   UNL     1     -11.654  14.466  66.115  1.00  0.00    -0.369 C  
HETATM   26  C   UNL     1     -10.723  15.123  65.096  1.00  0.00    -0.442 C  
HETATM   27  C   UNL     1     -12.779  13.750  65.345  1.00  0.00    -0.513 C  
ENDBRANCH   4  25
ENDBRANCH   2   4
TORSDOF 7
ENDMDL
MODEL       67
REMARK 921   NORMALIZED FREE ENERGY PREDICTED BY IDOCK:   -5.29 KCAL/MOL
REMARK 922        TOTAL FREE ENERGY PREDICTED BY IDOCK:   -8.64 KCAL/MOL
REMARK 923 INTER-LIGAND FREE ENERGY PREDICTED BY IDOCK:   -7.53 KCAL/MOL
REMARK 924 INTRA-LIGAND FREE ENERGY PREDICTED BY IDOCK:   -1.12 KCAL/MOL
REMARK 927      BINDING AFFINITY PREDICTED BY RF-SCORE:    0.00 PKD
ROOT
HETATM    1  C   UNL     1      -9.769   5.161  70.204  1.00  0.00    -0.274 C  
HETATM    2  C   UNL     1      -9.749   6.489  69.438  1.00  0.00    -0.146 C  
HETATM    3  C   UNL     1     -10.610   6.439  68.176  1.00  0.00    -0.314 C  
ENDROOT
BRANCH   2   4
HETATM    4  N   UNL     1     -10.035   7.775  70.317  1.00  0.00    -0.188 N  
HETATM    5  C   UNL     1      -8.771   8.133  71.119  1.00  0.00    -0.138 C  
BRANCH   4   6
HETATM    6  C   UNL     1     -10.334   8.990  69.352  1.00  0.00    -0.213 C  
BRANCH   6   7
HETATM    7  C   UNL     1      -9.223  10.035  69.201  1.00  0.00    -0.190 C  
BRANCH   7   8
HETATM    8  O   UNL     1      -9.762  11.225  68.598  1.00  0.00    -0.196 OA 
BRANCH   8   9
HETATM    9  C   UNL     1      -9.343  11.514  67.322  1.00  0.00    -0.166 C  
HETATM   10  O   UNL     1      -8.278  12.092  67.121  1.00  0.00    -0.171 OA 
BRANCH   9  11
HETATM   11  C   UNL     1     -10.310  11.012  66.235  1.00  0.00    -0.304 C  
HETATM   12  C   UNL     1     -11.116  12.132  65.600  1.00  0.00    -0.360 A  
HETATM   13  C   UNL     1     -11.999  12.911  66.372  1.00  0.00    -0.462 A  
HETATM   14  C   UNL     1     -12.596  14.050  65.832  1.00  0.00    -0.484 A  
HETATM   15  C   UNL     1     -12.359  14.396  64.505  1.00  0.00    -0.440 A  
HETATM   16  C   UNL     1     -11.547  13.585  63.711  1.00  0.00    -0.287 A  
HETATM   17  C   UNL     1     -10.930  12.458  64.257  1.00  0.00    -0.351 A  
HETATM   18  O   UNL     1     -10.146  11.730  63.400  1.00  0.00    -0.388 OA 
HETATM   19  C   UNL     1      -9.568  10.571  63.857  1.00  0.00    -0.309 A  
HETATM   20  C   UNL     1      -8.928   9.792  62.888  1.00  0.00    -0.270 A  
HETATM   21  C   UNL     1      -8.282   8.612  63.249  1.00  0.00    -0.162 A  
HETATM   22  C   UNL     1      -8.280   8.209  64.581  1.00  0.00    -0.128 A  
HETATM   23  C   UNL     1      -8.937   8.976  65.547  1.00  0.00    -0.252 A  
HETATM   24  C   UNL     1      -9.587  10.173  65.198  1.00  0.00    -0.354 A  
ENDBRANCH   9  11
ENDBRANCH   8   9
ENDBRANCH   7   8
ENDBRANCH   6   7
ENDBRANCH   4   6
BRANCH   4  25
HETATM   25  C   UNL     1     -11.313   7.665  71.276  1.00  0.00    -0.264 C  
HETATM   26  C   UNL     1     -10.982   7.308  72.724  1.00  0.00    -0.366 C  
HETATM   27  C   UNL     1     -12.163   8.949  71.281  1.00  0.00    -0.351 C  
ENDBRANCH   4  25
ENDBRANCH   2   4
TORSDOF 7
ENDMDL
MODEL       68
REMARK 921   NORMALIZED FREE ENERGY PREDICTED BY IDOCK:   -5.28 KCAL/MOL
REMARK 922        TOTAL FREE ENERGY PREDICTED BY IDOCK:   -8.63 KCAL/MOL
REMARK 923 INTER-LIGAND FREE ENERGY PREDICTED BY IDOCK:   -7.89 KCAL/MOL
REMARK 924 INTRA-LIGAND FREE ENERGY PREDICTED BY IDOCK:   -0.74 KCAL/MOL
REMARK 927      BINDING AFFINITY PREDICTED BY RF-SCORE:    0.00 PKD
ROOT
HETATM    1  C   UNL     1     -10.156   6.767  74.119  1.00  0.00    -0.381 C  
HETATM    2  C   UNL     1     -10.424   5.945  72.853  1.00  0.00    -0.222 C  
HETATM    3  C   UNL     1     -11.335   4.748  73.126  1.00  0.00    -0.380 C  
ENDROOT
BRANCH   2   4
HETATM    4  N   UNL     1     -10.888   6.785  71.594  1.00  0.00    -0.226 N  
HETATM    5  C   UNL     1     -12.424   6.743  71.494  1.00  0.00    -0.341 C  
BRANCH   4   6
HETATM    6  C   UNL     1     -10.478   8.294  71.814  1.00  0.00    -0.259 C  
BRANCH   6   7
HETATM    7  C   UNL     1     -11.613   9.324  71.792  1.00  0.00    -0.388 C  
BRANCH   7   8
HETATM    8  O   UNL     1     -11.302  10.361  70.844  1.00  0.00    -0.335 OA 
BRANCH   8   9
HETATM    9  C   UNL     1     -12.253  11.336  70.661  1.00  0.00    -0.393 C  
HETATM   10  O   UNL     1     -13.118  11.543  71.508  1.00  0.00    -0.422 OA 
BRANCH   9  11
HETATM   11  C   UNL     1     -12.077  12.119  69.348  1.00  0.00    -0.247 C  
HETATM   12  C   UNL     1     -11.750  13.586  69.576  1.00  0.00    -0.382 A  
HETATM   13  C   UNL     1     -12.657  14.430  70.245  1.00  0.00    -0.380 A  
HETATM   14  C   UNL     1     -12.281  15.720  70.616  1.00  0.00    -0.422 A  
HETATM   15  C   UNL     1     -11.019  16.200  70.279  1.00  0.00    -0.345 A  
HETATM   16  C   UNL     1     -10.143  15.397  69.549  1.00  0.00    -0.278 A  
HETATM   17  C   UNL     1     -10.509  14.096  69.198  1.00  0.00    -0.129 A  
HETATM   18  O   UNL     1      -9.580  13.383  68.486  1.00  0.00    -0.212 OA 
HETATM   19  C   UNL     1      -9.905  12.123  68.051  1.00  0.00    -0.202 A  
HETATM   20  C   UNL     1      -8.982  11.524  67.189  1.00  0.00    -0.166 A  
HETATM   21  C   UNL     1      -9.200  10.233  66.711  1.00  0.00    -0.180 A  
HETATM   22  C   UNL     1     -10.345   9.543  67.095  1.00  0.00    -0.320 A  
HETATM   23  C   UNL     1     -11.279  10.148  67.941  1.00  0.00    -0.234 A  
HETATM   24  C   UNL     1     -11.068  11.447  68.435  1.00  0.00    -0.296 A  
ENDBRANCH   9  11
ENDBRANCH   8   9
ENDBRANCH   7   8
ENDBRANCH   6   7
ENDBRANCH   4   6
BRANCH   4  25
HETATM   25  C   UNL     1     -10.209   6.354  70.209  1.00  0.00    -0.195 C  
HETATM   26  C   UNL     1     -11.173   6.314  69.023  1.00  0.00    -0.415 C  
HETATM   27  C   UNL     1      -9.017   7.250  69.828  1.00  0.00    -0.142 C  
ENDBRANCH   4  25
ENDBRANCH   2   4
TORSDOF 7
ENDMDL
MODEL       69
REMARK 921   NORMALIZED FREE ENERGY PREDICTED BY IDOCK:   -5.28 KCAL/MOL
REMARK 922        TOTAL FREE ENERGY PREDICTED BY IDOCK:   -8.63 KCAL/MOL
REMARK 923 INTER-LIGAND FREE ENERGY PREDICTED BY IDOCK:   -7.52 KCAL/MOL
REMARK 924 INTRA-LIGAND FREE ENERGY PREDICTED BY IDOCK:   -1.12 KCAL/MOL
REMARK 927      BINDING AFFINITY PREDICTED BY RF-SCORE:    0.00 PKD
ROOT
HETATM    1  C   UNL     1     -12.754  13.601  65.579  1.00  0.00    -0.514 C  
HETATM    2  C   UNL     1     -11.291  13.247  65.289  1.00  0.00    -0.295 C  
HETATM    3  C   UNL     1     -10.403  14.489  65.209  1.00  0.00    -0.435 C  
ENDROOT
BRANCH   2   4
HETATM    4  N   UNL     1     -10.676  12.121  66.216  1.00  0.00    -0.252 N  
HETATM    5  C   UNL     1      -9.523  12.718  67.043  1.00  0.00    -0.233 C  
BRANCH   4   6
HETATM    6  C   UNL     1     -11.783  11.647  67.238  1.00  0.00    -0.175 C  
BRANCH   6   7
HETATM    7  C   UNL     1     -11.343  11.472  68.696  1.00  0.00    -0.269 C  
BRANCH   7   8
HETATM    8  O   UNL     1     -11.033  10.090  68.941  1.00  0.00    -0.225 OA 
BRANCH   8   9
HETATM    9  C   UNL     1      -9.900   9.831  69.675  1.00  0.00    -0.221 C  
HETATM   10  O   UNL     1      -8.897  10.530  69.559  1.00  0.00    -0.134 OA 
BRANCH   9  11
HETATM   11  C   UNL     1     -10.058   8.642  70.640  1.00  0.00    -0.237 C  
HETATM   12  C   UNL     1     -11.473   8.501  71.174  1.00  0.00    -0.322 A  
HETATM   13  C   UNL     1     -12.055   9.523  71.948  1.00  0.00    -0.409 A  
HETATM   14  C   UNL     1     -13.409   9.476  72.281  1.00  0.00    -0.526 A  
HETATM   15  C   UNL     1     -14.183   8.386  71.890  1.00  0.00    -0.541 A  
HETATM   16  C   UNL     1     -13.594   7.333  71.190  1.00  0.00    -0.237 A  
HETATM   17  C   UNL     1     -12.245   7.391  70.835  1.00  0.00    -0.231 A  
HETATM   18  O   UNL     1     -11.760   6.311  70.144  1.00  0.00    -0.398 OA 
HETATM   19  C   UNL     1     -10.425   6.275  69.827  1.00  0.00    -0.232 A  
HETATM   20  C   UNL     1      -9.967   5.074  69.277  1.00  0.00    -0.277 A  
HETATM   21  C   UNL     1      -8.635   4.940  68.892  1.00  0.00    -0.092 A  
HETATM   22  C   UNL     1      -7.760   6.009  69.060  1.00  0.00    -0.092 A  
HETATM   23  C   UNL     1      -8.212   7.203  69.628  1.00  0.00    -0.131 A  
HETATM   24  C   UNL     1      -9.555   7.354  70.015  1.00  0.00    -0.168 A  
ENDBRANCH   9  11
ENDBRANCH   8   9
ENDBRANCH   7   8
ENDBRANCH   6   7
ENDBRANCH   4   6
BRANCH   4  25
HETATM   25  C   UNL     1     -10.206  10.796  65.448  1.00  0.00    -0.276 C  
HETATM   26  C   UNL     1     -10.234  10.912  63.924  1.00  0.00    -0.418 C  
HETATM   27  C   UNL     1      -8.800  10.333  65.869  1.00  0.00    -0.176 C  
ENDBRANCH   4  25
ENDBRANCH   2   4
TORSDOF 7
ENDMDL
MODEL       70
REMARK 921   NORMALIZED FREE ENERGY PREDICTED BY IDOCK:   -5.28 KCAL/MOL
REMARK 922        TOTAL FREE ENERGY PREDICTED BY IDOCK:   -8.63 KCAL/MOL
REMARK 923 INTER-LIGAND FREE ENERGY PREDICTED BY IDOCK:   -7.48 KCAL/MOL
REMARK 924 INTRA-LIGAND FREE ENERGY PREDICTED BY IDOCK:   -1.15 KCAL/MOL
REMARK 927      BINDING AFFINITY PREDICTED BY RF-SCORE:    0.00 PKD
ROOT
HETATM    1  C   UNL     1      -8.246   8.547  71.223  1.00  0.00    -0.176 C  
HETATM    2  C   UNL     1      -9.248   7.773  72.087  1.00  0.00    -0.149 C  
HETATM    3  C   UNL     1      -9.123   8.125  73.569  1.00  0.00    -0.277 C  
ENDROOT
BRANCH   2   4
HETATM    4  N   UNL     1     -10.747   7.816  71.579  1.00  0.00    -0.221 N  
HETATM    5  C   UNL     1     -11.642   8.401  72.687  1.00  0.00    -0.297 C  
BRANCH   4   6
HETATM    6  C   UNL     1     -10.834   8.798  70.345  1.00  0.00    -0.228 C  
BRANCH   6   7
HETATM    7  C   UNL     1     -11.477  10.166  70.600  1.00  0.00    -0.349 C  
BRANCH   7   8
HETATM    8  O   UNL     1     -11.929  10.724  69.354  1.00  0.00    -0.307 OA 
BRANCH   8   9
HETATM    9  C   UNL     1     -10.961  11.196  68.501  1.00  0.00    -0.220 C  
HETATM   10  O   UNL     1      -9.965  11.772  68.931  1.00  0.00    -0.151 OA 
BRANCH   9  11
HETATM   11  C   UNL     1     -11.252  10.890  67.021  1.00  0.00    -0.211 C  
HETATM   12  C   UNL     1     -11.366  12.145  66.171  1.00  0.00    -0.414 A  
HETATM   13  C   UNL     1     -12.370  13.098  66.426  1.00  0.00    -0.300 A  
HETATM   14  C   UNL     1     -12.360  14.329  65.770  1.00  0.00    -0.420 A  
HETATM   15  C   UNL     1     -11.382  14.602  64.819  1.00  0.00    -0.398 A  
HETATM   16  C   UNL     1     -10.430  13.632  64.505  1.00  0.00    -0.411 A  
HETATM   17  C   UNL     1     -10.423  12.408  65.178  1.00  0.00    -0.292 A  
HETATM   18  O   UNL     1      -9.446  11.524  64.804  1.00  0.00    -0.199 OA 
HETATM   19  C   UNL     1      -9.428  10.277  65.379  1.00  0.00    -0.232 A  
HETATM   20  C   UNL     1      -8.516   9.371  64.829  1.00  0.00    -0.180 A  
HETATM   21  C   UNL     1      -8.395   8.087  65.356  1.00  0.00    -0.161 A  
HETATM   22  C   UNL     1      -9.191   7.709  66.433  1.00  0.00    -0.223 A  
HETATM   23  C   UNL     1     -10.118   8.607  66.971  1.00  0.00    -0.342 A  
HETATM   24  C   UNL     1     -10.245   9.908  66.452  1.00  0.00    -0.292 A  
ENDBRANCH   9  11
ENDBRANCH   8   9
ENDBRANCH   7   8
ENDBRANCH   6   7
ENDBRANCH   4   6
BRANCH   4  25
HETATM   25  C   UNL     1     -11.322   6.416  71.054  1.00  0.00    -0.328 C  
HETATM   26  C   UNL     1     -11.326   6.270  69.533  1.00  0.00    -0.475 C  
HETATM   27  C   UNL     1     -10.577   5.208  71.651  1.00  0.00    -0.226 C  
ENDBRANCH   4  25
ENDBRANCH   2   4
TORSDOF 7
ENDMDL
MODEL       71
REMARK 921   NORMALIZED FREE ENERGY PREDICTED BY IDOCK:   -5.26 KCAL/MOL
REMARK 922        TOTAL FREE ENERGY PREDICTED BY IDOCK:   -8.59 KCAL/MOL
REMARK 923 INTER-LIGAND FREE ENERGY PREDICTED BY IDOCK:   -6.86 KCAL/MOL
REMARK 924 INTRA-LIGAND FREE ENERGY PREDICTED BY IDOCK:   -1.73 KCAL/MOL
REMARK 927      BINDING AFFINITY PREDICTED BY RF-SCORE:    0.00 PKD
ROOT
HETATM    1  C   UNL     1      -8.983   6.909  72.046  1.00  0.00    -0.136 C  
HETATM    2  C   UNL     1      -9.260   8.279  71.415  1.00  0.00    -0.169 C  
HETATM    3  C   UNL     1      -7.973   8.992  71.001  1.00  0.00    -0.186 C  
ENDROOT
BRANCH   2   4
HETATM    4  N   UNL     1     -10.350   8.282  70.267  1.00  0.00    -0.204 N  
HETATM    5  C   UNL     1     -11.744   8.082  70.891  1.00  0.00    -0.251 C  
BRANCH   4   6
HETATM    6  C   UNL     1     -10.350   9.701  69.574  1.00  0.00    -0.221 C  
BRANCH   6   7
HETATM    7  C   UNL     1     -11.639  10.523  69.692  1.00  0.00    -0.271 C  
BRANCH   7   8
HETATM    8  O   UNL     1     -11.817  11.310  68.502  1.00  0.00    -0.438 OA 
BRANCH   8   9
HETATM    9  C   UNL     1     -11.333  12.596  68.534  1.00  0.00    -0.296 C  
HETATM   10  O   UNL     1     -11.586  13.344  69.475  1.00  0.00    -0.281 OA 
BRANCH   9  11
HETATM   11  C   UNL     1     -10.447  12.943  67.324  1.00  0.00    -0.236 C  
HETATM   12  C   UNL     1      -9.083  12.275  67.383  1.00  0.00    -0.184 A  
HETATM   13  C   UNL     1      -8.187  12.557  68.431  1.00  0.00    -0.136 A  
HETATM   14  C   UNL     1      -7.019  11.810  68.585  1.00  0.00    -0.093 A  
HETATM   15  C   UNL     1      -6.708  10.812  67.666  1.00  0.00    -0.069 A  
HETATM   16  C   UNL     1      -7.552  10.580  66.580  1.00  0.00    -0.120 A  
HETATM   17  C   UNL     1      -8.734  11.310  66.439  1.00  0.00    -0.180 A  
HETATM   18  O   UNL     1      -9.499  11.005  65.344  1.00  0.00    -0.205 OA 
HETATM   19  C   UNL     1     -10.638  11.735  65.111  1.00  0.00    -0.283 A  
HETATM   20  C   UNL     1     -11.275  11.489  63.891  1.00  0.00    -0.439 A  
HETATM   21  C   UNL     1     -12.455  12.153  63.566  1.00  0.00    -0.666 A  
HETATM   22  C   UNL     1     -12.997  13.069  64.463  1.00  0.00    -0.107 A  
HETATM   23  C   UNL     1     -12.351  13.332  65.674  1.00  0.00    -0.521 A  
HETATM   24  C   UNL     1     -11.163  12.663  66.017  1.00  0.00    -0.345 A  
ENDBRANCH   9  11
ENDBRANCH   8   9
ENDBRANCH   7   8
ENDBRANCH   6   7
ENDBRANCH   4   6
BRANCH   4  25
HETATM   25  C   UNL     1     -10.091   7.228  69.089  1.00  0.00    -0.183 C  
HETATM   26  C   UNL     1     -11.098   6.080  69.042  1.00  0.00    -0.377 C  
HETATM   27  C   UNL     1     -10.052   7.890  67.700  1.00  0.00    -0.262 C  
ENDBRANCH   4  25
ENDBRANCH   2   4
TORSDOF 7
ENDMDL
MODEL       72
REMARK 921   NORMALIZED FREE ENERGY PREDICTED BY IDOCK:   -5.24 KCAL/MOL
REMARK 922        TOTAL FREE ENERGY PREDICTED BY IDOCK:   -8.58 KCAL/MOL
REMARK 923 INTER-LIGAND FREE ENERGY PREDICTED BY IDOCK:   -7.79 KCAL/MOL
REMARK 924 INTRA-LIGAND FREE ENERGY PREDICTED BY IDOCK:   -0.78 KCAL/MOL
REMARK 927      BINDING AFFINITY PREDICTED BY RF-SCORE:    0.00 PKD
ROOT
HETATM    1  C   UNL     1     -11.348   6.209  69.771  1.00  0.00    -0.452 C  
HETATM    2  C   UNL     1     -10.192   7.023  69.179  1.00  0.00    -0.187 C  
HETATM    3  C   UNL     1      -8.952   6.994  70.072  1.00  0.00    -0.142 C  
ENDROOT
BRANCH   2   4
HETATM    4  N   UNL     1      -9.855   6.708  67.664  1.00  0.00    -0.123 N  
HETATM    5  C   UNL     1     -11.159   6.393  66.910  1.00  0.00    -0.272 C  
BRANCH   4   6
HETATM    6  C   UNL     1      -9.237   8.003  67.004  1.00  0.00    -0.147 C  
BRANCH   6   7
HETATM    7  C   UNL     1     -10.226   9.092  66.574  1.00  0.00    -0.252 C  
BRANCH   7   8
HETATM    8  O   UNL     1     -10.643   9.845  67.726  1.00  0.00    -0.226 OA 
BRANCH   8   9
HETATM    9  C   UNL     1     -10.445  11.204  67.682  1.00  0.00    -0.196 C  
HETATM   10  O   UNL     1      -9.319  11.683  67.787  1.00  0.00    -0.169 OA 
BRANCH   9  11
HETATM   11  C   UNL     1     -11.741  12.002  67.455  1.00  0.00    -0.352 C  
HETATM   12  C   UNL     1     -11.929  13.120  68.466  1.00  0.00    -0.324 A  
HETATM   13  C   UNL     1     -12.054  12.836  69.839  1.00  0.00    -0.329 A  
HETATM   14  C   UNL     1     -12.041  13.865  70.780  1.00  0.00    -0.404 A  
HETATM   15  C   UNL     1     -11.955  15.190  70.359  1.00  0.00    -0.364 A  
HETATM   16  C   UNL     1     -11.909  15.482  68.996  1.00  0.00    -0.373 A  
HETATM   17  C   UNL     1     -11.898  14.452  68.054  1.00  0.00    -0.325 A  
HETATM   18  O   UNL     1     -11.846  14.840  66.741  1.00  0.00    -0.353 OA 
HETATM   19  C   UNL     1     -11.902  13.876  65.765  1.00  0.00    -0.378 A  
HETATM   20  C   UNL     1     -12.018  14.350  64.454  1.00  0.00    -0.471 A  
HETATM   21  C   UNL     1     -12.053  13.458  63.385  1.00  0.00    -0.437 A  
HETATM   22  C   UNL     1     -11.975  12.090  63.628  1.00  0.00    -0.612 A  
HETATM   23  C   UNL     1     -11.880  11.614  64.938  1.00  0.00    -0.018 A  
HETATM   24  C   UNL     1     -11.837  12.504  66.026  1.00  0.00    -0.478 A  
ENDBRANCH   9  11
ENDBRANCH   8   9
ENDBRANCH   7   8
ENDBRANCH   6   7
ENDBRANCH   4   6
BRANCH   4  25
HETATM   25  C   UNL     1      -8.768   5.553  67.442  1.00  0.00    -0.107 C  
HETATM   26  C   UNL     1      -9.364   4.159  67.251  1.00  0.00    -0.200 C  
HETATM   27  C   UNL     1      -7.831   5.841  66.254  1.00  0.00    -0.101 C  
ENDBRANCH   4  25
ENDBRANCH   2   4
TORSDOF 7
ENDMDL
MODEL       73
REMARK 921   NORMALIZED FREE ENERGY PREDICTED BY IDOCK:   -5.24 KCAL/MOL
REMARK 922        TOTAL FREE ENERGY PREDICTED BY IDOCK:   -8.57 KCAL/MOL
REMARK 923 INTER-LIGAND FREE ENERGY PREDICTED BY IDOCK:   -7.41 KCAL/MOL
REMARK 924 INTRA-LIGAND FREE ENERGY PREDICTED BY IDOCK:   -1.16 KCAL/MOL
REMARK 927      BINDING AFFINITY PREDICTED BY RF-SCORE:    0.00 PKD
ROOT
HETATM    1  C   UNL     1     -12.231  15.615  64.326  1.00  0.00    -0.012 C  
HETATM    2  C   UNL     1     -10.888  14.933  64.611  1.00  0.00    -0.275 C  
HETATM    3  C   UNL     1     -10.093  15.656  65.698  1.00  0.00    -0.395 C  
ENDROOT
BRANCH   2   4
HETATM    4  N   UNL     1     -10.967  13.371  64.857  1.00  0.00    -0.325 N  
HETATM    5  C   UNL     1      -9.695  12.907  65.589  1.00  0.00    -0.105 C  
BRANCH   4   6
HETATM    6  C   UNL     1     -12.189  13.071  65.811  1.00  0.00    -0.453 C  
BRANCH   6   7
HETATM    7  C   UNL     1     -11.885  12.994  67.312  1.00  0.00    -0.363 C  
BRANCH   7   8
HETATM    8  O   UNL     1     -12.061  11.642  67.769  1.00  0.00    -0.613 OA 
BRANCH   8   9
HETATM    9  C   UNL     1     -11.011  11.080  68.455  1.00  0.00    -0.228 C  
HETATM   10  O   UNL     1     -10.176  11.783  69.020  1.00  0.00    -0.145 OA 
BRANCH   9  11
HETATM   11  C   UNL     1     -11.039   9.542  68.459  1.00  0.00    -0.035 C  
HETATM   12  C   UNL     1      -9.924   8.930  67.627  1.00  0.00    -0.248 A  
HETATM   13  C   UNL     1      -9.844   9.171  66.242  1.00  0.00    -0.359 A  
HETATM   14  C   UNL     1      -8.724   8.765  65.517  1.00  0.00    -0.217 A  
HETATM   15  C   UNL     1      -7.698   8.071  66.153  1.00  0.00    -0.087 A  
HETATM   16  C   UNL     1      -7.807   7.761  67.509  1.00  0.00    -0.122 A  
HETATM   17  C   UNL     1      -8.916   8.188  68.241  1.00  0.00    -0.136 A  
HETATM   18  O   UNL     1      -8.929   7.840  69.567  1.00  0.00    -0.142 OA 
HETATM   19  C   UNL     1     -10.025   8.170  70.325  1.00  0.00    -0.189 A  
HETATM   20  C   UNL     1     -10.048   7.637  71.618  1.00  0.00    -0.212 A  
HETATM   21  C   UNL     1     -11.099   7.932  72.482  1.00  0.00    -0.423 A  
HETATM   22  C   UNL     1     -12.130   8.760  72.052  1.00  0.00    -0.447 A  
HETATM   23  C   UNL     1     -12.120   9.278  70.753  1.00  0.00    -0.231 A  
HETATM   24  C   UNL     1     -11.061   8.993  69.873  1.00  0.00    -0.155 A  
ENDBRANCH   9  11
ENDBRANCH   8   9
ENDBRANCH   7   8
ENDBRANCH   6   7
ENDBRANCH   4   6
BRANCH   4  25
HETATM   25  C   UNL     1     -11.225  12.493  63.542  1.00  0.00    -0.462 C  
HETATM   26  C   UNL     1     -10.256  11.325  63.367  1.00  0.00    -0.454 C  
HETATM   27  C   UNL     1     -12.660  11.941  63.469  1.00  0.00    -0.579 C  
ENDBRANCH   4  25
ENDBRANCH   2   4
TORSDOF 7
ENDMDL
MODEL       74
REMARK 921   NORMALIZED FREE ENERGY PREDICTED BY IDOCK:   -5.23 KCAL/MOL
REMARK 922        TOTAL FREE ENERGY PREDICTED BY IDOCK:   -8.55 KCAL/MOL
REMARK 923 INTER-LIGAND FREE ENERGY PREDICTED BY IDOCK:   -7.65 KCAL/MOL
REMARK 924 INTRA-LIGAND FREE ENERGY PREDICTED BY IDOCK:   -0.91 KCAL/MOL
REMARK 927      BINDING AFFINITY PREDICTED BY RF-SCORE:    0.00 PKD
ROOT
HETATM    1  C   UNL     1     -13.252   9.895  72.018  1.00  0.00    -0.555 C  
HETATM    2  C   UNL     1     -12.800   8.431  71.965  1.00  0.00    -0.354 C  
HETATM    3  C   UNL     1     -13.926   7.496  71.525  1.00  0.00    -0.522 C  
ENDROOT
BRANCH   2   4
HETATM    4  N   UNL     1     -11.453   8.173  71.174  1.00  0.00    -0.272 N  
HETATM    5  C   UNL     1     -11.769   7.428  69.864  1.00  0.00     0.163 C  
BRANCH   4   6
HETATM    6  C   UNL     1     -10.825   9.566  70.776  1.00  0.00    -0.318 C  
BRANCH   6   7
HETATM    7  C   UNL     1     -11.185  10.111  69.389  1.00  0.00    -0.215 C  
BRANCH   7   8
HETATM    8  O   UNL     1     -10.403  11.287  69.117  1.00  0.00    -0.202 OA 
BRANCH   8   9
HETATM    9  C   UNL     1      -9.690  11.296  67.943  1.00  0.00    -0.177 C  
HETATM   10  O   UNL     1      -8.546  11.741  67.901  1.00  0.00    -0.142 OA 
BRANCH   9  11
HETATM   11  C   UNL     1     -10.454  10.673  66.761  1.00  0.00    -0.303 C  
HETATM   12  C   UNL     1     -11.059  11.715  65.836  1.00  0.00    -0.320 A  
HETATM   13  C   UNL     1     -12.031  12.618  66.306  1.00  0.00    -0.439 A  
HETATM   14  C   UNL     1     -12.449  13.686  65.513  1.00  0.00    -0.544 A  
HETATM   15  C   UNL     1     -11.941  13.835  64.226  1.00  0.00    -0.481 A  
HETATM   16  C   UNL     1     -11.036  12.900  63.724  1.00  0.00    -0.392 A  
HETATM   17  C   UNL     1     -10.599  11.844  64.526  1.00  0.00    -0.311 A  
HETATM   18  O   UNL     1      -9.705  10.981  63.947  1.00  0.00    -0.241 OA 
HETATM   19  C   UNL     1      -9.290   9.883  64.658  1.00  0.00    -0.277 A  
HETATM   20  C   UNL     1      -8.518   8.959  63.948  1.00  0.00    -0.147 A  
HETATM   21  C   UNL     1      -8.020   7.823  64.583  1.00  0.00    -0.136 A  
HETATM   22  C   UNL     1      -8.298   7.611  65.929  1.00  0.00    -0.140 A  
HETATM   23  C   UNL     1      -9.087   8.524  66.636  1.00  0.00    -0.203 A  
HETATM   24  C   UNL     1      -9.590   9.677  66.009  1.00  0.00    -0.305 A  
ENDBRANCH   9  11
ENDBRANCH   8   9
ENDBRANCH   7   8
ENDBRANCH   6   7
ENDBRANCH   4   6
BRANCH   4  25
HETATM   25  C   UNL     1     -10.316   7.412  72.008  1.00  0.00    -0.193 C  
HETATM   26  C   UNL     1     -10.562   7.376  73.515  1.00  0.00    -0.388 C  
HETATM   27  C   UNL     1     -10.090   5.969  71.523  1.00  0.00    -0.232 C  
ENDBRANCH   4  25
ENDBRANCH   2   4
TORSDOF 7
ENDMDL
MODEL       75
REMARK 921   NORMALIZED FREE ENERGY PREDICTED BY IDOCK:   -5.19 KCAL/MOL
REMARK 922        TOTAL FREE ENERGY PREDICTED BY IDOCK:   -8.49 KCAL/MOL
REMARK 923 INTER-LIGAND FREE ENERGY PREDICTED BY IDOCK:   -7.63 KCAL/MOL
REMARK 924 INTRA-LIGAND FREE ENERGY PREDICTED BY IDOCK:   -0.87 KCAL/MOL
REMARK 927      BINDING AFFINITY PREDICTED BY RF-SCORE:    0.00 PKD
ROOT
HETATM    1  C   UNL     1     -13.714   7.221  71.557  1.00  0.00    -0.451 C  
HETATM    2  C   UNL     1     -12.328   7.845  71.352  1.00  0.00    -0.312 C  
HETATM    3  C   UNL     1     -12.272   9.293  71.839  1.00  0.00    -0.448 C  
ENDROOT
BRANCH   2   4
HETATM    4  N   UNL     1     -11.116   6.978  71.886  1.00  0.00    -0.237 N  
HETATM    5  C   UNL     1     -11.636   5.601  72.337  1.00  0.00    -0.221 C  
BRANCH   4   6
HETATM    6  C   UNL     1     -10.110   6.728  70.694  1.00  0.00    -0.187 C  
BRANCH   6   7
HETATM    7  C   UNL     1     -10.628   7.031  69.284  1.00  0.00    -0.224 C  
BRANCH   7   8
HETATM    8  O   UNL     1      -9.824   8.064  68.689  1.00  0.00    -0.165 OA 
BRANCH   8   9
HETATM    9  C   UNL     1     -10.048   8.333  67.360  1.00  0.00    -0.233 C  
HETATM   10  O   UNL     1     -10.671   7.547  66.651  1.00  0.00    -0.239 OA 
BRANCH   9  11
HETATM   11  C   UNL     1      -9.483   9.692  66.910  1.00  0.00    -0.198 C  
HETATM   12  C   UNL     1      -9.187   9.743  65.420  1.00  0.00    -0.282 A  
HETATM   13  C   UNL     1      -8.235   8.880  64.845  1.00  0.00    -0.161 A  
HETATM   14  C   UNL     1      -8.098   8.798  63.460  1.00  0.00    -0.170 A  
HETATM   15  C   UNL     1      -8.870   9.612  62.636  1.00  0.00    -0.254 A  
HETATM   16  C   UNL     1      -9.760  10.526  63.202  1.00  0.00    -0.351 A  
HETATM   17  C   UNL     1      -9.916  10.591  64.588  1.00  0.00    -0.347 A  
HETATM   18  O   UNL     1     -10.818  11.515  65.047  1.00  0.00    -0.296 OA 
HETATM   19  C   UNL     1     -10.966  11.677  66.402  1.00  0.00    -0.295 A  
HETATM   20  C   UNL     1     -11.770  12.750  66.798  1.00  0.00    -0.459 A  
HETATM   21  C   UNL     1     -12.012  12.986  68.149  1.00  0.00    -0.322 A  
HETATM   22  C   UNL     1     -11.445  12.150  69.106  1.00  0.00    -0.352 A  
HETATM   23  C   UNL     1     -10.624  11.089  68.712  1.00  0.00    -0.232 A  
HETATM   24  C   UNL     1     -10.378  10.835  67.351  1.00  0.00    -0.251 A  
ENDBRANCH   9  11
ENDBRANCH   8   9
ENDBRANCH   7   8
ENDBRANCH   6   7
ENDBRANCH   4   6
BRANCH   4  25
HETATM   25  C   UNL     1     -10.249   7.671  73.041  1.00  0.00    -0.320 C  
HETATM   26  C   UNL     1     -10.056   6.806  74.286  1.00  0.00    -0.348 C  
HETATM   27  C   UNL     1      -8.861   8.123  72.551  1.00  0.00    -0.272 C  
ENDBRANCH   4  25
ENDBRANCH   2   4
TORSDOF 7
ENDMDL
MODEL       76
REMARK 921   NORMALIZED FREE ENERGY PREDICTED BY IDOCK:   -5.18 KCAL/MOL
REMARK 922        TOTAL FREE ENERGY PREDICTED BY IDOCK:   -8.49 KCAL/MOL
REMARK 923 INTER-LIGAND FREE ENERGY PREDICTED BY IDOCK:   -7.65 KCAL/MOL
REMARK 924 INTRA-LIGAND FREE ENERGY PREDICTED BY IDOCK:   -0.84 KCAL/MOL
REMARK 927      BINDING AFFINITY PREDICTED BY RF-SCORE:    0.00 PKD
ROOT
HETATM    1  C   UNL     1      -6.647   8.470  71.551  1.00  0.00    -0.070 C  
HETATM    2  C   UNL     1      -7.650   7.322  71.393  1.00  0.00    -0.083 C  
HETATM    3  C   UNL     1      -7.621   6.364  72.584  1.00  0.00    -0.103 C  
ENDROOT
BRANCH   2   4
HETATM    4  N   UNL     1      -9.121   7.764  71.007  1.00  0.00    -0.146 N  
HETATM    5  C   UNL     1      -9.630   8.787  72.040  1.00  0.00    -0.286 C  
BRANCH   4   6
HETATM    6  C   UNL     1      -9.078   8.497  69.609  1.00  0.00    -0.149 C  
BRANCH   6   7
HETATM    7  C   UNL     1      -9.559   9.952  69.582  1.00  0.00    -0.227 C  
BRANCH   7   8
HETATM    8  O   UNL     1     -10.320  10.184  68.383  1.00  0.00    -0.167 OA 
BRANCH   8   9
HETATM    9  C   UNL     1     -10.201  11.426  67.806  1.00  0.00    -0.181 C  
HETATM   10  O   UNL     1      -9.103  11.869  67.479  1.00  0.00    -0.169 OA 
BRANCH   9  11
HETATM   11  C   UNL     1     -11.553  12.131  67.596  1.00  0.00    -0.413 C  
HETATM   12  C   UNL     1     -11.761  13.298  68.547  1.00  0.00    -0.388 A  
HETATM   13  C   UNL     1     -11.805  13.094  69.939  1.00  0.00    -0.378 A  
HETATM   14  C   UNL     1     -11.811  14.180  70.814  1.00  0.00    -0.313 A  
HETATM   15  C   UNL     1     -11.825  15.478  70.311  1.00  0.00    -0.381 A  
HETATM   16  C   UNL     1     -11.861  15.686  68.932  1.00  0.00    -0.368 A  
HETATM   17  C   UNL     1     -11.831  14.601  68.055  1.00  0.00    -0.311 A  
HETATM   18  O   UNL     1     -11.863  14.908  66.720  1.00  0.00    -0.304 OA 
HETATM   19  C   UNL     1     -11.906  13.883  65.807  1.00  0.00    -0.378 A  
HETATM   20  C   UNL     1     -12.111  14.266  64.478  1.00  0.00    -0.499 A  
HETATM   21  C   UNL     1     -12.141  13.308  63.467  1.00  0.00    -0.550 A  
HETATM   22  C   UNL     1     -11.970  11.965  63.787  1.00  0.00    -0.547 A  
HETATM   23  C   UNL     1     -11.785  11.579  65.118  1.00  0.00     0.081 A  
HETATM   24  C   UNL     1     -11.745  12.536  66.147  1.00  0.00    -0.466 A  
ENDBRANCH   9  11
ENDBRANCH   8   9
ENDBRANCH   7   8
ENDBRANCH   6   7
ENDBRANCH   4   6
BRANCH   4  25
HETATM   25  C   UNL     1     -10.162   6.560  70.829  1.00  0.00    -0.187 C  
HETATM   26  C   UNL     1     -11.143   6.401  71.990  1.00  0.00    -0.306 C  
HETATM   27  C   UNL     1     -10.975   6.667  69.526  1.00  0.00    -0.367 C  
ENDBRANCH   4  25
ENDBRANCH   2   4
TORSDOF 7
ENDMDL
MODEL       77
REMARK 921   NORMALIZED FREE ENERGY PREDICTED BY IDOCK:   -5.18 KCAL/MOL
REMARK 922        TOTAL FREE ENERGY PREDICTED BY IDOCK:   -8.49 KCAL/MOL
REMARK 923 INTER-LIGAND FREE ENERGY PREDICTED BY IDOCK:   -7.63 KCAL/MOL
REMARK 924 INTRA-LIGAND FREE ENERGY PREDICTED BY IDOCK:   -0.86 KCAL/MOL
REMARK 927      BINDING AFFINITY PREDICTED BY RF-SCORE:    0.00 PKD
ROOT
HETATM    1  C   UNL     1      -7.968  14.194  67.290  1.00  0.00    -0.171 C  
HETATM    2  C   UNL     1      -9.364  14.696  66.902  1.00  0.00    -0.243 C  
HETATM    3  C   UNL     1      -9.301  15.919  65.986  1.00  0.00    -0.385 C  
ENDROOT
BRANCH   2   4
HETATM    4  N   UNL     1     -10.352  13.584  66.361  1.00  0.00    -0.283 N  
HETATM    5  C   UNL     1     -10.356  13.614  64.822  1.00  0.00    -0.392 C  
BRANCH   4   6
HETATM    6  C   UNL     1      -9.806  12.167  66.797  1.00  0.00    -0.206 C  
BRANCH   6   7
HETATM    7  C   UNL     1     -10.479  11.515  68.009  1.00  0.00    -0.189 C  
BRANCH   7   8
HETATM    8  O   UNL     1      -9.664  10.430  68.485  1.00  0.00    -0.157 OA 
BRANCH   8   9
HETATM    9  C   UNL     1     -10.253   9.189  68.533  1.00  0.00    -0.198 C  
HETATM   10  O   UNL     1     -10.804   8.712  67.545  1.00  0.00    -0.202 OA 
BRANCH   9  11
HETATM   11  C   UNL     1     -10.105   8.497  69.900  1.00  0.00    -0.195 C  
HETATM   12  C   UNL     1     -11.344   8.635  70.768  1.00  0.00    -0.299 A  
HETATM   13  C   UNL     1     -11.795   9.903  71.183  1.00  0.00    -0.472 A  
HETATM   14  C   UNL     1     -13.028  10.042  71.820  1.00  0.00    -0.560 A  
HETATM   15  C   UNL     1     -13.799   8.917  72.095  1.00  0.00    -0.531 A  
HETATM   16  C   UNL     1     -13.323   7.650  71.756  1.00  0.00    -0.364 A  
HETATM   17  C   UNL     1     -12.100   7.511  71.096  1.00  0.00    -0.307 A  
HETATM   18  O   UNL     1     -11.722   6.227  70.800  1.00  0.00    -0.340 OA 
HETATM   19  C   UNL     1     -10.498   6.019  70.215  1.00  0.00    -0.242 A  
HETATM   20  C   UNL     1     -10.103   4.682  70.099  1.00  0.00    -0.283 A  
HETATM   21  C   UNL     1      -8.892   4.356  69.493  1.00  0.00    -0.133 A  
HETATM   22  C   UNL     1      -8.073   5.369  69.005  1.00  0.00    -0.094 A  
HETATM   23  C   UNL     1      -8.456   6.707  69.138  1.00  0.00    -0.124 A  
HETATM   24  C   UNL     1      -9.679   7.049  69.741  1.00  0.00    -0.168 A  
ENDBRANCH   9  11
ENDBRANCH   8   9
ENDBRANCH   7   8
ENDBRANCH   6   7
ENDBRANCH   4   6
BRANCH   4  25
HETATM   25  C   UNL     1     -11.842  13.666  66.942  1.00  0.00    -0.411 C  
HETATM   26  C   UNL     1     -12.022  14.685  68.067  1.00  0.00    -0.292 C  
HETATM   27  C   UNL     1     -12.888  13.964  65.853  1.00  0.00    -0.387 C  
ENDBRANCH   4  25
ENDBRANCH   2   4
TORSDOF 7
ENDMDL
MODEL       78
REMARK 921   NORMALIZED FREE ENERGY PREDICTED BY IDOCK:   -5.18 KCAL/MOL
REMARK 922        TOTAL FREE ENERGY PREDICTED BY IDOCK:   -8.48 KCAL/MOL
REMARK 923 INTER-LIGAND FREE ENERGY PREDICTED BY IDOCK:   -7.39 KCAL/MOL
REMARK 924 INTRA-LIGAND FREE ENERGY PREDICTED BY IDOCK:   -1.09 KCAL/MOL
REMARK 927      BINDING AFFINITY PREDICTED BY RF-SCORE:    0.00 PKD
ROOT
HETATM    1  C   UNL     1      -9.039  19.443  68.410  1.00  0.00    -0.410 C  
HETATM    2  C   UNL     1      -7.529  19.448  68.141  1.00  0.00    -0.293 C  
HETATM    3  C   UNL     1      -6.720  19.723  69.409  1.00  0.00    -0.382 C  
ENDROOT
BRANCH   2   4
HETATM    4  N   UNL     1      -6.986  18.199  67.334  1.00  0.00    -0.195 N  
HETATM    5  C   UNL     1      -5.732  17.648  68.037  1.00  0.00    -0.150 C  
BRANCH   4   6
HETATM    6  C   UNL     1      -8.079  17.059  67.372  1.00  0.00    -0.176 C  
BRANCH   6   7
HETATM    7  C   UNL     1      -7.578  15.638  67.658  1.00  0.00    -0.158 C  
BRANCH   7   8
HETATM    8  O   UNL     1      -8.326  15.077  68.751  1.00  0.00    -0.155 OA 
BRANCH   8   9
HETATM    9  C   UNL     1      -9.582  14.600  68.460  1.00  0.00    -0.221 C  
HETATM   10  O   UNL     1     -10.571  15.020  69.054  1.00  0.00    -0.229 OA 
BRANCH   9  11
HETATM   11  C   UNL     1      -9.590  13.559  67.326  1.00  0.00    -0.235 C  
HETATM   12  C   UNL     1      -9.759  12.137  67.834  1.00  0.00    -0.200 A  
HETATM   13  C   UNL     1      -8.802  11.560  68.689  1.00  0.00    -0.108 A  
HETATM   14  C   UNL     1      -9.047  10.330  69.299  1.00  0.00    -0.206 A  
HETATM   15  C   UNL     1     -10.225   9.640  69.023  1.00  0.00    -0.209 A  
HETATM   16  C   UNL     1     -11.142  10.170  68.116  1.00  0.00    -0.290 A  
HETATM   17  C   UNL     1     -10.909  11.413  67.523  1.00  0.00    -0.244 A  
HETATM   18  O   UNL     1     -11.871  11.851  66.652  1.00  0.00    -0.591 OA 
HETATM   19  C   UNL     1     -11.668  13.033  65.983  1.00  0.00    -0.393 A  
HETATM   20  C   UNL     1     -12.602  13.332  64.987  1.00  0.00    -0.483 A  
HETATM   21  C   UNL     1     -12.506  14.521  64.267  1.00  0.00    -0.293 A  
HETATM   22  C   UNL     1     -11.472  15.410  64.543  1.00  0.00    -0.314 A  
HETATM   23  C   UNL     1     -10.526  15.103  65.525  1.00  0.00    -0.400 A  
HETATM   24  C   UNL     1     -10.615  13.909  66.263  1.00  0.00    -0.289 A  
ENDBRANCH   9  11
ENDBRANCH   8   9
ENDBRANCH   7   8
ENDBRANCH   6   7
ENDBRANCH   4   6
BRANCH   4  25
HETATM   25  C   UNL     1      -6.703  18.471  65.782  1.00  0.00    -0.281 C  
HETATM   26  C   UNL     1      -6.841  19.935  65.365  1.00  0.00    -0.330 C  
HETATM   27  C   UNL     1      -5.316  17.974  65.336  1.00  0.00    -0.159 C  
ENDBRANCH   4  25
ENDBRANCH   2   4
TORSDOF 7
ENDMDL
MODEL       79
REMARK 921   NORMALIZED FREE ENERGY PREDICTED BY IDOCK:   -5.16 KCAL/MOL
REMARK 922        TOTAL FREE ENERGY PREDICTED BY IDOCK:   -8.45 KCAL/MOL
REMARK 923 INTER-LIGAND FREE ENERGY PREDICTED BY IDOCK:   -7.33 KCAL/MOL
REMARK 924 INTRA-LIGAND FREE ENERGY PREDICTED BY IDOCK:   -1.13 KCAL/MOL
REMARK 927      BINDING AFFINITY PREDICTED BY RF-SCORE:    0.00 PKD
ROOT
HETATM    1  C   UNL     1      -6.906  16.934  68.851  1.00  0.00    -0.209 C  
HETATM    2  C   UNL     1      -7.740  17.004  67.566  1.00  0.00    -0.170 C  
HETATM    3  C   UNL     1      -6.868  16.969  66.311  1.00  0.00    -0.177 C  
ENDROOT
BRANCH   2   4
HETATM    4  N   UNL     1      -8.949  15.983  67.494  1.00  0.00    -0.192 N  
HETATM    5  C   UNL     1      -9.251  15.660  66.019  1.00  0.00    -0.339 C  
BRANCH   4   6
HETATM    6  C   UNL     1      -8.511  14.632  68.186  1.00  0.00    -0.156 C  
BRANCH   6   7
HETATM    7  C   UNL     1      -8.773  13.343  67.400  1.00  0.00    -0.209 C  
BRANCH   7   8
HETATM    8  O   UNL     1      -9.311  12.343  68.283  1.00  0.00    -0.207 OA 
BRANCH   8   9
HETATM    9  C   UNL     1     -10.679  12.305  68.412  1.00  0.00    -0.234 C  
HETATM   10  O   UNL     1     -11.252  12.967  69.273  1.00  0.00    -0.243 OA 
BRANCH   9  11
HETATM   11  C   UNL     1     -11.364  11.405  67.368  1.00  0.00    -0.359 C  
HETATM   12  C   UNL     1     -11.607  12.117  66.047  1.00  0.00    -0.420 A  
HETATM   13  C   UNL     1     -12.443  13.248  65.982  1.00  0.00    -0.388 A  
HETATM   14  C   UNL     1     -12.519  14.006  64.814  1.00  0.00    -0.392 A  
HETATM   15  C   UNL     1     -11.804  13.616  63.685  1.00  0.00    -0.304 A  
HETATM   16  C   UNL     1     -11.036  12.452  63.719  1.00  0.00    -0.501 A  
HETATM   17  C   UNL     1     -10.939  11.706  64.895  1.00  0.00    -0.284 A  
HETATM   18  O   UNL     1     -10.156  10.584  64.830  1.00  0.00    -0.318 OA 
HETATM   19  C   UNL     1     -10.076   9.769  65.932  1.00  0.00    -0.243 A  
HETATM   20  C   UNL     1      -9.402   8.559  65.742  1.00  0.00    -0.187 A  
HETATM   21  C   UNL     1      -9.238   7.671  66.802  1.00  0.00    -0.197 A  
HETATM   22  C   UNL     1      -9.751   7.994  68.055  1.00  0.00    -0.184 A  
HETATM   23  C   UNL     1     -10.442   9.194  68.242  1.00  0.00    -0.254 A  
HETATM   24  C   UNL     1     -10.609  10.102  67.181  1.00  0.00    -0.308 A  
ENDBRANCH   9  11
ENDBRANCH   8   9
ENDBRANCH   7   8
ENDBRANCH   6   7
ENDBRANCH   4   6
BRANCH   4  25
HETATM   25  C   UNL     1     -10.273  16.450  68.264  1.00  0.00    -0.255 C  
HETATM   26  C   UNL     1     -10.289  16.102  69.752  1.00  0.00    -0.244 C  
HETATM   27  C   UNL     1     -10.541  17.960  68.121  1.00  0.00    -0.351 C  
ENDBRANCH   4  25
ENDBRANCH   2   4
TORSDOF 7
ENDMDL
MODEL       80
REMARK 921   NORMALIZED FREE ENERGY PREDICTED BY IDOCK:   -5.13 KCAL/MOL
REMARK 922        TOTAL FREE ENERGY PREDICTED BY IDOCK:   -8.42 KCAL/MOL
REMARK 923 INTER-LIGAND FREE ENERGY PREDICTED BY IDOCK:   -7.33 KCAL/MOL
REMARK 924 INTRA-LIGAND FREE ENERGY PREDICTED BY IDOCK:   -1.09 KCAL/MOL
REMARK 927      BINDING AFFINITY PREDICTED BY RF-SCORE:    0.00 PKD
ROOT
HETATM    1  C   UNL     1     -10.677   8.910  70.362  1.00  0.00    -0.261 C  
HETATM    2  C   UNL     1     -10.316   7.523  69.817  1.00  0.00    -0.221 C  
HETATM    3  C   UNL     1     -11.495   6.553  69.885  1.00  0.00    -0.467 C  
ENDROOT
BRANCH   2   4
HETATM    4  N   UNL     1      -9.610   7.521  68.400  1.00  0.00    -0.148 N  
HETATM    5  C   UNL     1     -10.676   7.353  67.303  1.00  0.00    -0.308 C  
BRANCH   4   6
HETATM    6  C   UNL     1      -8.927   8.927  68.173  1.00  0.00    -0.137 C  
BRANCH   6   7
HETATM    7  C   UNL     1      -9.463   9.771  67.011  1.00  0.00    -0.157 C  
BRANCH   7   8
HETATM    8  O   UNL     1      -9.698  11.116  67.462  1.00  0.00    -0.174 OA 
BRANCH   8   9
HETATM    9  C   UNL     1      -8.845  12.084  66.988  1.00  0.00    -0.197 C  
HETATM   10  O   UNL     1      -7.631  11.904  66.969  1.00  0.00    -0.151 OA 
BRANCH   9  11
HETATM   11  C   UNL     1      -9.574  13.339  66.475  1.00  0.00    -0.267 C  
HETATM   12  C   UNL     1     -10.594  13.026  65.393  1.00  0.00    -0.307 A  
HETATM   13  C   UNL     1     -10.194  12.457  64.169  1.00  0.00    -0.377 A  
HETATM   14  C   UNL     1     -11.144  12.002  63.256  1.00  0.00    -0.400 A  
HETATM   15  C   UNL     1     -12.501  12.155  63.529  1.00  0.00    -0.666 A  
HETATM   16  C   UNL     1     -12.904  12.789  64.705  1.00  0.00    -0.374 A  
HETATM   17  C   UNL     1     -11.954  13.223  65.632  1.00  0.00    -0.412 A  
HETATM   18  O   UNL     1     -12.448  13.827  66.758  1.00  0.00    -0.366 OA 
HETATM   19  C   UNL     1     -11.563  14.339  67.675  1.00  0.00    -0.368 A  
HETATM   20  C   UNL     1     -12.131  15.090  68.708  1.00  0.00    -0.215 A  
HETATM   21  C   UNL     1     -11.327  15.630  69.709  1.00  0.00    -0.327 A  
HETATM   22  C   UNL     1      -9.952  15.421  69.674  1.00  0.00    -0.270 A  
HETATM   23  C   UNL     1      -9.380  14.687  68.631  1.00  0.00    -0.206 A  
HETATM   24  C   UNL     1     -10.181  14.131  67.618  1.00  0.00    -0.241 A  
ENDBRANCH   9  11
ENDBRANCH   8   9
ENDBRANCH   7   8
ENDBRANCH   6   7
ENDBRANCH   4   6
BRANCH   4  25
HETATM   25  C   UNL     1      -8.437   6.443  68.232  1.00  0.00    -0.115 C  
HETATM   26  C   UNL     1      -8.063   6.143  66.781  1.00  0.00    -0.109 C  
HETATM   27  C   UNL     1      -7.155   6.840  68.986  1.00  0.00    -0.089 C  
ENDBRANCH   4  25
ENDBRANCH   2   4
TORSDOF 7
ENDMDL
MODEL       81
REMARK 921   NORMALIZED FREE ENERGY PREDICTED BY IDOCK:   -5.13 KCAL/MOL
REMARK 922        TOTAL FREE ENERGY PREDICTED BY IDOCK:   -8.41 KCAL/MOL
REMARK 923 INTER-LIGAND FREE ENERGY PREDICTED BY IDOCK:   -7.47 KCAL/MOL
REMARK 924 INTRA-LIGAND FREE ENERGY PREDICTED BY IDOCK:   -0.94 KCAL/MOL
REMARK 927      BINDING AFFINITY PREDICTED BY RF-SCORE:    0.00 PKD
ROOT
HETATM    1  C   UNL     1      -7.752   7.485  68.085  1.00  0.00    -0.120 C  
HETATM    2  C   UNL     1      -8.426   8.818  68.431  1.00  0.00    -0.130 C  
HETATM    3  C   UNL     1      -8.413   9.097  69.934  1.00  0.00    -0.151 C  
ENDROOT
BRANCH   2   4
HETATM    4  N   UNL     1      -7.935  10.060  67.579  1.00  0.00    -0.106 N  
HETATM    5  C   UNL     1      -8.733  10.120  66.264  1.00  0.00    -0.141 C  
BRANCH   4   6
HETATM    6  C   UNL     1      -8.260  11.382  68.381  1.00  0.00    -0.151 C  
BRANCH   6   7
HETATM    7  C   UNL     1      -9.382  12.265  67.823  1.00  0.00    -0.194 C  
BRANCH   7   8
HETATM    8  O   UNL     1     -10.208  12.730  68.903  1.00  0.00    -0.127 OA 
BRANCH   8   9
HETATM    9  C   UNL     1     -11.567  12.702  68.699  1.00  0.00    -0.316 C  
HETATM   10  O   UNL     1     -12.148  11.647  68.455  1.00  0.00    -0.522 OA 
BRANCH   9  11
HETATM   11  C   UNL     1     -12.235  14.080  68.849  1.00  0.00    -0.261 C  
HETATM   12  C   UNL     1     -12.515  14.444  70.297  1.00  0.00    -0.413 A  
HETATM   13  C   UNL     1     -13.387  13.663  71.080  1.00  0.00    -0.187 A  
HETATM   14  C   UNL     1     -13.500  13.888  72.452  1.00  0.00    -0.661 A  
HETATM   15  C   UNL     1     -12.785  14.924  73.047  1.00  0.00    -0.561 A  
HETATM   16  C   UNL     1     -11.980  15.751  72.264  1.00  0.00    -0.592 A  
HETATM   17  C   UNL     1     -11.847  15.512  70.895  1.00  0.00    -0.371 A  
HETATM   18  O   UNL     1     -11.029  16.374  70.213  1.00  0.00    -0.343 OA 
HETATM   19  C   UNL     1     -10.912  16.236  68.852  1.00  0.00    -0.334 A  
HETATM   20  C   UNL     1     -10.203  17.249  68.200  1.00  0.00    -0.343 A  
HETATM   21  C   UNL     1      -9.998  17.192  66.824  1.00  0.00    -0.291 A  
HETATM   22  C   UNL     1     -10.507  16.119  66.098  1.00  0.00    -0.334 A  
HETATM   23  C   UNL     1     -11.234  15.116  66.744  1.00  0.00    -0.285 A  
HETATM   24  C   UNL     1     -11.442  15.158  68.135  1.00  0.00    -0.356 A  
ENDBRANCH   9  11
ENDBRANCH   8   9
ENDBRANCH   7   8
ENDBRANCH   6   7
ENDBRANCH   4   6
BRANCH   4  25
HETATM   25  C   UNL     1      -6.359  10.104  67.299  1.00  0.00    -0.066 C  
HETATM   26  C   UNL     1      -5.977   9.905  65.833  1.00  0.00    -0.072 C  
HETATM   27  C   UNL     1      -5.705  11.407  67.794  1.00  0.00    -0.046 C  
ENDBRANCH   4  25
ENDBRANCH   2   4
TORSDOF 7
ENDMDL
MODEL       82
REMARK 921   NORMALIZED FREE ENERGY PREDICTED BY IDOCK:   -5.13 KCAL/MOL
REMARK 922        TOTAL FREE ENERGY PREDICTED BY IDOCK:   -8.41 KCAL/MOL
REMARK 923 INTER-LIGAND FREE ENERGY PREDICTED BY IDOCK:   -7.53 KCAL/MOL
REMARK 924 INTRA-LIGAND FREE ENERGY PREDICTED BY IDOCK:   -0.88 KCAL/MOL
REMARK 927      BINDING AFFINITY PREDICTED BY RF-SCORE:    0.00 PKD
ROOT
HETATM    1  C   UNL     1     -10.622  17.092  65.836  1.00  0.00    -0.219 C  
HETATM    2  C   UNL     1      -9.935  18.014  66.850  1.00  0.00    -0.340 C  
HETATM    3  C   UNL     1     -10.790  19.234  67.192  1.00  0.00    -0.543 C  
ENDROOT
BRANCH   2   4
HETATM    4  N   UNL     1      -9.369  17.290  68.139  1.00  0.00    -0.266 N  
HETATM    5  C   UNL     1     -10.477  17.214  69.206  1.00  0.00    -0.267 C  
BRANCH   4   6
HETATM    6  C   UNL     1      -8.987  15.805  67.759  1.00  0.00    -0.176 C  
BRANCH   6   7
HETATM    7  C   UNL     1      -9.648  14.694  68.583  1.00  0.00    -0.219 C  
BRANCH   7   8
HETATM    8  O   UNL     1      -8.702  13.634  68.806  1.00  0.00    -0.075 OA 
BRANCH   8   9
HETATM    9  C   UNL     1      -8.272  12.947  67.696  1.00  0.00    -0.177 C  
HETATM   10  O   UNL     1      -7.159  13.150  67.219  1.00  0.00    -0.135 OA 
BRANCH   9  11
HETATM   11  C   UNL     1      -9.293  11.916  67.184  1.00  0.00    -0.180 C  
HETATM   12  C   UNL     1      -9.931  11.112  68.305  1.00  0.00    -0.196 A  
HETATM   13  C   UNL     1      -9.148  10.289  69.137  1.00  0.00    -0.199 A  
HETATM   14  C   UNL     1      -9.701   9.700  70.274  1.00  0.00    -0.314 A  
HETATM   15  C   UNL     1     -11.050   9.883  70.564  1.00  0.00    -0.398 A  
HETATM   16  C   UNL     1     -11.850  10.634  69.702  1.00  0.00    -0.358 A  
HETATM   17  C   UNL     1     -11.292  11.244  68.577  1.00  0.00    -0.276 A  
HETATM   18  O   UNL     1     -12.157  11.965  67.796  1.00  0.00    -0.564 OA 
HETATM   19  C   UNL     1     -11.684  12.531  66.638  1.00  0.00    -0.387 A  
HETATM   20  C   UNL     1     -12.652  13.102  65.806  1.00  0.00    -0.351 A  
HETATM   21  C   UNL     1     -12.279  13.731  64.620  1.00  0.00    -0.440 A  
HETATM   22  C   UNL     1     -10.935  13.785  64.265  1.00  0.00    -0.268 A  
HETATM   23  C   UNL     1      -9.968  13.196  65.085  1.00  0.00    -0.170 A  
HETATM   24  C   UNL     1     -10.331  12.565  66.288  1.00  0.00    -0.269 A  
ENDBRANCH   9  11
ENDBRANCH   8   9
ENDBRANCH   7   8
ENDBRANCH   6   7
ENDBRANCH   4   6
BRANCH   4  25
HETATM   25  C   UNL     1      -8.033  17.935  68.743  1.00  0.00    -0.240 C  
HETATM   26  C   UNL     1      -6.918  16.926  69.018  1.00  0.00    -0.224 C  
HETATM   27  C   UNL     1      -7.460  19.053  67.853  1.00  0.00    -0.278 C  
ENDBRANCH   4  25
ENDBRANCH   2   4
TORSDOF 7
ENDMDL
MODEL       83
REMARK 921   NORMALIZED FREE ENERGY PREDICTED BY IDOCK:   -5.12 KCAL/MOL
REMARK 922        TOTAL FREE ENERGY PREDICTED BY IDOCK:   -8.40 KCAL/MOL
REMARK 923 INTER-LIGAND FREE ENERGY PREDICTED BY IDOCK:   -7.78 KCAL/MOL
REMARK 924 INTRA-LIGAND FREE ENERGY PREDICTED BY IDOCK:   -0.62 KCAL/MOL
REMARK 927      BINDING AFFINITY PREDICTED BY RF-SCORE:    0.00 PKD
ROOT
HETATM    1  C   UNL     1      -9.054  13.732  67.091  1.00  0.00    -0.243 C  
HETATM    2  C   UNL     1     -10.235  13.941  66.136  1.00  0.00    -0.301 C  
HETATM    3  C   UNL     1      -9.997  15.105  65.173  1.00  0.00    -0.267 C  
ENDROOT
BRANCH   2   4
HETATM    4  N   UNL     1     -10.740  12.636  65.396  1.00  0.00    -0.274 N  
HETATM    5  C   UNL     1      -9.899  12.415  64.126  1.00  0.00    -0.118 C  
BRANCH   4   6
HETATM    6  C   UNL     1     -10.493  11.393  66.340  1.00  0.00    -0.254 C  
BRANCH   6   7
HETATM    7  C   UNL     1     -11.604  11.061  67.342  1.00  0.00    -0.017 C  
BRANCH   7   8
HETATM    8  O   UNL     1     -11.051  10.320  68.443  1.00  0.00    -0.253 OA 
BRANCH   8   9
HETATM    9  C   UNL     1     -11.221  10.857  69.697  1.00  0.00    -0.282 C  
HETATM   10  O   UNL     1     -11.638  12.002  69.844  1.00  0.00    -0.291 OA 
BRANCH   9  11
HETATM   11  C   UNL     1     -10.878   9.874  70.832  1.00  0.00    -0.357 C  
HETATM   12  C   UNL     1     -12.062   9.015  71.243  1.00  0.00    -0.375 A  
HETATM   13  C   UNL     1     -13.229   9.601  71.770  1.00  0.00    -0.520 A  
HETATM   14  C   UNL     1     -14.376   8.835  71.973  1.00  0.00    -0.466 A  
HETATM   15  C   UNL     1     -14.356   7.469  71.703  1.00  0.00    -0.621 A  
HETATM   16  C   UNL     1     -13.180   6.868  71.254  1.00  0.00    -0.237 A  
HETATM   17  C   UNL     1     -12.038   7.638  71.027  1.00  0.00    -0.258 A  
HETATM   18  O   UNL     1     -10.935   6.957  70.582  1.00  0.00    -0.242 OA 
HETATM   19  C   UNL     1      -9.761   7.646  70.406  1.00  0.00    -0.179 A  
HETATM   20  C   UNL     1      -8.639   6.863  70.118  1.00  0.00    -0.141 A  
HETATM   21  C   UNL     1      -7.402   7.463  69.892  1.00  0.00    -0.083 A  
HETATM   22  C   UNL     1      -7.288   8.848  69.957  1.00  0.00    -0.056 A  
HETATM   23  C   UNL     1      -8.404   9.631  70.265  1.00  0.00    -0.216 A  
HETATM   24  C   UNL     1      -9.660   9.038  70.489  1.00  0.00    -0.264 A  
ENDBRANCH   9  11
ENDBRANCH   8   9
ENDBRANCH   7   8
ENDBRANCH   6   7
ENDBRANCH   4   6
BRANCH   4  25
HETATM   25  C   UNL     1     -12.306  12.615  65.060  1.00  0.00    -0.497 C  
HETATM   26  C   UNL     1     -13.033  13.922  65.375  1.00  0.00    -0.368 C  
HETATM   27  C   UNL     1     -12.592  12.247  63.593  1.00  0.00    -0.599 C  
ENDBRANCH   4  25
ENDBRANCH   2   4
TORSDOF 7
ENDMDL
MODEL       84
REMARK 921   NORMALIZED FREE ENERGY PREDICTED BY IDOCK:   -5.12 KCAL/MOL
REMARK 922        TOTAL FREE ENERGY PREDICTED BY IDOCK:   -8.39 KCAL/MOL
REMARK 923 INTER-LIGAND FREE ENERGY PREDICTED BY IDOCK:   -7.28 KCAL/MOL
REMARK 924 INTRA-LIGAND FREE ENERGY PREDICTED BY IDOCK:   -1.12 KCAL/MOL
REMARK 927      BINDING AFFINITY PREDICTED BY RF-SCORE:    0.00 PKD
ROOT
HETATM    1  C   UNL     1     -11.954  15.111  68.752  1.00  0.00    -0.280 C  
HETATM    2  C   UNL     1     -11.347  15.291  67.356  1.00  0.00    -0.284 C  
HETATM    3  C   UNL     1     -10.415  16.501  67.285  1.00  0.00    -0.304 C  
ENDROOT
BRANCH   2   4
HETATM    4  N   UNL     1     -10.696  13.989  66.734  1.00  0.00    -0.284 N  
HETATM    5  C   UNL     1      -9.164  14.140  66.729  1.00  0.00    -0.266 C  
BRANCH   4   6
HETATM    6  C   UNL     1     -11.039  12.758  67.663  1.00  0.00    -0.258 C  
BRANCH   6   7
HETATM    7  C   UNL     1      -9.882  11.813  68.006  1.00  0.00    -0.183 C  
BRANCH   7   8
HETATM    8  O   UNL     1     -10.192  10.488  67.540  1.00  0.00    -0.187 OA 
BRANCH   8   9
HETATM    9  C   UNL     1     -10.161   9.481  68.476  1.00  0.00    -0.199 C  
HETATM   10  O   UNL     1     -10.283   8.305  68.144  1.00  0.00    -0.197 OA 
BRANCH   9  11
HETATM   11  C   UNL     1      -9.925   9.989  69.909  1.00  0.00    -0.280 C  
HETATM   12  C   UNL     1     -11.135   9.797  70.808  1.00  0.00    -0.415 A  
HETATM   13  C   UNL     1     -12.355  10.437  70.520  1.00  0.00    -0.410 A  
HETATM   14  C   UNL     1     -13.509  10.117  71.235  1.00  0.00    -0.305 A  
HETATM   15  C   UNL     1     -13.447   9.196  72.277  1.00  0.00    -0.546 A  
HETATM   16  C   UNL     1     -12.225   8.616  72.619  1.00  0.00    -0.274 A  
HETATM   17  C   UNL     1     -11.075   8.918  71.888  1.00  0.00    -0.372 A  
HETATM   18  O   UNL     1      -9.925   8.294  72.297  1.00  0.00    -0.238 OA 
HETATM   19  C   UNL     1      -8.746   8.601  71.664  1.00  0.00    -0.203 A  
HETATM   20  C   UNL     1      -7.592   8.062  72.241  1.00  0.00    -0.133 A  
HETATM   21  C   UNL     1      -6.345   8.286  71.661  1.00  0.00    -0.049 A  
HETATM   22  C   UNL     1      -6.253   9.054  70.504  1.00  0.00    -0.045 A  
HETATM   23  C   UNL     1      -7.404   9.610  69.938  1.00  0.00    -0.120 A  
HETATM   24  C   UNL     1      -8.669   9.386  70.509  1.00  0.00    -0.276 A  
ENDBRANCH   9  11
ENDBRANCH   8   9
ENDBRANCH   7   8
ENDBRANCH   6   7
ENDBRANCH   4   6
BRANCH   4  25
HETATM   25  C   UNL     1     -11.240  13.592  65.280  1.00  0.00    -0.299 C  
HETATM   26  C   UNL     1     -12.188  12.394  65.270  1.00  0.00    -0.418 C  
HETATM   27  C   UNL     1     -11.939  14.764  64.568  1.00  0.00    -0.451 C  
ENDBRANCH   4  25
ENDBRANCH   2   4
TORSDOF 7
ENDMDL
MODEL       85
REMARK 921   NORMALIZED FREE ENERGY PREDICTED BY IDOCK:   -5.10 KCAL/MOL
REMARK 922        TOTAL FREE ENERGY PREDICTED BY IDOCK:   -8.38 KCAL/MOL
REMARK 923 INTER-LIGAND FREE ENERGY PREDICTED BY IDOCK:   -7.36 KCAL/MOL
REMARK 924 INTRA-LIGAND FREE ENERGY PREDICTED BY IDOCK:   -1.01 KCAL/MOL
REMARK 927      BINDING AFFINITY PREDICTED BY RF-SCORE:    0.00 PKD
ROOT
HETATM    1  C   UNL     1      -6.339  10.535  68.091  1.00  0.00    -0.058 C  
HETATM    2  C   UNL     1      -7.748   9.972  67.869  1.00  0.00    -0.090 C  
HETATM    3  C   UNL     1      -8.394   9.506  69.174  1.00  0.00    -0.125 C  
ENDROOT
BRANCH   2   4
HETATM    4  N   UNL     1      -8.710  10.890  67.010  1.00  0.00    -0.139 N  
HETATM    5  C   UNL     1     -10.108  10.901  67.654  1.00  0.00    -0.179 C  
BRANCH   4   6
HETATM    6  C   UNL     1      -8.166  12.372  67.054  1.00  0.00    -0.141 C  
BRANCH   6   7
HETATM    7  C   UNL     1      -8.859  13.329  68.030  1.00  0.00    -0.190 C  
BRANCH   7   8
HETATM    8  O   UNL     1      -9.042  14.609  67.399  1.00  0.00    -0.183 OA 
BRANCH   8   9
HETATM    9  C   UNL     1     -10.211  14.791  66.699  1.00  0.00    -0.269 C  
HETATM   10  O   UNL     1     -10.423  14.183  65.654  1.00  0.00    -0.294 OA 
BRANCH   9  11
HETATM   11  C   UNL     1     -11.182  15.772  67.381  1.00  0.00    -0.179 C  
HETATM   12  C   UNL     1     -11.555  15.346  68.791  1.00  0.00    -0.382 A  
HETATM   13  C   UNL     1     -12.230  14.132  69.021  1.00  0.00    -0.274 A  
HETATM   14  C   UNL     1     -12.407  13.656  70.320  1.00  0.00    -0.392 A  
HETATM   15  C   UNL     1     -11.960  14.408  71.403  1.00  0.00    -0.337 A  
HETATM   16  C   UNL     1     -11.360  15.649  71.185  1.00  0.00    -0.446 A  
HETATM   17  C   UNL     1     -11.161  16.115  69.884  1.00  0.00    -0.357 A  
HETATM   18  O   UNL     1     -10.558  17.341  69.773  1.00  0.00    -0.142 OA 
HETATM   19  C   UNL     1     -10.396  17.886  68.523  1.00  0.00    -0.360 A  
HETATM   20  C   UNL     1      -9.934  19.206  68.495  1.00  0.00    -0.496 A  
HETATM   21  C   UNL     1      -9.707  19.846  67.279  1.00  0.00    -0.517 A  
HETATM   22  C   UNL     1      -9.945  19.165  66.089  1.00  0.00    -0.441 A  
HETATM   23  C   UNL     1     -10.426  17.853  66.116  1.00  0.00    -0.321 A  
HETATM   24  C   UNL     1     -10.653  17.193  67.336  1.00  0.00    -0.297 A  
ENDBRANCH   9  11
ENDBRANCH   8   9
ENDBRANCH   7   8
ENDBRANCH   6   7
ENDBRANCH   4   6
BRANCH   4  25
HETATM   25  C   UNL     1      -8.794  10.510  65.456  1.00  0.00    -0.184 C  
HETATM   26  C   UNL     1      -8.458   9.051  65.148  1.00  0.00    -0.183 C  
HETATM   27  C   UNL     1     -10.171  10.825  64.843  1.00  0.00    -0.388 C  
ENDBRANCH   4  25
ENDBRANCH   2   4
TORSDOF 7
ENDMDL
MODEL       86
REMARK 921   NORMALIZED FREE ENERGY PREDICTED BY IDOCK:   -5.06 KCAL/MOL
REMARK 922        TOTAL FREE ENERGY PREDICTED BY IDOCK:   -8.32 KCAL/MOL
REMARK 923 INTER-LIGAND FREE ENERGY PREDICTED BY IDOCK:   -7.34 KCAL/MOL
REMARK 924 INTRA-LIGAND FREE ENERGY PREDICTED BY IDOCK:   -0.97 KCAL/MOL
REMARK 927      BINDING AFFINITY PREDICTED BY RF-SCORE:    0.00 PKD
ROOT
HETATM    1  C   UNL     1     -11.224  15.471  64.589  1.00  0.00    -0.381 C  
HETATM    2  C   UNL     1     -10.366  15.893  65.787  1.00  0.00    -0.376 C  
HETATM    3  C   UNL     1     -10.344  17.410  65.973  1.00  0.00    -0.309 C  
ENDROOT
BRANCH   2   4
HETATM    4  N   UNL     1     -10.669  15.121  67.136  1.00  0.00    -0.303 N  
HETATM    5  C   UNL     1     -11.979  14.328  66.983  1.00  0.00    -0.433 C  
BRANCH   4   6
HETATM    6  C   UNL     1      -9.516  14.071  67.388  1.00  0.00    -0.225 C  
BRANCH   6   7
HETATM    7  C   UNL     1      -9.841  12.607  67.071  1.00  0.00    -0.225 C  
BRANCH   7   8
HETATM    8  O   UNL     1      -9.809  11.835  68.285  1.00  0.00    -0.187 OA 
BRANCH   8   9
HETATM    9  C   UNL     1     -10.560  10.685  68.306  1.00  0.00    -0.194 C  
HETATM   10  O   UNL     1     -11.715  10.676  67.886  1.00  0.00    -0.506 OA 
BRANCH   9  11
HETATM   11  C   UNL     1      -9.795   9.468  68.854  1.00  0.00    -0.179 C  
HETATM   12  C   UNL     1     -10.552   8.745  69.957  1.00  0.00    -0.232 A  
HETATM   13  C   UNL     1     -10.867   9.401  71.163  1.00  0.00    -0.427 A  
HETATM   14  C   UNL     1     -11.716   8.802  72.093  1.00  0.00    -0.433 A  
HETATM   15  C   UNL     1     -12.217   7.525  71.855  1.00  0.00    -0.339 A  
HETATM   16  C   UNL     1     -11.846   6.839  70.699  1.00  0.00    -0.442 A  
HETATM   17  C   UNL     1     -11.016   7.447  69.755  1.00  0.00    -0.200 A  
HETATM   18  O   UNL     1     -10.714   6.695  68.650  1.00  0.00    -0.215 OA 
HETATM   19  C   UNL     1      -9.846   7.209  67.719  1.00  0.00    -0.145 A  
HETATM   20  C   UNL     1      -9.449   6.325  66.710  1.00  0.00    -0.167 A  
HETATM   21  C   UNL     1      -8.594   6.752  65.697  1.00  0.00    -0.126 A  
HETATM   22  C   UNL     1      -8.133   8.065  65.695  1.00  0.00    -0.121 A  
HETATM   23  C   UNL     1      -8.513   8.944  66.714  1.00  0.00    -0.117 A  
HETATM   24  C   UNL     1      -9.381   8.527  67.738  1.00  0.00    -0.153 A  
ENDBRANCH   9  11
ENDBRANCH   8   9
ENDBRANCH   7   8
ENDBRANCH   6   7
ENDBRANCH   4   6
BRANCH   4  25
HETATM   25  C   UNL     1     -10.704  16.042  68.446  1.00  0.00    -0.289 C  
HETATM   26  C   UNL     1     -11.880  15.759  69.380  1.00  0.00    -0.361 C  
HETATM   27  C   UNL     1      -9.405  15.953  69.268  1.00  0.00    -0.259 C  
ENDBRANCH   4  25
ENDBRANCH   2   4
TORSDOF 7
ENDMDL
MODEL       87
REMARK 921   NORMALIZED FREE ENERGY PREDICTED BY IDOCK:   -5.06 KCAL/MOL
REMARK 922        TOTAL FREE ENERGY PREDICTED BY IDOCK:   -8.32 KCAL/MOL
REMARK 923 INTER-LIGAND FREE ENERGY PREDICTED BY IDOCK:   -7.51 KCAL/MOL
REMARK 924 INTRA-LIGAND FREE ENERGY PREDICTED BY IDOCK:   -0.80 KCAL/MOL
REMARK 927      BINDING AFFINITY PREDICTED BY RF-SCORE:    0.00 PKD
ROOT
HETATM    1  C   UNL     1     -12.310  15.288  64.254  1.00  0.00    -0.139 C  
HETATM    2  C   UNL     1     -10.903  14.946  64.758  1.00  0.00    -0.363 C  
HETATM    3  C   UNL     1     -10.425  15.920  65.835  1.00  0.00    -0.373 C  
ENDROOT
BRANCH   2   4
HETATM    4  N   UNL     1     -10.687  13.433  65.170  1.00  0.00    -0.314 N  
HETATM    5  C   UNL     1      -9.496  13.337  66.141  1.00  0.00    -0.139 C  
BRANCH   4   6
HETATM    6  C   UNL     1     -11.965  12.934  65.951  1.00  0.00    -0.448 C  
BRANCH   6   7
HETATM    7  C   UNL     1     -11.820  12.767  67.468  1.00  0.00    -0.343 C  
BRANCH   7   8
HETATM    8  O   UNL     1     -11.713  11.369  67.789  1.00  0.00    -0.533 OA 
BRANCH   8   9
HETATM    9  C   UNL     1     -11.390  11.056  69.087  1.00  0.00    -0.280 C  
HETATM   10  O   UNL     1     -11.744  11.774  70.018  1.00  0.00    -0.320 OA 
BRANCH   9  11
HETATM   11  C   UNL     1     -10.607   9.738  69.219  1.00  0.00    -0.240 C  
HETATM   12  C   UNL     1      -9.112   9.918  69.013  1.00  0.00    -0.164 A  
HETATM   13  C   UNL     1      -8.606  10.382  67.784  1.00  0.00    -0.122 A  
HETATM   14  C   UNL     1      -7.259  10.722  67.656  1.00  0.00    -0.092 A  
HETATM   15  C   UNL     1      -6.395  10.554  68.735  1.00  0.00    -0.047 A  
HETATM   16  C   UNL     1      -6.874  10.022  69.931  1.00  0.00    -0.108 A  
HETATM   17  C   UNL     1      -8.227   9.704  70.068  1.00  0.00    -0.184 A  
HETATM   18  O   UNL     1      -8.602   9.192  71.283  1.00  0.00    -0.278 OA 
HETATM   19  C   UNL     1      -9.904   8.795  71.458  1.00  0.00    -0.301 A  
HETATM   20  C   UNL     1     -10.176   8.126  72.656  1.00  0.00    -0.388 A  
HETATM   21  C   UNL     1     -11.472   7.706  72.948  1.00  0.00    -0.342 A  
HETATM   22  C   UNL     1     -12.496   7.952  72.039  1.00  0.00    -0.338 A  
HETATM   23  C   UNL     1     -12.222   8.602  70.833  1.00  0.00    -0.123 A  
HETATM   24  C   UNL     1     -10.920   9.038  70.528  1.00  0.00    -0.295 A  
ENDBRANCH   9  11
ENDBRANCH   8   9
ENDBRANCH   7   8
ENDBRANCH   6   7
ENDBRANCH   4   6
BRANCH   4  25
HETATM   25  C   UNL     1     -10.511  12.419  63.943  1.00  0.00    -0.439 C  
HETATM   26  C   UNL     1      -9.619  11.216  64.246  1.00  0.00    -0.288 C  
HETATM   27  C   UNL     1     -11.857  11.896  63.409  1.00  0.00    -0.512 C  
ENDBRANCH   4  25
ENDBRANCH   2   4
TORSDOF 7
ENDMDL
MODEL       88
REMARK 921   NORMALIZED FREE ENERGY PREDICTED BY IDOCK:   -5.06 KCAL/MOL
REMARK 922        TOTAL FREE ENERGY PREDICTED BY IDOCK:   -8.32 KCAL/MOL
REMARK 923 INTER-LIGAND FREE ENERGY PREDICTED BY IDOCK:   -7.11 KCAL/MOL
REMARK 924 INTRA-LIGAND FREE ENERGY PREDICTED BY IDOCK:   -1.21 KCAL/MOL
REMARK 927      BINDING AFFINITY PREDICTED BY RF-SCORE:    0.00 PKD
ROOT
HETATM    1  C   UNL     1     -11.043   4.957  72.705  1.00  0.00    -0.227 C  
HETATM    2  C   UNL     1     -11.114   6.445  73.068  1.00  0.00    -0.200 C  
HETATM    3  C   UNL     1     -10.108   6.821  74.155  1.00  0.00    -0.381 C  
ENDROOT
BRANCH   2   4
HETATM    4  N   UNL     1     -11.076   7.439  71.837  1.00  0.00    -0.237 N  
HETATM    5  C   UNL     1     -10.023   8.531  72.099  1.00  0.00    -0.317 C  
BRANCH   4   6
HETATM    6  C   UNL     1     -10.608   6.641  70.556  1.00  0.00    -0.229 C  
BRANCH   6   7
HETATM    7  C   UNL     1      -9.382   7.187  69.817  1.00  0.00    -0.146 C  
BRANCH   7   8
HETATM    8  O   UNL     1      -9.411   6.746  68.449  1.00  0.00    -0.127 OA 
BRANCH   8   9
HETATM    9  C   UNL     1     -10.111   7.528  67.562  1.00  0.00    -0.200 C  
HETATM   10  O   UNL     1     -11.196   7.163  67.117  1.00  0.00    -0.276 OA 
BRANCH   9  11
HETATM   11  C   UNL     1      -9.416   8.864  67.247  1.00  0.00    -0.195 C  
HETATM   12  C   UNL     1      -8.912   8.943  65.816  1.00  0.00    -0.249 A  
HETATM   13  C   UNL     1      -7.937   8.044  65.345  1.00  0.00    -0.121 A  
HETATM   14  C   UNL     1      -7.612   7.997  63.989  1.00  0.00    -0.124 A  
HETATM   15  C   UNL     1      -8.216   8.881  63.100  1.00  0.00    -0.183 A  
HETATM   16  C   UNL     1      -9.126   9.828  63.572  1.00  0.00    -0.263 A  
HETATM   17  C   UNL     1      -9.470   9.859  64.925  1.00  0.00    -0.291 A  
HETATM   18  O   UNL     1     -10.376  10.820  65.291  1.00  0.00    -0.280 OA 
HETATM   19  C   UNL     1     -10.703  10.948  66.618  1.00  0.00    -0.230 A  
HETATM   20  C   UNL     1     -11.495  12.054  66.941  1.00  0.00    -0.402 A  
HETATM   21  C   UNL     1     -11.910  12.263  68.254  1.00  0.00    -0.367 A  
HETATM   22  C   UNL     1     -11.528  11.365  69.246  1.00  0.00    -0.370 A  
HETATM   23  C   UNL     1     -10.720  10.270  68.928  1.00  0.00    -0.256 A  
HETATM   24  C   UNL     1     -10.300  10.044  67.606  1.00  0.00    -0.272 A  
ENDBRANCH   9  11
ENDBRANCH   8   9
ENDBRANCH   7   8
ENDBRANCH   6   7
ENDBRANCH   4   6
BRANCH   4  25
HETATM   25  C   UNL     1     -12.489   8.084  71.447  1.00  0.00    -0.301 C  
HETATM   26  C   UNL     1     -13.658   7.101  71.479  1.00  0.00    -0.408 C  
HETATM   27  C   UNL     1     -12.854   9.292  72.330  1.00  0.00    -0.459 C  
ENDBRANCH   4  25
ENDBRANCH   2   4
TORSDOF 7
ENDMDL
MODEL       89
REMARK 921   NORMALIZED FREE ENERGY PREDICTED BY IDOCK:   -5.06 KCAL/MOL
REMARK 922        TOTAL FREE ENERGY PREDICTED BY IDOCK:   -8.31 KCAL/MOL
REMARK 923 INTER-LIGAND FREE ENERGY PREDICTED BY IDOCK:   -7.16 KCAL/MOL
REMARK 924 INTRA-LIGAND FREE ENERGY PREDICTED BY IDOCK:   -1.15 KCAL/MOL
REMARK 927      BINDING AFFINITY PREDICTED BY RF-SCORE:    0.00 PKD
ROOT
HETATM    1  C   UNL     1      -7.175  16.218  66.879  1.00  0.00    -0.257 C  
HETATM    2  C   UNL     1      -8.616  16.384  67.377  1.00  0.00    -0.178 C  
HETATM    3  C   UNL     1      -9.262  17.667  66.852  1.00  0.00    -0.270 C  
ENDROOT
BRANCH   2   4
HETATM    4  N   UNL     1      -9.544  15.116  67.183  1.00  0.00    -0.215 N  
HETATM    5  C   UNL     1     -10.368  15.282  65.894  1.00  0.00    -0.329 C  
BRANCH   4   6
HETATM    6  C   UNL     1      -8.627  13.844  66.988  1.00  0.00    -0.172 C  
BRANCH   6   7
HETATM    7  C   UNL     1      -8.606  12.831  68.138  1.00  0.00    -0.185 C  
BRANCH   7   8
HETATM    8  O   UNL     1      -9.128  11.572  67.677  1.00  0.00    -0.161 OA 
BRANCH   8   9
HETATM    9  C   UNL     1      -9.272  10.581  68.618  1.00  0.00    -0.172 C  
HETATM   10  O   UNL     1      -8.351  10.291  69.377  1.00  0.00    -0.151 OA 
BRANCH   9  11
HETATM   11  C   UNL     1     -10.673   9.945  68.624  1.00  0.00    -0.256 C  
HETATM   12  C   UNL     1     -10.630   8.426  68.630  1.00  0.00    -0.149 A  
HETATM   13  C   UNL     1     -10.045   7.718  67.563  1.00  0.00    -0.272 A  
HETATM   14  C   UNL     1      -9.841   6.342  67.654  1.00  0.00    -0.135 A  
HETATM   15  C   UNL     1     -10.265   5.650  68.785  1.00  0.00    -0.269 A  
HETATM   16  C   UNL     1     -10.916   6.333  69.812  1.00  0.00    -0.444 A  
HETATM   17  C   UNL     1     -11.099   7.714  69.733  1.00  0.00    -0.106 A  
HETATM   18  O   UNL     1     -11.743   8.295  70.794  1.00  0.00    -0.277 OA 
HETATM   19  C   UNL     1     -12.016   9.640  70.745  1.00  0.00    -0.277 A  
HETATM   20  C   UNL     1     -12.823  10.130  71.776  1.00  0.00    -0.554 A  
HETATM   21  C   UNL     1     -13.137  11.486  71.839  1.00  0.00    -0.492 A  
HETATM   22  C   UNL     1     -12.644  12.351  70.868  1.00  0.00    -0.337 A  
HETATM   23  C   UNL     1     -11.854  11.859  69.826  1.00  0.00    -0.411 A  
HETATM   24  C   UNL     1     -11.524  10.494  69.754  1.00  0.00    -0.365 A  
ENDBRANCH   9  11
ENDBRANCH   8   9
ENDBRANCH   7   8
ENDBRANCH   6   7
ENDBRANCH   4   6
BRANCH   4  25
HETATM   25  C   UNL     1     -10.489  14.776  68.430  1.00  0.00    -0.243 C  
HETATM   26  C   UNL     1     -10.163  15.565  69.698  1.00  0.00    -0.289 C  
HETATM   27  C   UNL     1     -11.983  14.973  68.113  1.00  0.00    -0.195 C  
ENDBRANCH   4  25
ENDBRANCH   2   4
TORSDOF 7
ENDMDL
MODEL       90
REMARK 921   NORMALIZED FREE ENERGY PREDICTED BY IDOCK:   -5.04 KCAL/MOL
REMARK 922        TOTAL FREE ENERGY PREDICTED BY IDOCK:   -8.28 KCAL/MOL
REMARK 923 INTER-LIGAND FREE ENERGY PREDICTED BY IDOCK:   -7.87 KCAL/MOL
REMARK 924 INTRA-LIGAND FREE ENERGY PREDICTED BY IDOCK:   -0.41 KCAL/MOL
REMARK 927      BINDING AFFINITY PREDICTED BY RF-SCORE:    0.00 PKD
ROOT
HETATM    1  C   UNL     1     -10.134   9.852  66.585  1.00  0.00    -0.297 C  
HETATM    2  C   UNL     1      -9.941   8.467  67.214  1.00  0.00    -0.227 C  
HETATM    3  C   UNL     1      -9.364   7.459  66.221  1.00  0.00    -0.166 C  
ENDROOT
BRANCH   2   4
HETATM    4  N   UNL     1      -9.174   8.460  68.599  1.00  0.00    -0.143 N  
HETATM    5  C   UNL     1      -7.668   8.267  68.344  1.00  0.00    -0.105 C  
BRANCH   4   6
HETATM    6  C   UNL     1      -9.352   9.873  69.283  1.00  0.00    -0.206 C  
BRANCH   6   7
HETATM    7  C   UNL     1     -10.686  10.128  69.994  1.00  0.00    -0.305 C  
BRANCH   7   8
HETATM    8  O   UNL     1     -11.047  11.513  69.855  1.00  0.00    -0.162 OA 
BRANCH   8   9
HETATM    9  C   UNL     1     -12.235  11.903  70.426  1.00  0.00    -0.314 C  
HETATM   10  O   UNL     1     -12.788  11.206  71.273  1.00  0.00    -0.394 OA 
BRANCH   9  11
HETATM   11  C   UNL     1     -12.732  13.270  69.923  1.00  0.00     0.175 C  
HETATM   12  C   UNL     1     -12.646  14.354  70.985  1.00  0.00    -0.419 A  
HETATM   13  C   UNL     1     -13.380  14.250  72.181  1.00  0.00    -0.506 A  
HETATM   14  C   UNL     1     -13.160  15.146  73.227  1.00  0.00    -0.622 A  
HETATM   15  C   UNL     1     -12.245  16.184  73.072  1.00  0.00    -0.641 A  
HETATM   16  C   UNL     1     -11.571  16.338  71.861  1.00  0.00    -0.430 A  
HETATM   17  C   UNL     1     -11.772  15.428  70.822  1.00  0.00    -0.348 A  
HETATM   18  O   UNL     1     -11.060  15.661  69.674  1.00  0.00    -0.251 OA 
HETATM   19  C   UNL     1     -11.266  14.842  68.592  1.00  0.00    -0.273 A  
HETATM   20  C   UNL     1     -10.640  15.238  67.406  1.00  0.00    -0.282 A  
HETATM   21  C   UNL     1     -10.758  14.464  66.255  1.00  0.00    -0.307 A  
HETATM   22  C   UNL     1     -11.507  13.292  66.289  1.00  0.00    -0.358 A  
HETATM   23  C   UNL     1     -12.151  12.904  67.468  1.00  0.00    -0.251 A  
HETATM   24  C   UNL     1     -12.034  13.674  68.639  1.00  0.00    -0.395 A  
ENDBRANCH   9  11
ENDBRANCH   8   9
ENDBRANCH   7   8
ENDBRANCH   6   7
ENDBRANCH   4   6
BRANCH   4  25
HETATM   25  C   UNL     1      -9.718   7.396  69.666  1.00  0.00    -0.163 C  
HETATM   26  C   UNL     1     -10.704   6.380  69.091  1.00  0.00    -0.339 C  
HETATM   27  C   UNL     1      -8.584   6.623  70.363  1.00  0.00    -0.143 C  
ENDBRANCH   4  25
ENDBRANCH   2   4
TORSDOF 7
ENDMDL
MODEL       91
REMARK 921   NORMALIZED FREE ENERGY PREDICTED BY IDOCK:   -5.02 KCAL/MOL
REMARK 922        TOTAL FREE ENERGY PREDICTED BY IDOCK:   -8.26 KCAL/MOL
REMARK 923 INTER-LIGAND FREE ENERGY PREDICTED BY IDOCK:   -7.01 KCAL/MOL
REMARK 924 INTRA-LIGAND FREE ENERGY PREDICTED BY IDOCK:   -1.26 KCAL/MOL
REMARK 927      BINDING AFFINITY PREDICTED BY RF-SCORE:    0.00 PKD
ROOT
HETATM    1  C   UNL     1     -12.167  14.796  69.982  1.00  0.00    -0.383 C  
HETATM    2  C   UNL     1     -11.772  15.344  68.606  1.00  0.00    -0.354 C  
HETATM    3  C   UNL     1     -10.827  16.541  68.713  1.00  0.00    -0.342 C  
ENDROOT
BRANCH   2   4
HETATM    4  N   UNL     1     -11.261  14.258  67.573  1.00  0.00    -0.295 N  
HETATM    5  C   UNL     1      -9.765  13.988  67.820  1.00  0.00    -0.228 C  
BRANCH   4   6
HETATM    6  C   UNL     1     -12.029  12.904  67.841  1.00  0.00    -0.282 C  
BRANCH   6   7
HETATM    7  C   UNL     1     -11.175  11.703  68.262  1.00  0.00    -0.260 C  
BRANCH   7   8
HETATM    8  O   UNL     1     -11.376  10.623  67.335  1.00  0.00    -0.401 OA 
BRANCH   8   9
HETATM    9  C   UNL     1     -10.401  10.433  66.385  1.00  0.00    -0.213 C  
HETATM   10  O   UNL     1     -10.469  10.984  65.289  1.00  0.00    -0.273 OA 
BRANCH   9  11
HETATM   11  C   UNL     1      -9.254   9.525  66.863  1.00  0.00    -0.174 C  
HETATM   12  C   UNL     1      -8.178  10.285  67.621  1.00  0.00    -0.114 A  
HETATM   13  C   UNL     1      -7.438  11.304  66.992  1.00  0.00    -0.139 A  
HETATM   14  C   UNL     1      -6.585  12.121  67.735  1.00  0.00    -0.100 A  
HETATM   15  C   UNL     1      -6.423  11.897  69.099  1.00  0.00    -0.098 A  
HETATM   16  C   UNL     1      -7.094  10.839  69.713  1.00  0.00    -0.126 A  
HETATM   17  C   UNL     1      -7.966  10.036  68.976  1.00  0.00    -0.108 A  
HETATM   18  O   UNL     1      -8.583   9.028  69.669  1.00  0.00    -0.126 OA 
HETATM   19  C   UNL     1      -9.399   8.160  68.986  1.00  0.00    -0.147 A  
HETATM   20  C   UNL     1      -9.855   7.058  69.717  1.00  0.00    -0.171 A  
HETATM   21  C   UNL     1     -10.713   6.131  69.129  1.00  0.00    -0.381 A  
HETATM   22  C   UNL     1     -11.112   6.306  67.808  1.00  0.00    -0.361 A  
HETATM   23  C   UNL     1     -10.640   7.395  67.070  1.00  0.00    -0.414 A  
HETATM   24  C   UNL     1      -9.780   8.342  67.653  1.00  0.00    -0.201 A  
ENDBRANCH   9  11
ENDBRANCH   8   9
ENDBRANCH   7   8
ENDBRANCH   6   7
ENDBRANCH   4   6
BRANCH   4  25
HETATM   25  C   UNL     1     -11.536  14.610  66.035  1.00  0.00    -0.332 C  
HETATM   26  C   UNL     1     -10.342  14.364  65.112  1.00  0.00    -0.447 C  
HETATM   27  C   UNL     1     -12.749  13.855  65.462  1.00  0.00    -0.536 C  
ENDBRANCH   4  25
ENDBRANCH   2   4
TORSDOF 7
ENDMDL
MODEL       92
REMARK 921   NORMALIZED FREE ENERGY PREDICTED BY IDOCK:   -5.02 KCAL/MOL
REMARK 922        TOTAL FREE ENERGY PREDICTED BY IDOCK:   -8.26 KCAL/MOL
REMARK 923 INTER-LIGAND FREE ENERGY PREDICTED BY IDOCK:   -6.74 KCAL/MOL
REMARK 924 INTRA-LIGAND FREE ENERGY PREDICTED BY IDOCK:   -1.52 KCAL/MOL
REMARK 927      BINDING AFFINITY PREDICTED BY RF-SCORE:    0.00 PKD
ROOT
HETATM    1  C   UNL     1     -10.087   8.451  67.682  1.00  0.00    -0.268 C  
HETATM    2  C   UNL     1      -8.912   7.474  67.564  1.00  0.00    -0.126 C  
HETATM    3  C   UNL     1      -7.613   8.069  68.108  1.00  0.00    -0.109 C  
ENDROOT
BRANCH   2   4
HETATM    4  N   UNL     1      -9.191   6.018  68.120  1.00  0.00    -0.117 N  
HETATM    5  C   UNL     1      -8.097   5.645  69.137  1.00  0.00    -0.096 C  
BRANCH   4   6
HETATM    6  C   UNL     1     -10.565   6.028  68.899  1.00  0.00    -0.290 C  
BRANCH   6   7
HETATM    7  C   UNL     1     -10.578   5.359  70.278  1.00  0.00    -0.259 C  
BRANCH   7   8
HETATM    8  O   UNL     1     -11.625   5.933  71.080  1.00  0.00    -0.182 OA 
BRANCH   8   9
HETATM    9  C   UNL     1     -11.396   6.009  72.433  1.00  0.00    -0.301 C  
HETATM   10  O   UNL     1     -11.573   5.035  73.160  1.00  0.00    -0.328 OA 
BRANCH   9  11
HETATM   11  C   UNL     1     -10.878   7.385  72.887  1.00  0.00    -0.402 C  
HETATM   12  C   UNL     1      -9.362   7.486  72.846  1.00  0.00    -0.232 A  
HETATM   13  C   UNL     1      -8.563   6.647  73.646  1.00  0.00    -0.137 A  
HETATM   14  C   UNL     1      -7.180   6.612  73.474  1.00  0.00    -0.080 A  
HETATM   15  C   UNL     1      -6.574   7.448  72.540  1.00  0.00    -0.055 A  
HETATM   16  C   UNL     1      -7.352   8.338  71.799  1.00  0.00    -0.105 A  
HETATM   17  C   UNL     1      -8.740   8.357  71.953  1.00  0.00    -0.195 A  
HETATM   18  O   UNL     1      -9.417   9.260  71.177  1.00  0.00    -0.267 OA 
HETATM   19  C   UNL     1     -10.776   9.377  71.332  1.00  0.00    -0.337 A  
HETATM   20  C   UNL     1     -11.375  10.432  70.637  1.00  0.00    -0.411 A  
HETATM   21  C   UNL     1     -12.754  10.623  70.700  1.00  0.00    -0.445 A  
HETATM   22  C   UNL     1     -13.533   9.759  71.463  1.00  0.00    -0.417 A  
HETATM   23  C   UNL     1     -12.933   8.716  72.175  1.00  0.00    -0.432 A  
HETATM   24  C   UNL     1     -11.544   8.508  72.114  1.00  0.00    -0.447 A  
ENDBRANCH   9  11
ENDBRANCH   8   9
ENDBRANCH   7   8
ENDBRANCH   6   7
ENDBRANCH   4   6
BRANCH   4  25
HETATM   25  C   UNL     1      -9.343   4.886  66.997  1.00  0.00    -0.129 C  
HETATM   26  C   UNL     1      -9.355   3.458  67.543  1.00  0.00    -0.248 C  
HETATM   27  C   UNL     1     -10.598   5.078  66.128  1.00  0.00    -0.321 C  
ENDBRANCH   4  25
ENDBRANCH   2   4
TORSDOF 7
ENDMDL
MODEL       93
REMARK 921   NORMALIZED FREE ENERGY PREDICTED BY IDOCK:   -5.01 KCAL/MOL
REMARK 922        TOTAL FREE ENERGY PREDICTED BY IDOCK:   -8.25 KCAL/MOL
REMARK 923 INTER-LIGAND FREE ENERGY PREDICTED BY IDOCK:   -7.02 KCAL/MOL
REMARK 924 INTRA-LIGAND FREE ENERGY PREDICTED BY IDOCK:   -1.23 KCAL/MOL
REMARK 927      BINDING AFFINITY PREDICTED BY RF-SCORE:    0.00 PKD
ROOT
HETATM    1  C   UNL     1      -9.925  13.930  66.057  1.00  0.00    -0.325 C  
HETATM    2  C   UNL     1      -8.915  13.351  67.055  1.00  0.00    -0.224 C  
HETATM    3  C   UNL     1      -8.977  14.055  68.411  1.00  0.00    -0.189 C  
ENDROOT
BRANCH   2   4
HETATM    4  N   UNL     1      -8.933  11.774  67.189  1.00  0.00    -0.171 N  
HETATM    5  C   UNL     1      -7.645  11.198  66.573  1.00  0.00    -0.135 C  
BRANCH   4   6
HETATM    6  C   UNL     1      -8.923  11.397  68.723  1.00  0.00    -0.080 C  
BRANCH   6   7
HETATM    7  C   UNL     1      -8.238  10.079  69.102  1.00  0.00    -0.137 C  
BRANCH   7   8
HETATM    8  O   UNL     1      -8.117   9.995  70.532  1.00  0.00    -0.194 OA 
BRANCH   8   9
HETATM    9  C   UNL     1      -8.848   9.014  71.158  1.00  0.00    -0.215 C  
HETATM   10  O   UNL     1      -8.635   8.717  72.331  1.00  0.00    -0.341 OA 
BRANCH   9  11
HETATM   11  C   UNL     1      -9.936   8.398  70.260  1.00  0.00    -0.193 C  
HETATM   12  C   UNL     1      -9.645   6.953  69.890  1.00  0.00    -0.156 A  
HETATM   13  C   UNL     1      -8.496   6.617  69.149  1.00  0.00    -0.124 A  
HETATM   14  C   UNL     1      -8.135   5.282  68.969  1.00  0.00    -0.086 A  
HETATM   15  C   UNL     1      -8.942   4.269  69.481  1.00  0.00    -0.154 A  
HETATM   16  C   UNL     1     -10.123   4.594  70.150  1.00  0.00    -0.283 A  
HETATM   17  C   UNL     1     -10.473   5.930  70.351  1.00  0.00    -0.259 A  
HETATM   18  O   UNL     1     -11.647   6.148  71.023  1.00  0.00    -0.303 OA 
HETATM   19  C   UNL     1     -12.082   7.439  71.192  1.00  0.00    -0.325 A  
HETATM   20  C   UNL     1     -13.365   7.579  71.731  1.00  0.00    -0.370 A  
HETATM   21  C   UNL     1     -13.892   8.845  71.972  1.00  0.00    -0.511 A  
HETATM   22  C   UNL     1     -13.136   9.973  71.670  1.00  0.00    -0.547 A  
HETATM   23  C   UNL     1     -11.861   9.836  71.113  1.00  0.00    -0.466 A  
HETATM   24  C   UNL     1     -11.314   8.563  70.871  1.00  0.00    -0.304 A  
ENDBRANCH   9  11
ENDBRANCH   8   9
ENDBRANCH   7   8
ENDBRANCH   6   7
ENDBRANCH   4   6
BRANCH   4  25
HETATM   25  C   UNL     1     -10.231  11.060  66.581  1.00  0.00    -0.235 C  
HETATM   26  C   UNL     1      -9.974   9.661  66.021  1.00  0.00    -0.344 C  
HETATM   27  C   UNL     1     -11.386  10.967  67.594  1.00  0.00    -0.345 C  
ENDBRANCH   4  25
ENDBRANCH   2   4
TORSDOF 7
ENDMDL
MODEL       94
REMARK 921   NORMALIZED FREE ENERGY PREDICTED BY IDOCK:   -5.01 KCAL/MOL
REMARK 922        TOTAL FREE ENERGY PREDICTED BY IDOCK:   -8.24 KCAL/MOL
REMARK 923 INTER-LIGAND FREE ENERGY PREDICTED BY IDOCK:   -7.27 KCAL/MOL
REMARK 924 INTRA-LIGAND FREE ENERGY PREDICTED BY IDOCK:   -0.97 KCAL/MOL
REMARK 927      BINDING AFFINITY PREDICTED BY RF-SCORE:    0.00 PKD
ROOT
HETATM    1  C   UNL     1      -9.946  15.145  65.600  1.00  0.00    -0.387 C  
HETATM    2  C   UNL     1     -10.399  13.985  66.494  1.00  0.00    -0.285 C  
HETATM    3  C   UNL     1     -11.773  14.238  67.113  1.00  0.00    -0.430 C  
ENDROOT
BRANCH   2   4
HETATM    4  N   UNL     1     -10.285  12.548  65.838  1.00  0.00    -0.256 N  
HETATM    5  C   UNL     1      -8.845  12.028  66.004  1.00  0.00     0.047 C  
BRANCH   4   6
HETATM    6  C   UNL     1     -11.231  11.557  66.625  1.00  0.00    -0.271 C  
BRANCH   6   7
HETATM    7  C   UNL     1     -10.578  10.712  67.724  1.00  0.00    -0.236 C  
BRANCH   7   8
HETATM    8  O   UNL     1     -10.704   9.318  67.397  1.00  0.00    -0.279 OA 
BRANCH   8   9
HETATM    9  C   UNL     1      -9.966   8.436  68.151  1.00  0.00    -0.191 C  
HETATM   10  O   UNL     1      -8.767   8.618  68.342  1.00  0.00    -0.140 OA 
BRANCH   9  11
HETATM   11  C   UNL     1     -10.802   7.279  68.726  1.00  0.00    -0.121 C  
HETATM   12  C   UNL     1     -10.305   5.915  68.277  1.00  0.00    -0.263 A  
HETATM   13  C   UNL     1     -10.303   5.561  66.915  1.00  0.00    -0.315 A  
HETATM   14  C   UNL     1      -9.679   4.389  66.488  1.00  0.00    -0.230 A  
HETATM   15  C   UNL     1      -9.098   3.533  67.419  1.00  0.00    -0.193 A  
HETATM   16  C   UNL     1      -9.165   3.839  68.779  1.00  0.00    -0.218 A  
HETATM   17  C   UNL     1      -9.768   5.024  69.205  1.00  0.00    -0.179 A  
HETATM   18  O   UNL     1      -9.778   5.237  70.559  1.00  0.00    -0.167 OA 
HETATM   19  C   UNL     1     -10.417   6.350  71.046  1.00  0.00    -0.223 A  
HETATM   20  C   UNL     1     -10.539   6.416  72.438  1.00  0.00    -0.240 A  
HETATM   21  C   UNL     1     -11.144   7.517  73.040  1.00  0.00    -0.413 A  
HETATM   22  C   UNL     1     -11.631   8.552  72.247  1.00  0.00    -0.444 A  
HETATM   23  C   UNL     1     -11.529   8.478  70.856  1.00  0.00    -0.302 A  
HETATM   24  C   UNL     1     -10.914   7.376  70.236  1.00  0.00    -0.272 A  
ENDBRANCH   9  11
ENDBRANCH   8   9
ENDBRANCH   7   8
ENDBRANCH   6   7
ENDBRANCH   4   6
BRANCH   4  25
HETATM   25  C   UNL     1     -10.754  12.466  64.309  1.00  0.00    -0.357 C  
HETATM   26  C   UNL     1      -9.911  11.529  63.444  1.00  0.00    -0.445 C  
HETATM   27  C   UNL     1     -12.231  12.055  64.163  1.00  0.00    -0.459 C  
ENDBRANCH   4  25
ENDBRANCH   2   4
TORSDOF 7
ENDMDL
MODEL       95
REMARK 921   NORMALIZED FREE ENERGY PREDICTED BY IDOCK:   -4.99 KCAL/MOL
REMARK 922        TOTAL FREE ENERGY PREDICTED BY IDOCK:   -8.21 KCAL/MOL
REMARK 923 INTER-LIGAND FREE ENERGY PREDICTED BY IDOCK:   -7.24 KCAL/MOL
REMARK 924 INTRA-LIGAND FREE ENERGY PREDICTED BY IDOCK:   -0.97 KCAL/MOL
REMARK 927      BINDING AFFINITY PREDICTED BY RF-SCORE:    0.00 PKD
ROOT
HETATM    1  C   UNL     1     -14.068  14.602  71.885  1.00  0.00    -0.606 C  
HETATM    2  C   UNL     1     -12.848  15.459  71.528  1.00  0.00    -0.429 C  
HETATM    3  C   UNL     1     -11.906  15.643  72.718  1.00  0.00    -0.580 C  
ENDROOT
BRANCH   2   4
HETATM    4  N   UNL     1     -12.083  15.025  70.212  1.00  0.00    -0.306 N  
HETATM    5  C   UNL     1     -12.216  16.139  69.157  1.00  0.00     0.230 C  
BRANCH   4   6
HETATM    6  C   UNL     1     -10.546  14.881  70.544  1.00  0.00     0.098 C  
BRANCH   6   7
HETATM    7  C   UNL     1      -9.567  15.542  69.567  1.00  0.00    -0.278 C  
BRANCH   7   8
HETATM    8  O   UNL     1      -9.663  14.899  68.284  1.00  0.00    -0.205 OA 
BRANCH   8   9
HETATM    9  C   UNL     1      -8.550  14.956  67.480  1.00  0.00    -0.184 C  
HETATM   10  O   UNL     1      -7.488  14.448  67.832  1.00  0.00    -0.120 OA 
BRANCH   9  11
HETATM   11  C   UNL     1      -8.803  15.663  66.137  1.00  0.00    -0.311 C  
HETATM   12  C   UNL     1      -9.927  15.023  65.338  1.00  0.00    -0.365 A  
HETATM   13  C   UNL     1      -9.829  13.690  64.898  1.00  0.00    -0.039 A  
HETATM   14  C   UNL     1     -10.929  13.049  64.329  1.00  0.00    -0.427 A  
HETATM   15  C   UNL     1     -12.121  13.745  64.146  1.00  0.00    -0.478 A  
HETATM   16  C   UNL     1     -12.201  15.090  64.509  1.00  0.00    -0.344 A  
HETATM   17  C   UNL     1     -11.107  15.726  65.100  1.00  0.00    -0.324 A  
HETATM   18  O   UNL     1     -11.285  17.045  65.426  1.00  0.00    -0.007 OA 
HETATM   19  C   UNL     1     -10.226  17.745  65.947  1.00  0.00    -0.225 A  
HETATM   20  C   UNL     1     -10.425  19.122  66.094  1.00  0.00    -0.558 A  
HETATM   21  C   UNL     1      -9.425  19.922  66.641  1.00  0.00    -0.513 A  
HETATM   22  C   UNL     1      -8.223  19.345  67.038  1.00  0.00    -0.297 A  
HETATM   23  C   UNL     1      -8.014  17.973  66.873  1.00  0.00    -0.251 A  
HETATM   24  C   UNL     1      -9.018  17.152  66.329  1.00  0.00    -0.262 A  
ENDBRANCH   9  11
ENDBRANCH   8   9
ENDBRANCH   7   8
ENDBRANCH   6   7
ENDBRANCH   4   6
BRANCH   4  25
HETATM   25  C   UNL     1     -12.527  13.608  69.611  1.00  0.00    -0.093 C  
HETATM   26  C   UNL     1     -12.268  13.453  68.113  1.00  0.00    -0.122 C  
HETATM   27  C   UNL     1     -11.866  12.423  70.338  1.00  0.00    -0.249 C  
ENDBRANCH   4  25
ENDBRANCH   2   4
TORSDOF 7
ENDMDL
MODEL       96
REMARK 921   NORMALIZED FREE ENERGY PREDICTED BY IDOCK:   -4.98 KCAL/MOL
REMARK 922        TOTAL FREE ENERGY PREDICTED BY IDOCK:   -8.21 KCAL/MOL
REMARK 923 INTER-LIGAND FREE ENERGY PREDICTED BY IDOCK:   -7.05 KCAL/MOL
REMARK 924 INTRA-LIGAND FREE ENERGY PREDICTED BY IDOCK:   -1.15 KCAL/MOL
REMARK 927      BINDING AFFINITY PREDICTED BY RF-SCORE:    0.00 PKD
ROOT
HETATM    1  C   UNL     1     -11.268  15.493  69.465  1.00  0.00    -0.300 C  
HETATM    2  C   UNL     1     -10.872  16.164  68.144  1.00  0.00    -0.329 C  
HETATM    3  C   UNL     1     -10.188  17.513  68.367  1.00  0.00    -0.372 C  
ENDROOT
BRANCH   2   4
HETATM    4  N   UNL     1     -10.078  15.240  67.133  1.00  0.00    -0.238 N  
HETATM    5  C   UNL     1      -8.821  15.985  66.646  1.00  0.00    -0.272 C  
BRANCH   4   6
HETATM    6  C   UNL     1      -9.586  13.952  67.904  1.00  0.00    -0.227 C  
BRANCH   6   7
HETATM    7  C   UNL     1      -9.178  12.751  67.044  1.00  0.00    -0.221 C  
BRANCH   7   8
HETATM    8  O   UNL     1      -9.535  11.533  67.720  1.00  0.00    -0.161 OA 
BRANCH   8   9
HETATM    9  C   UNL     1     -10.781  11.020  67.452  1.00  0.00    -0.257 C  
HETATM   10  O   UNL     1     -11.788  11.507  67.958  1.00  0.00    -0.545 OA 
BRANCH   9  11
HETATM   11  C   UNL     1     -10.755   9.846  66.457  1.00  0.00    -0.082 C  
HETATM   12  C   UNL     1     -10.238  10.248  65.085  1.00  0.00    -0.295 A  
HETATM   13  C   UNL     1     -10.918  11.209  64.313  1.00  0.00    -0.276 A  
HETATM   14  C   UNL     1     -10.347  11.710  63.144  1.00  0.00    -0.383 A  
HETATM   15  C   UNL     1      -9.119  11.222  62.706  1.00  0.00    -0.327 A  
HETATM   16  C   UNL     1      -8.477  10.214  63.425  1.00  0.00    -0.185 A  
HETATM   17  C   UNL     1      -9.036   9.728  64.609  1.00  0.00    -0.230 A  
HETATM   18  O   UNL     1      -8.328   8.743  65.246  1.00  0.00    -0.141 OA 
HETATM   19  C   UNL     1      -8.858   8.176  66.378  1.00  0.00    -0.155 A  
HETATM   20  C   UNL     1      -8.170   7.065  66.876  1.00  0.00    -0.117 A  
HETATM   21  C   UNL     1      -8.606   6.431  68.037  1.00  0.00    -0.117 A  
HETATM   22  C   UNL     1      -9.733   6.907  68.699  1.00  0.00    -0.136 A  
HETATM   23  C   UNL     1     -10.434   8.004  68.191  1.00  0.00    -0.222 A  
HETATM   24  C   UNL     1     -10.001   8.658  67.024  1.00  0.00    -0.317 A  
ENDBRANCH   9  11
ENDBRANCH   8   9
ENDBRANCH   7   8
ENDBRANCH   6   7
ENDBRANCH   4   6
BRANCH   4  25
HETATM   25  C   UNL     1     -10.939  14.697  65.897  1.00  0.00    -0.332 C  
HETATM   26  C   UNL     1     -12.372  14.305  66.255  1.00  0.00    -0.399 C  
HETATM   27  C   UNL     1     -10.994  15.697  64.727  1.00  0.00    -0.418 C  
ENDBRANCH   4  25
ENDBRANCH   2   4
TORSDOF 7
ENDMDL
MODEL       97
REMARK 921   NORMALIZED FREE ENERGY PREDICTED BY IDOCK:   -4.98 KCAL/MOL
REMARK 922        TOTAL FREE ENERGY PREDICTED BY IDOCK:   -8.20 KCAL/MOL
REMARK 923 INTER-LIGAND FREE ENERGY PREDICTED BY IDOCK:   -6.97 KCAL/MOL
REMARK 924 INTRA-LIGAND FREE ENERGY PREDICTED BY IDOCK:   -1.24 KCAL/MOL
REMARK 927      BINDING AFFINITY PREDICTED BY RF-SCORE:    0.00 PKD
ROOT
HETATM    1  C   UNL     1      -6.471  15.143  67.641  1.00  0.00    -0.180 C  
HETATM    2  C   UNL     1      -7.139  16.430  68.140  1.00  0.00    -0.140 C  
HETATM    3  C   UNL     1      -6.721  16.778  69.568  1.00  0.00    -0.181 C  
ENDROOT
BRANCH   2   4
HETATM    4  N   UNL     1      -7.030  17.667  67.158  1.00  0.00    -0.160 N  
HETATM    5  C   UNL     1      -5.770  17.513  66.286  1.00  0.00    -0.208 C  
BRANCH   4   6
HETATM    6  C   UNL     1      -8.273  17.651  66.184  1.00  0.00    -0.169 C  
BRANCH   6   7
HETATM    7  C   UNL     1      -9.573  17.058  66.741  1.00  0.00    -0.264 C  
BRANCH   7   8
HETATM    8  O   UNL     1      -9.797  15.762  66.159  1.00  0.00    -0.269 OA 
BRANCH   8   9
HETATM    9  C   UNL     1     -10.743  14.969  66.763  1.00  0.00    -0.308 C  
HETATM   10  O   UNL     1     -11.915  14.991  66.396  1.00  0.00    -0.145 OA 
BRANCH   9  11
HETATM   11  C   UNL     1     -10.166  14.069  67.870  1.00  0.00    -0.240 C  
HETATM   12  C   UNL     1     -10.760  14.363  69.237  1.00  0.00    -0.225 A  
HETATM   13  C   UNL     1     -10.594  15.626  69.837  1.00  0.00    -0.328 A  
HETATM   14  C   UNL     1     -11.290  15.954  71.000  1.00  0.00    -0.434 A  
HETATM   15  C   UNL     1     -12.117  15.012  71.605  1.00  0.00    -0.410 A  
HETATM   16  C   UNL     1     -12.225  13.733  71.058  1.00  0.00    -0.401 A  
HETATM   17  C   UNL     1     -11.548  13.410  69.881  1.00  0.00    -0.200 A  
HETATM   18  O   UNL     1     -11.723  12.132  69.420  1.00  0.00    -0.291 OA 
HETATM   19  C   UNL     1     -11.029  11.732  68.305  1.00  0.00    -0.229 A  
HETATM   20  C   UNL     1     -11.120  10.372  67.992  1.00  0.00    -0.359 A  
HETATM   21  C   UNL     1     -10.479   9.865  66.864  1.00  0.00    -0.284 A  
HETATM   22  C   UNL     1      -9.743  10.719  66.050  1.00  0.00    -0.264 A  
HETATM   23  C   UNL     1      -9.634  12.075  66.372  1.00  0.00    -0.239 A  
HETATM   24  C   UNL     1     -10.282  12.601  67.504  1.00  0.00    -0.215 A  
ENDBRANCH   9  11
ENDBRANCH   8   9
ENDBRANCH   7   8
ENDBRANCH   6   7
ENDBRANCH   4   6
BRANCH   4  25
HETATM   25  C   UNL     1      -7.063  19.100  67.873  1.00  0.00    -0.231 C  
HETATM   26  C   UNL     1      -5.689  19.746  68.048  1.00  0.00    -0.228 C  
HETATM   27  C   UNL     1      -7.976  20.104  67.146  1.00  0.00    -0.363 C  
ENDBRANCH   4  25
ENDBRANCH   2   4
TORSDOF 7
ENDMDL
MODEL       98
REMARK 921   NORMALIZED FREE ENERGY PREDICTED BY IDOCK:   -4.98 KCAL/MOL
REMARK 922        TOTAL FREE ENERGY PREDICTED BY IDOCK:   -8.20 KCAL/MOL
REMARK 923 INTER-LIGAND FREE ENERGY PREDICTED BY IDOCK:   -7.31 KCAL/MOL
REMARK 924 INTRA-LIGAND FREE ENERGY PREDICTED BY IDOCK:   -0.89 KCAL/MOL
REMARK 927      BINDING AFFINITY PREDICTED BY RF-SCORE:    0.00 PKD
ROOT
HETATM    1  C   UNL     1     -10.446   5.375  69.880  1.00  0.00    -0.378 C  
HETATM    2  C   UNL     1     -10.098   6.642  69.090  1.00  0.00    -0.169 C  
HETATM    3  C   UNL     1     -10.929   6.771  67.813  1.00  0.00    -0.321 C  
ENDROOT
BRANCH   2   4
HETATM    4  N   UNL     1     -10.080   7.979  69.938  1.00  0.00    -0.194 N  
HETATM    5  C   UNL     1      -8.676   8.181  70.536  1.00  0.00    -0.135 C  
BRANCH   4   6
HETATM    6  C   UNL     1     -10.352   9.196  68.969  1.00  0.00    -0.215 C  
BRANCH   6   7
HETATM    7  C   UNL     1      -9.242  10.248  68.861  1.00  0.00    -0.175 C  
BRANCH   7   8
HETATM    8  O   UNL     1      -9.828  11.561  68.826  1.00  0.00    -0.201 OA 
BRANCH   8   9
HETATM    9  C   UNL     1      -9.249  12.474  67.978  1.00  0.00    -0.204 C  
HETATM   10  O   UNL     1      -8.164  12.247  67.449  1.00  0.00    -0.159 OA 
BRANCH   9  11
HETATM   11  C   UNL     1     -10.108  13.732  67.757  1.00  0.00    -0.245 C  
HETATM   12  C   UNL     1      -9.314  15.020  67.893  1.00  0.00    -0.183 A  
HETATM   13  C   UNL     1      -8.693  15.358  69.110  1.00  0.00    -0.242 A  
HETATM   14  C   UNL     1      -7.816  16.440  69.181  1.00  0.00    -0.214 A  
HETATM   15  C   UNL     1      -7.589  17.225  68.054  1.00  0.00    -0.197 A  
HETATM   16  C   UNL     1      -8.261  16.942  66.865  1.00  0.00    -0.245 A  
HETATM   17  C   UNL     1      -9.120  15.845  66.786  1.00  0.00    -0.248 A  
HETATM   18  O   UNL     1      -9.728  15.646  65.574  1.00  0.00    -0.321 OA 
HETATM   19  C   UNL     1     -10.638  14.625  65.451  1.00  0.00    -0.374 A  
HETATM   20  C   UNL     1     -11.344  14.587  64.245  1.00  0.00    -0.135 A  
HETATM   21  C   UNL     1     -12.270  13.575  64.004  1.00  0.00    -0.458 A  
HETATM   22  C   UNL     1     -12.492  12.602  64.973  1.00  0.00    -0.556 A  
HETATM   23  C   UNL     1     -11.802  12.650  66.187  1.00  0.00    -0.477 A  
HETATM   24  C   UNL     1     -10.859  13.662  66.441  1.00  0.00    -0.290 A  
ENDBRANCH   9  11
ENDBRANCH   8   9
ENDBRANCH   7   8
ENDBRANCH   6   7
ENDBRANCH   4   6
BRANCH   4  25
HETATM   25  C   UNL     1     -11.207   8.073  71.072  1.00  0.00    -0.266 C  
HETATM   26  C   UNL     1     -10.660   8.119  72.498  1.00  0.00    -0.411 C  
HETATM   27  C   UNL     1     -12.144   9.279  70.878  1.00  0.00    -0.297 C  
ENDBRANCH   4  25
ENDBRANCH   2   4
TORSDOF 7
ENDMDL
MODEL       99
REMARK 921   NORMALIZED FREE ENERGY PREDICTED BY IDOCK:   -4.97 KCAL/MOL
REMARK 922        TOTAL FREE ENERGY PREDICTED BY IDOCK:   -8.18 KCAL/MOL
REMARK 923 INTER-LIGAND FREE ENERGY PREDICTED BY IDOCK:   -7.15 KCAL/MOL
REMARK 924 INTRA-LIGAND FREE ENERGY PREDICTED BY IDOCK:   -1.03 KCAL/MOL
REMARK 927      BINDING AFFINITY PREDICTED BY RF-SCORE:    0.00 PKD
ROOT
HETATM    1  C   UNL     1     -10.381  20.138  65.912  1.00  0.00    -0.448 C  
HETATM    2  C   UNL     1      -9.492  20.090  67.160  1.00  0.00    -0.386 C  
HETATM    3  C   UNL     1     -10.311  20.002  68.447  1.00  0.00    -0.465 C  
ENDROOT
BRANCH   2   4
HETATM    4  N   UNL     1      -8.323  19.024  67.111  1.00  0.00    -0.274 N  
HETATM    5  C   UNL     1      -7.511  19.101  68.417  1.00  0.00    -0.307 C  
BRANCH   4   6
HETATM    6  C   UNL     1      -8.959  17.579  67.044  1.00  0.00    -0.240 C  
BRANCH   6   7
HETATM    7  C   UNL     1      -8.792  16.697  68.286  1.00  0.00    -0.214 C  
BRANCH   7   8
HETATM    8  O   UNL     1      -8.262  15.418  67.899  1.00  0.00    -0.137 OA 
BRANCH   8   9
HETATM    9  C   UNL     1      -9.120  14.347  67.964  1.00  0.00    -0.188 C  
HETATM   10  O   UNL     1      -9.872  14.197  68.924  1.00  0.00    -0.199 OA 
BRANCH   9  11
HETATM   11  C   UNL     1      -9.051  13.433  66.728  1.00  0.00    -0.221 C  
HETATM   12  C   UNL     1      -8.719  11.993  67.078  1.00  0.00    -0.188 A  
HETATM   13  C   UNL     1      -7.496  11.665  67.695  1.00  0.00    -0.116 A  
HETATM   14  C   UNL     1      -7.271  10.377  68.181  1.00  0.00    -0.087 A  
HETATM   15  C   UNL     1      -8.240   9.392  68.013  1.00  0.00    -0.114 A  
HETATM   16  C   UNL     1      -9.421   9.690  67.334  1.00  0.00    -0.170 A  
HETATM   17  C   UNL     1      -9.658  10.984  66.868  1.00  0.00    -0.182 A  
HETATM   18  O   UNL     1     -10.850  11.180  66.220  1.00  0.00    -0.263 OA 
HETATM   19  C   UNL     1     -11.112  12.413  65.677  1.00  0.00    -0.306 A  
HETATM   20  C   UNL     1     -12.262  12.492  64.885  1.00  0.00    -0.534 A  
HETATM   21  C   UNL     1     -12.637  13.704  64.310  1.00  0.00    -0.195 A  
HETATM   22  C   UNL     1     -11.859  14.837  64.525  1.00  0.00    -0.428 A  
HETATM   23  C   UNL     1     -10.698  14.755  65.299  1.00  0.00    -0.406 A  
HETATM   24  C   UNL     1     -10.312  13.540  65.891  1.00  0.00    -0.301 A  
ENDBRANCH   9  11
ENDBRANCH   8   9
ENDBRANCH   7   8
ENDBRANCH   6   7
ENDBRANCH   4   6
BRANCH   4  25
HETATM   25  C   UNL     1      -7.365  19.131  65.832  1.00  0.00    -0.252 C  
HETATM   26  C   UNL     1      -6.581  20.440  65.743  1.00  0.00    -0.272 C  
HETATM   27  C   UNL     1      -6.364  17.965  65.741  1.00  0.00    -0.258 C  
ENDBRANCH   4  25
ENDBRANCH   2   4
TORSDOF 7
ENDMDL
MODEL      100
REMARK 921   NORMALIZED FREE ENERGY PREDICTED BY IDOCK:   -4.96 KCAL/MOL
REMARK 922        TOTAL FREE ENERGY PREDICTED BY IDOCK:   -8.18 KCAL/MOL
REMARK 923 INTER-LIGAND FREE ENERGY PREDICTED BY IDOCK:   -7.16 KCAL/MOL
REMARK 924 INTRA-LIGAND FREE ENERGY PREDICTED BY IDOCK:   -1.01 KCAL/MOL
REMARK 927      BINDING AFFINITY PREDICTED BY RF-SCORE:    0.00 PKD
ROOT
HETATM    1  C   UNL     1     -10.233  11.318  66.688  1.00  0.00    -0.268 C  
HETATM    2  C   UNL     1     -10.047  10.363  65.504  1.00  0.00    -0.283 C  
HETATM    3  C   UNL     1     -10.493  10.991  64.183  1.00  0.00    -0.434 C  
ENDROOT
BRANCH   2   4
HETATM    4  N   UNL     1      -8.617   9.690  65.403  1.00  0.00    -0.143 N  
HETATM    5  C   UNL     1      -7.680  10.331  66.442  1.00  0.00    -0.116 C  
BRANCH   4   6
HETATM    6  C   UNL     1      -8.751   8.161  65.777  1.00  0.00    -0.154 C  
BRANCH   6   7
HETATM    7  C   UNL     1      -9.973   7.764  66.612  1.00  0.00    -0.228 C  
BRANCH   7   8
HETATM    8  O   UNL     1      -9.610   7.720  68.003  1.00  0.00    -0.146 OA 
BRANCH   8   9
HETATM    9  C   UNL     1     -10.504   7.118  68.856  1.00  0.00    -0.207 C  
HETATM   10  O   UNL     1     -11.370   6.358  68.432  1.00  0.00    -0.280 OA 
BRANCH   9  11
HETATM   11  C   UNL     1     -10.266   7.470  70.336  1.00  0.00    -0.202 C  
HETATM   12  C   UNL     1     -11.143   8.614  70.817  1.00  0.00    -0.295 A  
HETATM   13  C   UNL     1     -11.038   9.894  70.241  1.00  0.00    -0.368 A  
HETATM   14  C   UNL     1     -11.965  10.889  70.553  1.00  0.00    -0.466 A  
HETATM   15  C   UNL     1     -12.972  10.634  71.479  1.00  0.00    -0.566 A  
HETATM   16  C   UNL     1     -13.034   9.393  72.113  1.00  0.00    -0.503 A  
HETATM   17  C   UNL     1     -12.122   8.388  71.783  1.00  0.00    -0.328 A  
HETATM   18  O   UNL     1     -12.269   7.202  72.454  1.00  0.00    -0.183 OA 
HETATM   19  C   UNL     1     -11.361   6.198  72.227  1.00  0.00    -0.300 A  
HETATM   20  C   UNL     1     -11.467   5.086  73.067  1.00  0.00    -0.344 A  
HETATM   21  C   UNL     1     -10.614   3.997  72.903  1.00  0.00    -0.237 A  
HETATM   22  C   UNL     1      -9.652   4.022  71.899  1.00  0.00    -0.217 A  
HETATM   23  C   UNL     1      -9.531   5.142  71.071  1.00  0.00    -0.214 A  
HETATM   24  C   UNL     1     -10.390   6.245  71.221  1.00  0.00    -0.255 A  
ENDBRANCH   9  11
ENDBRANCH   8   9
ENDBRANCH   7   8
ENDBRANCH   6   7
ENDBRANCH   4   6
BRANCH   4  25
HETATM   25  C   UNL     1      -7.961   9.718  63.942  1.00  0.00    -0.146 C  
HETATM   26  C   UNL     1      -6.508  10.191  63.916  1.00  0.00    -0.120 C  
HETATM   27  C   UNL     1      -8.034   8.354  63.233  1.00  0.00    -0.161 C  
ENDBRANCH   4  25
ENDBRANCH   2   4
TORSDOF 7
ENDMDL
MODEL      101
REMARK 921   NORMALIZED FREE ENERGY PREDICTED BY IDOCK:   -4.92 KCAL/MOL
REMARK 922        TOTAL FREE ENERGY PREDICTED BY IDOCK:   -8.11 KCAL/MOL
REMARK 923 INTER-LIGAND FREE ENERGY PREDICTED BY IDOCK:   -7.25 KCAL/MOL
REMARK 924 INTRA-LIGAND FREE ENERGY PREDICTED BY IDOCK:   -0.87 KCAL/MOL
REMARK 927      BINDING AFFINITY PREDICTED BY RF-SCORE:    0.00 PKD
ROOT
HETATM    1  C   UNL     1      -9.673   7.221  69.113  1.00  0.00    -0.160 C  
HETATM    2  C   UNL     1      -9.331   8.558  69.782  1.00  0.00    -0.161 C  
HETATM    3  C   UNL     1      -9.556   8.519  71.294  1.00  0.00    -0.264 C  
ENDROOT
BRANCH   2   4
HETATM    4  N   UNL     1      -7.920   9.161  69.394  1.00  0.00    -0.093 N  
HETATM    5  C   UNL     1      -7.343   8.376  68.201  1.00  0.00    -0.096 C  
BRANCH   4   6
HETATM    6  C   UNL     1      -8.122  10.653  68.916  1.00  0.00    -0.139 C  
BRANCH   6   7
HETATM    7  C   UNL     1      -9.386  10.947  68.101  1.00  0.00    -0.165 C  
BRANCH   7   8
HETATM    8  O   UNL     1     -10.217  11.873  68.821  1.00  0.00    -0.207 OA 
BRANCH   8   9
HETATM    9  C   UNL     1     -11.574  11.762  68.634  1.00  0.00    -0.309 C  
HETATM   10  O   UNL     1     -12.132  10.669  68.686  1.00  0.00    -0.410 OA 
BRANCH   9  11
HETATM   11  C   UNL     1     -12.271  13.115  68.407  1.00  0.00    -0.065 C  
HETATM   12  C   UNL     1     -12.134  14.055  69.593  1.00  0.00    -0.408 A  
HETATM   13  C   UNL     1     -12.669  13.712  70.849  1.00  0.00    -0.382 A  
HETATM   14  C   UNL     1     -12.385  14.484  71.975  1.00  0.00    -0.367 A  
HETATM   15  C   UNL     1     -11.608  15.632  71.851  1.00  0.00    -0.547 A  
HETATM   16  C   UNL     1     -11.139  16.021  70.596  1.00  0.00    -0.352 A  
HETATM   17  C   UNL     1     -11.403  15.235  69.473  1.00  0.00    -0.288 A  
HETATM   18  O   UNL     1     -10.895  15.697  68.286  1.00  0.00    -0.274 OA 
HETATM   19  C   UNL     1     -11.178  15.007  67.134  1.00  0.00    -0.336 A  
HETATM   20  C   UNL     1     -10.776  15.625  65.946  1.00  0.00    -0.336 A  
HETATM   21  C   UNL     1     -10.987  14.997  64.720  1.00  0.00    -0.389 A  
HETATM   22  C   UNL     1     -11.605  13.751  64.684  1.00  0.00    -0.396 A  
HETATM   23  C   UNL     1     -12.027  13.142  65.869  1.00  0.00    -0.479 A  
HETATM   24  C   UNL     1     -11.813  13.761  67.113  1.00  0.00    -0.441 A  
ENDBRANCH   9  11
ENDBRANCH   8   9
ENDBRANCH   7   8
ENDBRANCH   6   7
ENDBRANCH   4   6
BRANCH   4  25
HETATM   25  C   UNL     1      -6.865   9.235  70.597  1.00  0.00    -0.094 C  
HETATM   26  C   UNL     1      -6.416   7.873  71.123  1.00  0.00    -0.037 C  
HETATM   27  C   UNL     1      -5.609  10.048  70.235  1.00  0.00    -0.051 C  
ENDBRANCH   4  25
ENDBRANCH   2   4
TORSDOF 7
ENDMDL
MODEL      102
REMARK 921   NORMALIZED FREE ENERGY PREDICTED BY IDOCK:   -4.90 KCAL/MOL
REMARK 922        TOTAL FREE ENERGY PREDICTED BY IDOCK:   -8.08 KCAL/MOL
REMARK 923 INTER-LIGAND FREE ENERGY PREDICTED BY IDOCK:   -6.34 KCAL/MOL
REMARK 924 INTRA-LIGAND FREE ENERGY PREDICTED BY IDOCK:   -1.74 KCAL/MOL
REMARK 927      BINDING AFFINITY PREDICTED BY RF-SCORE:    0.00 PKD
ROOT
HETATM    1  C   UNL     1      -8.955  15.096  66.294  1.00  0.00    -0.274 C  
HETATM    2  C   UNL     1     -10.477  15.240  66.189  1.00  0.00    -0.309 C  
HETATM    3  C   UNL     1     -10.895  16.063  64.970  1.00  0.00    -0.421 C  
ENDROOT
BRANCH   2   4
HETATM    4  N   UNL     1     -11.289  13.886  66.312  1.00  0.00    -0.317 N  
HETATM    5  C   UNL     1     -12.316  13.804  65.168  1.00  0.00    -0.448 C  
BRANCH   4   6
HETATM    6  C   UNL     1     -10.289  12.678  66.127  1.00  0.00    -0.256 C  
BRANCH   6   7
HETATM    7  C   UNL     1     -10.542  11.754  64.930  1.00  0.00    -0.294 C  
BRANCH   7   8
HETATM    8  O   UNL     1     -10.559  10.387  65.375  1.00  0.00    -0.178 OA 
BRANCH   8   9
HETATM    9  C   UNL     1      -9.476   9.612  65.031  1.00  0.00    -0.245 C  
HETATM   10  O   UNL     1      -9.209   9.386  63.854  1.00  0.00    -0.153 OA 
BRANCH   9  11
HETATM   11  C   UNL     1      -8.665   9.126  66.245  1.00  0.00    -0.159 C  
HETATM   12  C   UNL     1      -7.891  10.245  66.922  1.00  0.00    -0.112 A  
HETATM   13  C   UNL     1      -6.891  10.951  66.226  1.00  0.00    -0.123 A  
HETATM   14  C   UNL     1      -6.313  12.092  66.782  1.00  0.00     0.025 A  
HETATM   15  C   UNL     1      -6.687  12.510  68.057  1.00  0.00    -0.090 A  
HETATM   16  C   UNL     1      -7.620  11.769  68.783  1.00  0.00    -0.104 A  
HETATM   17  C   UNL     1      -8.217  10.641  68.218  1.00  0.00    -0.120 A  
HETATM   18  O   UNL     1      -9.126   9.985  69.007  1.00  0.00    -0.151 OA 
HETATM   19  C   UNL     1      -9.696   8.829  68.535  1.00  0.00    -0.162 A  
HETATM   20  C   UNL     1     -10.478   8.122  69.455  1.00  0.00    -0.223 A  
HETATM   21  C   UNL     1     -11.127   6.951  69.072  1.00  0.00    -0.188 A  
HETATM   22  C   UNL     1     -10.992   6.485  67.768  1.00  0.00    -0.407 A  
HETATM   23  C   UNL     1     -10.195   7.179  66.854  1.00  0.00    -0.330 A  
HETATM   24  C   UNL     1      -9.539   8.366  67.225  1.00  0.00    -0.215 A  
ENDBRANCH   9  11
ENDBRANCH   8   9
ENDBRANCH   7   8
ENDBRANCH   6   7
ENDBRANCH   4   6
BRANCH   4  25
HETATM   25  C   UNL     1     -11.991  13.648  67.733  1.00  0.00    -0.352 C  
HETATM   26  C   UNL     1     -11.771  12.253  68.315  1.00  0.00    -0.392 C  
HETATM   27  C   UNL     1     -11.559  14.682  68.788  1.00  0.00    -0.346 C  
ENDBRANCH   4  25
ENDBRANCH   2   4
TORSDOF 7
ENDMDL
MODEL      103
REMARK 921   NORMALIZED FREE ENERGY PREDICTED BY IDOCK:   -4.87 KCAL/MOL
REMARK 922        TOTAL FREE ENERGY PREDICTED BY IDOCK:   -8.05 KCAL/MOL
REMARK 923 INTER-LIGAND FREE ENERGY PREDICTED BY IDOCK:   -7.15 KCAL/MOL
REMARK 924 INTRA-LIGAND FREE ENERGY PREDICTED BY IDOCK:   -0.90 KCAL/MOL
REMARK 927      BINDING AFFINITY PREDICTED BY RF-SCORE:    0.00 PKD
ROOT
HETATM    1  C   UNL     1      -7.824   7.682  70.219  1.00  0.00    -0.092 C  
HETATM    2  C   UNL     1      -8.513   6.550  69.447  1.00  0.00    -0.127 C  
HETATM    3  C   UNL     1      -8.486   5.229  70.217  1.00  0.00    -0.111 C  
ENDROOT
BRANCH   2   4
HETATM    4  N   UNL     1      -9.953   6.897  68.889  1.00  0.00    -0.154 N  
HETATM    5  C   UNL     1     -10.951   5.823  69.358  1.00  0.00    -0.282 C  
BRANCH   4   6
HETATM    6  C   UNL     1     -10.420   8.271  69.514  1.00  0.00    -0.227 C  
BRANCH   6   7
HETATM    7  C   UNL     1     -10.716   9.407  68.529  1.00  0.00    -0.161 C  
BRANCH   7   8
HETATM    8  O   UNL     1     -10.471  10.672  69.167  1.00  0.00    -0.199 OA 
BRANCH   8   9
HETATM    9  C   UNL     1     -11.274  11.721  68.790  1.00  0.00    -0.251 C  
HETATM   10  O   UNL     1     -12.176  11.564  67.971  1.00  0.00    -0.582 OA 
BRANCH   9  11
HETATM   11  C   UNL     1     -10.941  13.036  69.517  1.00  0.00     0.035 C  
HETATM   12  C   UNL     1     -10.473  14.129  68.572  1.00  0.00    -0.252 A  
HETATM   13  C   UNL     1      -9.301  13.968  67.808  1.00  0.00    -0.205 A  
HETATM   14  C   UNL     1      -8.974  14.886  66.811  1.00  0.00    -0.295 A  
HETATM   15  C   UNL     1      -9.782  16.000  66.599  1.00  0.00    -0.261 A  
HETATM   16  C   UNL     1     -10.903  16.207  67.404  1.00  0.00    -0.265 A  
HETATM   17  C   UNL     1     -11.244  15.276  68.387  1.00  0.00    -0.309 A  
HETATM   18  O   UNL     1     -12.365  15.564  69.122  1.00  0.00    -0.215 OA 
HETATM   19  C   UNL     1     -12.715  14.724  70.149  1.00  0.00    -0.219 A  
HETATM   20  C   UNL     1     -13.762  15.167  70.963  1.00  0.00    -0.450 A  
HETATM   21  C   UNL     1     -14.217  14.378  72.016  1.00  0.00    -0.639 A  
HETATM   22  C   UNL     1     -13.621  13.145  72.259  1.00  0.00    -0.677 A  
HETATM   23  C   UNL     1     -12.560  12.709  71.459  1.00  0.00    -0.256 A  
HETATM   24  C   UNL     1     -12.096  13.492  70.388  1.00  0.00    -0.415 A  
ENDBRANCH   9  11
ENDBRANCH   8   9
ENDBRANCH   7   8
ENDBRANCH   6   7
ENDBRANCH   4   6
BRANCH   4  25
HETATM   25  C   UNL     1     -10.030   7.099  67.302  1.00  0.00    -0.186 C  
HETATM   26  C   UNL     1      -8.683   6.986  66.589  1.00  0.00    -0.131 C  
HETATM   27  C   UNL     1     -11.013   6.126  66.627  1.00  0.00    -0.225 C  
ENDBRANCH   4  25
ENDBRANCH   2   4
TORSDOF 7
ENDMDL
MODEL      104
REMARK 921   NORMALIZED FREE ENERGY PREDICTED BY IDOCK:   -4.86 KCAL/MOL
REMARK 922        TOTAL FREE ENERGY PREDICTED BY IDOCK:   -8.03 KCAL/MOL
REMARK 923 INTER-LIGAND FREE ENERGY PREDICTED BY IDOCK:   -6.92 KCAL/MOL
REMARK 924 INTRA-LIGAND FREE ENERGY PREDICTED BY IDOCK:   -1.10 KCAL/MOL
REMARK 927      BINDING AFFINITY PREDICTED BY RF-SCORE:    0.00 PKD
ROOT
HETATM    1  C   UNL     1     -13.715  16.257  73.201  1.00  0.00    -0.093 C  
HETATM    2  C   UNL     1     -12.417  15.565  72.769  1.00  0.00    -0.418 C  
HETATM    3  C   UNL     1     -11.808  14.729  73.894  1.00  0.00    -0.119 C  
ENDROOT
BRANCH   2   4
HETATM    4  N   UNL     1     -12.503  14.772  71.402  1.00  0.00    -0.315 N  
HETATM    5  C   UNL     1     -13.757  15.222  70.631  1.00  0.00    -0.046 C  
BRANCH   4   6
HETATM    6  C   UNL     1     -11.252  15.154  70.516  1.00  0.00    -0.280 C  
BRANCH   6   7
HETATM    7  C   UNL     1     -11.540  15.873  69.194  1.00  0.00    -0.379 C  
BRANCH   7   8
HETATM    8  O   UNL     1     -11.138  15.038  68.095  1.00  0.00    -0.268 OA 
BRANCH   8   9
HETATM    9  C   UNL     1     -10.461  15.651  67.068  1.00  0.00    -0.303 C  
HETATM   10  O   UNL     1     -10.493  16.871  66.929  1.00  0.00    -0.312 OA 
BRANCH   9  11
HETATM   11  C   UNL     1      -9.669  14.667  66.188  1.00  0.00    -0.344 C  
HETATM   12  C   UNL     1      -8.707  13.804  66.988  1.00  0.00    -0.212 A  
HETATM   13  C   UNL     1      -7.653  14.387  67.716  1.00  0.00    -0.175 A  
HETATM   14  C   UNL     1      -6.888  13.617  68.593  1.00  0.00    -0.097 A  
HETATM   15  C   UNL     1      -7.134  12.252  68.715  1.00  0.00    -0.107 A  
HETATM   16  C   UNL     1      -8.126  11.655  67.938  1.00  0.00    -0.138 A  
HETATM   17  C   UNL     1      -8.908  12.428  67.078  1.00  0.00    -0.210 A  
HETATM   18  O   UNL     1      -9.861  11.751  66.363  1.00  0.00    -0.204 OA 
HETATM   19  C   UNL     1     -10.616  12.442  65.448  1.00  0.00    -0.284 A  
HETATM   20  C   UNL     1     -11.444  11.663  64.635  1.00  0.00    -0.249 A  
HETATM   21  C   UNL     1     -12.274  12.266  63.693  1.00  0.00    -0.665 A  
HETATM   22  C   UNL     1     -12.273  13.651  63.563  1.00  0.00    -0.329 A  
HETATM   23  C   UNL     1     -11.431  14.430  64.361  1.00  0.00    -0.299 A  
HETATM   24  C   UNL     1     -10.593  13.835  65.320  1.00  0.00    -0.363 A  
ENDBRANCH   9  11
ENDBRANCH   8   9
ENDBRANCH   7   8
ENDBRANCH   6   7
ENDBRANCH   4   6
BRANCH   4  25
HETATM   25  C   UNL     1     -12.456  13.177  71.544  1.00  0.00    -0.098 C  
HETATM   26  C   UNL     1     -13.784  12.545  71.960  1.00  0.00    -0.251 C  
HETATM   27  C   UNL     1     -11.976  12.480  70.258  1.00  0.00    -0.364 C  
ENDBRANCH   4  25
ENDBRANCH   2   4
TORSDOF 7
ENDMDL
MODEL      105
REMARK 921   NORMALIZED FREE ENERGY PREDICTED BY IDOCK:   -4.85 KCAL/MOL
REMARK 922        TOTAL FREE ENERGY PREDICTED BY IDOCK:   -8.02 KCAL/MOL
REMARK 923 INTER-LIGAND FREE ENERGY PREDICTED BY IDOCK:   -6.83 KCAL/MOL
REMARK 924 INTRA-LIGAND FREE ENERGY PREDICTED BY IDOCK:   -1.19 KCAL/MOL
REMARK 927      BINDING AFFINITY PREDICTED BY RF-SCORE:    0.00 PKD
ROOT
HETATM    1  C   UNL     1     -12.249  13.708  69.520  1.00  0.00    -0.316 C  
HETATM    2  C   UNL     1     -11.312  14.325  68.475  1.00  0.00    -0.282 C  
HETATM    3  C   UNL     1     -10.151  15.083  69.118  1.00  0.00    -0.245 C  
ENDROOT
BRANCH   2   4
HETATM    4  N   UNL     1     -10.833  13.336  67.336  1.00  0.00    -0.264 N  
HETATM    5  C   UNL     1      -9.322  13.085  67.485  1.00  0.00    -0.200 C  
BRANCH   4   6
HETATM    6  C   UNL     1     -11.558  11.947  67.535  1.00  0.00    -0.304 C  
BRANCH   6   7
HETATM    7  C   UNL     1     -10.764  10.696  67.142  1.00  0.00    -0.272 C  
BRANCH   7   8
HETATM    8  O   UNL     1     -10.846   9.724  68.199  1.00  0.00    -0.242 OA 
BRANCH   8   9
HETATM    9  C   UNL     1     -10.403   8.456  67.907  1.00  0.00    -0.221 C  
HETATM   10  O   UNL     1     -10.778   7.872  66.893  1.00  0.00    -0.333 OA 
BRANCH   9  11
HETATM   11  C   UNL     1      -9.401   7.908  68.939  1.00  0.00    -0.150 C  
HETATM   12  C   UNL     1      -8.152   8.765  69.058  1.00  0.00    -0.116 A  
HETATM   13  C   UNL     1      -7.295   8.946  67.956  1.00  0.00    -0.084 A  
HETATM   14  C   UNL     1      -6.256   9.874  68.011  1.00  0.00    -0.054 A  
HETATM   15  C   UNL     1      -6.029  10.594  69.181  1.00  0.00    -0.041 A  
HETATM   16  C   UNL     1      -6.826  10.364  70.303  1.00  0.00    -0.132 A  
HETATM   17  C   UNL     1      -7.881   9.452  70.241  1.00  0.00    -0.156 A  
HETATM   18  O   UNL     1      -8.610   9.300  71.391  1.00  0.00    -0.326 OA 
HETATM   19  C   UNL     1      -9.617   8.367  71.417  1.00  0.00    -0.194 A  
HETATM   20  C   UNL     1     -10.202   8.143  72.667  1.00  0.00    -0.388 A  
HETATM   21  C   UNL     1     -11.254   7.239  72.800  1.00  0.00    -0.348 A  
HETATM   22  C   UNL     1     -11.718   6.556  71.680  1.00  0.00    -0.374 A  
HETATM   23  C   UNL     1     -11.121   6.764  70.434  1.00  0.00    -0.357 A  
HETATM   24  C   UNL     1     -10.064   7.678  70.284  1.00  0.00    -0.198 A  
ENDBRANCH   9  11
ENDBRANCH   8   9
ENDBRANCH   7   8
ENDBRANCH   6   7
ENDBRANCH   4   6
BRANCH   4  25
HETATM   25  C   UNL     1     -11.195  13.799  65.845  1.00  0.00    -0.302 C  
HETATM   26  C   UNL     1     -12.694  13.911  65.570  1.00  0.00    -0.536 C  
HETATM   27  C   UNL     1     -10.534  15.135  65.463  1.00  0.00    -0.400 C  
ENDBRANCH   4  25
ENDBRANCH   2   4
TORSDOF 7
ENDMDL
MODEL      106
REMARK 921   NORMALIZED FREE ENERGY PREDICTED BY IDOCK:   -4.85 KCAL/MOL
REMARK 922        TOTAL FREE ENERGY PREDICTED BY IDOCK:   -8.02 KCAL/MOL
REMARK 923 INTER-LIGAND FREE ENERGY PREDICTED BY IDOCK:   -6.55 KCAL/MOL
REMARK 924 INTRA-LIGAND FREE ENERGY PREDICTED BY IDOCK:   -1.46 KCAL/MOL
REMARK 927      BINDING AFFINITY PREDICTED BY RF-SCORE:    0.00 PKD
ROOT
HETATM    1  C   UNL     1     -10.560  12.260  64.923  1.00  0.00    -0.329 C  
HETATM    2  C   UNL     1     -11.016  13.586  65.541  1.00  0.00    -0.288 C  
HETATM    3  C   UNL     1     -12.472  13.908  65.202  1.00  0.00    -0.479 C  
ENDROOT
BRANCH   2   4
HETATM    4  N   UNL     1     -10.702  13.751  67.084  1.00  0.00    -0.280 N  
HETATM    5  C   UNL     1     -11.867  14.495  67.762  1.00  0.00    -0.357 C  
BRANCH   4   6
HETATM    6  C   UNL     1     -10.623  12.316  67.740  1.00  0.00    -0.219 C  
BRANCH   6   7
HETATM    7  C   UNL     1     -11.542  12.058  68.940  1.00  0.00    -0.321 C  
BRANCH   7   8
HETATM    8  O   UNL     1     -10.902  11.143  69.846  1.00  0.00    -0.169 OA 
BRANCH   8   9
HETATM    9  C   UNL     1     -11.590   9.994  70.153  1.00  0.00    -0.252 C  
HETATM   10  O   UNL     1     -12.766  10.036  70.504  1.00  0.00    -0.236 OA 
BRANCH   9  11
HETATM   11  C   UNL     1     -10.753   8.715  69.970  1.00  0.00    -0.233 C  
HETATM   12  C   UNL     1     -10.002   8.688  68.649  1.00  0.00    -0.197 A  
HETATM   13  C   UNL     1     -10.697   8.703  67.425  1.00  0.00    -0.212 A  
HETATM   14  C   UNL     1     -10.010   8.864  66.222  1.00  0.00    -0.337 A  
HETATM   15  C   UNL     1      -8.621   8.959  66.223  1.00  0.00    -0.145 A  
HETATM   16  C   UNL     1      -7.920   8.866  67.426  1.00  0.00    -0.101 A  
HETATM   17  C   UNL     1      -8.609   8.729  68.633  1.00  0.00    -0.134 A  
HETATM   18  O   UNL     1      -7.833   8.653  69.760  1.00  0.00    -0.088 OA 
HETATM   19  C   UNL     1      -8.447   8.448  70.971  1.00  0.00    -0.143 A  
HETATM   20  C   UNL     1      -7.590   8.208  72.050  1.00  0.00    -0.129 A  
HETATM   21  C   UNL     1      -8.106   8.017  73.329  1.00  0.00    -0.240 A  
HETATM   22  C   UNL     1      -9.482   8.063  73.529  1.00  0.00    -0.248 A  
HETATM   23  C   UNL     1     -10.341   8.282  72.448  1.00  0.00    -0.402 A  
HETATM   24  C   UNL     1      -9.833   8.484  71.153  1.00  0.00    -0.263 A  
ENDBRANCH   9  11
ENDBRANCH   8   9
ENDBRANCH   7   8
ENDBRANCH   6   7
ENDBRANCH   4   6
BRANCH   4  25
HETATM   25  C   UNL     1      -9.301  14.452  67.416  1.00  0.00    -0.199 C  
HETATM   26  C   UNL     1      -8.114  13.490  67.463  1.00  0.00    -0.190 C  
HETATM   27  C   UNL     1      -8.959  15.588  66.435  1.00  0.00    -0.359 C  
ENDBRANCH   4  25
ENDBRANCH   2   4
TORSDOF 7
ENDMDL
MODEL      107
REMARK 921   NORMALIZED FREE ENERGY PREDICTED BY IDOCK:   -4.85 KCAL/MOL
REMARK 922        TOTAL FREE ENERGY PREDICTED BY IDOCK:   -8.01 KCAL/MOL
REMARK 923 INTER-LIGAND FREE ENERGY PREDICTED BY IDOCK:   -7.18 KCAL/MOL
REMARK 924 INTRA-LIGAND FREE ENERGY PREDICTED BY IDOCK:   -0.83 KCAL/MOL
REMARK 927      BINDING AFFINITY PREDICTED BY RF-SCORE:    0.00 PKD
ROOT
HETATM    1  C   UNL     1      -8.685  10.796  67.893  1.00  0.00    -0.129 C  
HETATM    2  C   UNL     1      -9.112  11.415  66.557  1.00  0.00    -0.186 C  
HETATM    3  C   UNL     1      -9.154  10.382  65.431  1.00  0.00    -0.221 C  
ENDROOT
BRANCH   2   4
HETATM    4  N   UNL     1     -10.423  12.301  66.616  1.00  0.00    -0.220 N  
HETATM    5  C   UNL     1     -11.418  11.668  67.605  1.00  0.00    -0.303 C  
BRANCH   4   6
HETATM    6  C   UNL     1     -10.045  13.726  67.185  1.00  0.00    -0.241 C  
BRANCH   6   7
HETATM    7  C   UNL     1      -8.551  14.062  67.257  1.00  0.00    -0.216 C  
BRANCH   7   8
HETATM    8  O   UNL     1      -8.240  14.590  68.557  1.00  0.00    -0.142 OA 
BRANCH   8   9
HETATM    9  C   UNL     1      -8.688  15.860  68.832  1.00  0.00    -0.225 C  
HETATM   10  O   UNL     1      -9.575  16.053  69.659  1.00  0.00    -0.236 OA 
BRANCH   9  11
HETATM   11  C   UNL     1      -7.945  16.952  68.041  1.00  0.00    -0.185 C  
HETATM   12  C   UNL     1      -8.882  17.833  67.232  1.00  0.00    -0.240 A  
HETATM   13  C   UNL     1      -9.678  17.287  66.207  1.00  0.00    -0.282 A  
HETATM   14  C   UNL     1     -10.667  18.055  65.593  1.00  0.00    -0.049 A  
HETATM   15  C   UNL     1     -10.837  19.388  65.957  1.00  0.00    -0.405 A  
HETATM   16  C   UNL     1     -10.000  19.957  66.917  1.00  0.00    -0.563 A  
HETATM   17  C   UNL     1      -9.026  19.183  67.550  1.00  0.00    -0.295 A  
HETATM   18  O   UNL     1      -8.258  19.830  68.482  1.00  0.00    -0.314 OA 
HETATM   19  C   UNL     1      -7.237  19.142  69.089  1.00  0.00    -0.300 A  
HETATM   20  C   UNL     1      -6.390  19.907  69.897  1.00  0.00    -0.395 A  
HETATM   21  C   UNL     1      -5.339  19.303  70.584  1.00  0.00    -0.243 A  
HETATM   22  C   UNL     1      -5.135  17.932  70.460  1.00  0.00    -0.265 A  
HETATM   23  C   UNL     1      -5.968  17.170  69.637  1.00  0.00    -0.239 A  
HETATM   24  C   UNL     1      -7.037  17.766  68.944  1.00  0.00    -0.262 A  
ENDBRANCH   9  11
ENDBRANCH   8   9
ENDBRANCH   7   8
ENDBRANCH   6   7
ENDBRANCH   4   6
BRANCH   4  25
HETATM   25  C   UNL     1     -11.115  12.575  65.199  1.00  0.00    -0.299 C  
HETATM   26  C   UNL     1     -12.619  12.840  65.276  1.00  0.00    -0.460 C  
HETATM   27  C   UNL     1     -10.461  13.740  64.434  1.00  0.00    -0.265 C  
ENDBRANCH   4  25
ENDBRANCH   2   4
TORSDOF 7
ENDMDL
MODEL      108
REMARK 921   NORMALIZED FREE ENERGY PREDICTED BY IDOCK:   -4.85 KCAL/MOL
REMARK 922        TOTAL FREE ENERGY PREDICTED BY IDOCK:   -8.01 KCAL/MOL
REMARK 923 INTER-LIGAND FREE ENERGY PREDICTED BY IDOCK:   -6.98 KCAL/MOL
REMARK 924 INTRA-LIGAND FREE ENERGY PREDICTED BY IDOCK:   -1.04 KCAL/MOL
REMARK 927      BINDING AFFINITY PREDICTED BY RF-SCORE:    0.00 PKD
ROOT
HETATM    1  C   UNL     1     -12.036  14.987  73.999  1.00  0.00    -0.566 C  
HETATM    2  C   UNL     1     -12.471  15.604  72.665  1.00  0.00    -0.428 C  
HETATM    3  C   UNL     1     -11.503  16.688  72.190  1.00  0.00     0.074 C  
ENDROOT
BRANCH   2   4
HETATM    4  N   UNL     1     -12.820  14.562  71.525  1.00  0.00    -0.317 N  
HETATM    5  C   UNL     1     -14.134  14.981  70.841  1.00  0.00    -0.085 C  
BRANCH   4   6
HETATM    6  C   UNL     1     -11.686  14.615  70.427  1.00  0.00    -0.295 C  
BRANCH   6   7
HETATM    7  C   UNL     1     -12.118  15.024  69.014  1.00  0.00    -0.208 C  
BRANCH   7   8
HETATM    8  O   UNL     1     -11.128  15.898  68.444  1.00  0.00    -0.310 OA 
BRANCH   8   9
HETATM    9  C   UNL     1     -10.718  15.616  67.163  1.00  0.00    -0.314 C  
HETATM   10  O   UNL     1     -11.384  14.889  66.432  1.00  0.00    -0.342 OA 
BRANCH   9  11
HETATM   11  C   UNL     1      -9.408  16.325  66.773  1.00  0.00    -0.258 C  
HETATM   12  C   UNL     1      -9.488  17.834  66.926  1.00  0.00    -0.271 A  
HETATM   13  C   UNL     1     -10.408  18.587  66.172  1.00  0.00    -0.457 A  
HETATM   14  C   UNL     1     -10.608  19.940  66.445  1.00  0.00    -0.532 A  
HETATM   15  C   UNL     1      -9.858  20.567  67.435  1.00  0.00    -0.574 A  
HETATM   16  C   UNL     1      -8.889  19.846  68.133  1.00  0.00    -0.309 A  
HETATM   17  C   UNL     1      -8.705  18.486  67.878  1.00  0.00    -0.284 A  
HETATM   18  O   UNL     1      -7.735  17.863  68.619  1.00  0.00    -0.284 OA 
HETATM   19  C   UNL     1      -7.457  16.542  68.367  1.00  0.00    -0.186 A  
HETATM   20  C   UNL     1      -6.345  16.021  69.034  1.00  0.00    -0.140 A  
HETATM   21  C   UNL     1      -5.991  14.683  68.873  1.00  0.00    -0.085 A  
HETATM   22  C   UNL     1      -6.750  13.867  68.040  1.00  0.00    -0.146 A  
HETATM   23  C   UNL     1      -7.850  14.392  67.356  1.00  0.00    -0.211 A  
HETATM   24  C   UNL     1      -8.222  15.739  67.515  1.00  0.00    -0.181 A  
ENDBRANCH   9  11
ENDBRANCH   8   9
ENDBRANCH   7   8
ENDBRANCH   6   7
ENDBRANCH   4   6
BRANCH   4  25
HETATM   25  C   UNL     1     -12.883  13.035  72.004  1.00  0.00    -0.192 C  
HETATM   26  C   UNL     1     -14.279  12.561  72.408  1.00  0.00     0.307 C  
HETATM   27  C   UNL     1     -12.331  12.059  70.949  1.00  0.00    -0.384 C  
ENDBRANCH   4  25
ENDBRANCH   2   4
TORSDOF 7
ENDMDL
MODEL      109
REMARK 921   NORMALIZED FREE ENERGY PREDICTED BY IDOCK:   -4.84 KCAL/MOL
REMARK 922        TOTAL FREE ENERGY PREDICTED BY IDOCK:   -8.01 KCAL/MOL
REMARK 923 INTER-LIGAND FREE ENERGY PREDICTED BY IDOCK:   -7.67 KCAL/MOL
REMARK 924 INTRA-LIGAND FREE ENERGY PREDICTED BY IDOCK:   -0.33 KCAL/MOL
REMARK 927      BINDING AFFINITY PREDICTED BY RF-SCORE:    0.00 PKD
ROOT
HETATM    1  C   UNL     1      -8.060   7.791  67.889  1.00  0.00    -0.126 C  
HETATM    2  C   UNL     1      -8.245   9.237  68.365  1.00  0.00    -0.115 C  
HETATM    3  C   UNL     1      -6.945   9.837  68.901  1.00  0.00    -0.062 C  
ENDROOT
BRANCH   2   4
HETATM    4  N   UNL     1      -8.976  10.194  67.338  1.00  0.00    -0.135 N  
HETATM    5  C   UNL     1     -10.464  10.301  67.715  1.00  0.00    -0.226 C  
BRANCH   4   6
HETATM    6  C   UNL     1      -8.357  11.642  67.468  1.00  0.00    -0.151 C  
BRANCH   6   7
HETATM    7  C   UNL     1      -9.117  12.635  68.354  1.00  0.00    -0.128 C  
BRANCH   7   8
HETATM    8  O   UNL     1      -9.219  13.901  67.679  1.00  0.00    -0.185 OA 
BRANCH   8   9
HETATM    9  C   UNL     1      -9.624  14.974  68.435  1.00  0.00    -0.212 C  
HETATM   10  O   UNL     1      -9.052  15.262  69.482  1.00  0.00    -0.241 OA 
BRANCH   9  11
HETATM   11  C   UNL     1     -10.798  15.750  67.810  1.00  0.00    -0.316 C  
HETATM   12  C   UNL     1     -10.474  17.216  67.574  1.00  0.00    -0.348 A  
HETATM   13  C   UNL     1     -10.163  18.068  68.650  1.00  0.00    -0.385 A  
HETATM   14  C   UNL     1      -9.688  19.359  68.418  1.00  0.00    -0.488 A  
HETATM   15  C   UNL     1      -9.569  19.831  67.114  1.00  0.00    -0.483 A  
HETATM   16  C   UNL     1      -9.950  19.019  66.045  1.00  0.00    -0.334 A  
HETATM   17  C   UNL     1     -10.402  17.718  66.275  1.00  0.00    -0.358 A  
HETATM   18  O   UNL     1     -10.747  16.998  65.162  1.00  0.00    -0.672 OA 
HETATM   19  C   UNL     1     -11.264  15.737  65.325  1.00  0.00    -0.190 A  
HETATM   20  C   UNL     1     -11.753  15.129  64.164  1.00  0.00    -0.123 A  
HETATM   21  C   UNL     1     -12.272  13.837  64.212  1.00  0.00    -0.444 A  
HETATM   22  C   UNL     1     -12.306  13.154  65.424  1.00  0.00    -0.532 A  
HETATM   23  C   UNL     1     -11.837  13.768  66.589  1.00  0.00    -0.445 A  
HETATM   24  C   UNL     1     -11.303  15.069  66.553  1.00  0.00    -0.280 A  
ENDBRANCH   9  11
ENDBRANCH   8   9
ENDBRANCH   7   8
ENDBRANCH   6   7
ENDBRANCH   4   6
BRANCH   4  25
HETATM   25  C   UNL     1      -8.800   9.790  65.798  1.00  0.00    -0.153 C  
HETATM   26  C   UNL     1      -9.868  10.369  64.871  1.00  0.00    -0.400 C  
HETATM   27  C   UNL     1      -7.419  10.175  65.237  1.00  0.00    -0.145 C  
ENDBRANCH   4  25
ENDBRANCH   2   4
TORSDOF 7
ENDMDL
MODEL      110
REMARK 921   NORMALIZED FREE ENERGY PREDICTED BY IDOCK:   -4.81 KCAL/MOL
REMARK 922        TOTAL FREE ENERGY PREDICTED BY IDOCK:   -7.97 KCAL/MOL
REMARK 923 INTER-LIGAND FREE ENERGY PREDICTED BY IDOCK:   -7.13 KCAL/MOL
REMARK 924 INTRA-LIGAND FREE ENERGY PREDICTED BY IDOCK:   -0.84 KCAL/MOL
REMARK 927      BINDING AFFINITY PREDICTED BY RF-SCORE:    0.00 PKD
ROOT
HETATM    1  C   UNL     1      -9.916  12.984  65.217  1.00  0.00    -0.186 C  
HETATM    2  C   UNL     1      -9.902  12.808  66.740  1.00  0.00    -0.242 C  
HETATM    3  C   UNL     1      -8.695  13.488  67.387  1.00  0.00    -0.220 C  
ENDROOT
BRANCH   2   4
HETATM    4  N   UNL     1     -11.261  13.164  67.470  1.00  0.00    -0.271 N  
HETATM    5  C   UNL     1     -12.292  13.626  66.424  1.00  0.00    -0.389 C  
BRANCH   4   6
HETATM    6  C   UNL     1     -11.834  11.853  68.140  1.00  0.00    -0.270 C  
BRANCH   6   7
HETATM    7  C   UNL     1     -11.057  10.556  67.883  1.00  0.00    -0.304 C  
BRANCH   7   8
HETATM    8  O   UNL     1     -10.993   9.787  69.097  1.00  0.00    -0.222 OA 
BRANCH   8   9
HETATM    9  C   UNL     1     -10.204   8.662  69.074  1.00  0.00    -0.207 C  
HETATM   10  O   UNL     1      -9.005   8.735  68.817  1.00  0.00    -0.137 OA 
BRANCH   9  11
HETATM   11  C   UNL     1     -10.968   7.375  69.435  1.00  0.00    -0.126 C  
HETATM   12  C   UNL     1     -10.644   6.218  68.504  1.00  0.00    -0.315 A  
HETATM   13  C   UNL     1     -10.933   6.298  67.129  1.00  0.00    -0.453 A  
HETATM   14  C   UNL     1     -10.470   5.318  66.251  1.00  0.00    -0.311 A  
HETATM   15  C   UNL     1      -9.761   4.225  66.741  1.00  0.00    -0.241 A  
HETATM   16  C   UNL     1      -9.539   4.100  68.112  1.00  0.00    -0.195 A  
HETATM   17  C   UNL     1      -9.980   5.093  68.989  1.00  0.00    -0.195 A  
HETATM   18  O   UNL     1      -9.709   4.883  70.316  1.00  0.00    -0.179 OA 
HETATM   19  C   UNL     1     -10.178   5.787  71.237  1.00  0.00    -0.215 A  
HETATM   20  C   UNL     1     -10.015   5.424  72.577  1.00  0.00    -0.201 A  
HETATM   21  C   UNL     1     -10.428   6.283  73.594  1.00  0.00    -0.299 A  
HETATM   22  C   UNL     1     -11.008   7.505  73.268  1.00  0.00    -0.362 A  
HETATM   23  C   UNL     1     -11.190   7.860  71.928  1.00  0.00    -0.320 A  
HETATM   24  C   UNL     1     -10.771   7.006  70.893  1.00  0.00    -0.259 A  
ENDBRANCH   9  11
ENDBRANCH   8   9
ENDBRANCH   7   8
ENDBRANCH   6   7
ENDBRANCH   4   6
BRANCH   4  25
HETATM   25  C   UNL     1     -11.129  14.230  68.658  1.00  0.00    -0.253 C  
HETATM   26  C   UNL     1     -11.503  15.658  68.264  1.00  0.00    -0.353 C  
HETATM   27  C   UNL     1     -11.957  13.842  69.897  1.00  0.00    -0.405 C  
ENDBRANCH   4  25
ENDBRANCH   2   4
TORSDOF 7
ENDMDL
MODEL      111
REMARK 921   NORMALIZED FREE ENERGY PREDICTED BY IDOCK:   -4.80 KCAL/MOL
REMARK 922        TOTAL FREE ENERGY PREDICTED BY IDOCK:   -7.95 KCAL/MOL
REMARK 923 INTER-LIGAND FREE ENERGY PREDICTED BY IDOCK:   -7.26 KCAL/MOL
REMARK 924 INTRA-LIGAND FREE ENERGY PREDICTED BY IDOCK:   -0.69 KCAL/MOL
REMARK 927      BINDING AFFINITY PREDICTED BY RF-SCORE:    0.00 PKD
ROOT
HETATM    1  C   UNL     1     -12.479  12.284  64.370  1.00  0.00    -0.484 C  
HETATM    2  C   UNL     1     -11.793  13.387  65.184  1.00  0.00    -0.350 C  
HETATM    3  C   UNL     1     -12.766  14.497  65.584  1.00  0.00    -0.186 C  
ENDROOT
BRANCH   2   4
HETATM    4  N   UNL     1     -10.920  12.878  66.402  1.00  0.00    -0.280 N  
HETATM    5  C   UNL     1     -11.729  13.027  67.703  1.00  0.00    -0.366 C  
BRANCH   4   6
HETATM    6  C   UNL     1     -10.631  11.338  66.208  1.00  0.00    -0.263 C  
BRANCH   6   7
HETATM    7  C   UNL     1     -10.912  10.429  67.410  1.00  0.00    -0.270 C  
BRANCH   7   8
HETATM    8  O   UNL     1     -10.540   9.078  67.088  1.00  0.00    -0.272 OA 
BRANCH   8   9
HETATM    9  C   UNL     1      -9.906   8.360  68.074  1.00  0.00    -0.169 C  
HETATM   10  O   UNL     1      -8.759   8.635  68.418  1.00  0.00    -0.140 OA 
BRANCH   9  11
HETATM   11  C   UNL     1     -10.786   7.256  68.685  1.00  0.00    -0.172 C  
HETATM   12  C   UNL     1     -10.343   5.859  68.281  1.00  0.00    -0.263 A  
HETATM   13  C   UNL     1     -10.354   5.463  66.931  1.00  0.00    -0.310 A  
HETATM   14  C   UNL     1      -9.777   4.254  66.543  1.00  0.00    -0.236 A  
HETATM   15  C   UNL     1      -9.229   3.406  67.501  1.00  0.00    -0.231 A  
HETATM   16  C   UNL     1      -9.284   3.757  68.850  1.00  0.00    -0.220 A  
HETATM   17  C   UNL     1      -9.840   4.978  69.238  1.00  0.00    -0.196 A  
HETATM   18  O   UNL     1      -9.842   5.235  70.584  1.00  0.00    -0.173 OA 
HETATM   19  C   UNL     1     -10.437   6.387  71.035  1.00  0.00    -0.223 A  
HETATM   20  C   UNL     1     -10.556   6.503  72.423  1.00  0.00    -0.242 A  
HETATM   21  C   UNL     1     -11.118   7.645  72.989  1.00  0.00    -0.437 A  
HETATM   22  C   UNL     1     -11.564   8.672  72.164  1.00  0.00    -0.440 A  
HETATM   23  C   UNL     1     -11.464   8.550  70.775  1.00  0.00    -0.281 A  
HETATM   24  C   UNL     1     -10.893   7.405  70.191  1.00  0.00    -0.270 A  
ENDBRANCH   9  11
ENDBRANCH   8   9
ENDBRANCH   7   8
ENDBRANCH   6   7
ENDBRANCH   4   6
BRANCH   4  25
HETATM   25  C   UNL     1      -9.482  13.571  66.537  1.00  0.00    -0.256 C  
HETATM   26  C   UNL     1      -9.490  15.083  66.313  1.00  0.00    -0.342 C  
HETATM   27  C   UNL     1      -8.814  13.291  67.895  1.00  0.00    -0.192 C  
ENDBRANCH   4  25
ENDBRANCH   2   4
TORSDOF 7
ENDMDL
MODEL      112
REMARK 921   NORMALIZED FREE ENERGY PREDICTED BY IDOCK:   -4.80 KCAL/MOL
REMARK 922        TOTAL FREE ENERGY PREDICTED BY IDOCK:   -7.95 KCAL/MOL
REMARK 923 INTER-LIGAND FREE ENERGY PREDICTED BY IDOCK:   -7.03 KCAL/MOL
REMARK 924 INTRA-LIGAND FREE ENERGY PREDICTED BY IDOCK:   -0.92 KCAL/MOL
REMARK 927      BINDING AFFINITY PREDICTED BY RF-SCORE:    0.00 PKD
ROOT
HETATM    1  C   UNL     1      -5.385  16.916  67.723  1.00  0.00    -0.134 C  
HETATM    2  C   UNL     1      -6.509  17.706  68.405  1.00  0.00    -0.193 C  
HETATM    3  C   UNL     1      -6.052  19.100  68.836  1.00  0.00    -0.257 C  
ENDROOT
BRANCH   2   4
HETATM    4  N   UNL     1      -7.882  17.735  67.618  1.00  0.00    -0.207 N  
HETATM    5  C   UNL     1      -7.610  17.558  66.114  1.00  0.00    -0.285 C  
BRANCH   4   6
HETATM    6  C   UNL     1      -8.755  16.502  68.081  1.00  0.00    -0.194 C  
BRANCH   6   7
HETATM    7  C   UNL     1      -9.100  15.464  67.008  1.00  0.00    -0.227 C  
BRANCH   7   8
HETATM    8  O   UNL     1      -8.901  14.142  67.537  1.00  0.00    -0.180 OA 
BRANCH   8   9
HETATM    9  C   UNL     1     -10.008  13.507  68.047  1.00  0.00    -0.248 C  
HETATM   10  O   UNL     1     -10.715  14.049  68.893  1.00  0.00    -0.249 OA 
BRANCH   9  11
HETATM   11  C   UNL     1     -10.257  12.122  67.423  1.00  0.00    -0.211 C  
HETATM   12  C   UNL     1     -10.944  12.200  66.070  1.00  0.00    -0.332 A  
HETATM   13  C   UNL     1     -12.231  12.759  65.947  1.00  0.00    -0.422 A  
HETATM   14  C   UNL     1     -12.781  12.998  64.688  1.00  0.00    -0.367 A  
HETATM   15  C   UNL     1     -12.078  12.636  63.543  1.00  0.00    -0.648 A  
HETATM   16  C   UNL     1     -10.837  12.011  63.659  1.00  0.00    -0.510 A  
HETATM   17  C   UNL     1     -10.274  11.793  64.918  1.00  0.00    -0.273 A  
HETATM   18  O   UNL     1      -9.049  11.178  64.929  1.00  0.00    -0.179 OA 
HETATM   19  C   UNL     1      -8.474  10.873  66.137  1.00  0.00    -0.171 A  
HETATM   20  C   UNL     1      -7.313  10.096  66.075  1.00  0.00    -0.118 A  
HETATM   21  C   UNL     1      -6.632   9.754  67.241  1.00  0.00    -0.070 A  
HETATM   22  C   UNL     1      -7.116  10.187  68.471  1.00  0.00    -0.074 A  
HETATM   23  C   UNL     1      -8.287  10.946  68.537  1.00  0.00    -0.142 A  
HETATM   24  C   UNL     1      -8.980  11.305  67.367  1.00  0.00    -0.144 A  
ENDBRANCH   9  11
ENDBRANCH   8   9
ENDBRANCH   7   8
ENDBRANCH   6   7
ENDBRANCH   4   6
BRANCH   4  25
HETATM   25  C   UNL     1      -8.788  19.028  67.890  1.00  0.00    -0.301 C  
HETATM   26  C   UNL     1      -9.096  19.852  66.641  1.00  0.00    -0.466 C  
HETATM   27  C   UNL     1     -10.121  18.684  68.579  1.00  0.00    -0.426 C  
ENDBRANCH   4  25
ENDBRANCH   2   4
TORSDOF 7
ENDMDL
MODEL      113
REMARK 921   NORMALIZED FREE ENERGY PREDICTED BY IDOCK:   -4.79 KCAL/MOL
REMARK 922        TOTAL FREE ENERGY PREDICTED BY IDOCK:   -7.94 KCAL/MOL
REMARK 923 INTER-LIGAND FREE ENERGY PREDICTED BY IDOCK:   -7.20 KCAL/MOL
REMARK 924 INTRA-LIGAND FREE ENERGY PREDICTED BY IDOCK:   -0.74 KCAL/MOL
REMARK 927      BINDING AFFINITY PREDICTED BY RF-SCORE:    0.00 PKD
ROOT
HETATM    1  C   UNL     1      -7.580   8.203  71.998  1.00  0.00    -0.129 C  
HETATM    2  C   UNL     1      -8.965   7.584  72.221  1.00  0.00    -0.133 C  
HETATM    3  C   UNL     1      -9.443   7.748  73.664  1.00  0.00    -0.312 C  
ENDROOT
BRANCH   2   4
HETATM    4  N   UNL     1     -10.067   8.005  71.166  1.00  0.00    -0.187 N  
HETATM    5  C   UNL     1     -10.873   9.194  71.721  1.00  0.00    -0.345 C  
BRANCH   4   6
HETATM    6  C   UNL     1      -9.345   8.505  69.853  1.00  0.00    -0.159 C  
BRANCH   6   7
HETATM    7  C   UNL     1      -9.699   9.916  69.370  1.00  0.00    -0.214 C  
BRANCH   7   8
HETATM    8  O   UNL     1     -10.769   9.842  68.413  1.00  0.00    -0.221 OA 
BRANCH   8   9
HETATM    9  C   UNL     1     -10.451   9.359  67.166  1.00  0.00    -0.244 C  
HETATM   10  O   UNL     1     -10.807   8.237  66.813  1.00  0.00    -0.188 OA 
BRANCH   9  11
HETATM   11  C   UNL     1      -9.671  10.366  66.304  1.00  0.00    -0.256 C  
HETATM   12  C   UNL     1      -8.767   9.692  65.285  1.00  0.00    -0.186 A  
HETATM   13  C   UNL     1      -7.713   8.856  65.699  1.00  0.00    -0.087 A  
HETATM   14  C   UNL     1      -7.004   8.096  64.769  1.00  0.00    -0.074 A  
HETATM   15  C   UNL     1      -7.304   8.201  63.413  1.00  0.00    -0.103 A  
HETATM   16  C   UNL     1      -8.295   9.086  62.989  1.00  0.00    -0.197 A  
HETATM   17  C   UNL     1      -9.022   9.829  63.921  1.00  0.00    -0.243 A  
HETATM   18  O   UNL     1      -9.977  10.666  63.407  1.00  0.00    -0.320 OA 
HETATM   19  C   UNL     1     -10.678  11.475  64.266  1.00  0.00    -0.355 A  
HETATM   20  C   UNL     1     -11.511  12.422  63.661  1.00  0.00    -0.568 A  
HETATM   21  C   UNL     1     -12.289  13.274  64.441  1.00  0.00    -0.410 A  
HETATM   22  C   UNL     1     -12.233  13.180  65.828  1.00  0.00    -0.514 A  
HETATM   23  C   UNL     1     -11.386  12.248  66.434  1.00  0.00    -0.405 A  
HETATM   24  C   UNL     1     -10.600  11.377  65.659  1.00  0.00    -0.314 A  
ENDBRANCH   9  11
ENDBRANCH   8   9
ENDBRANCH   7   8
ENDBRANCH   6   7
ENDBRANCH   4   6
BRANCH   4  25
HETATM   25  C   UNL     1     -11.039   6.821  70.697  1.00  0.00    -0.291 C  
HETATM   26  C   UNL     1     -10.348   5.467  70.543  1.00  0.00    -0.344 C  
HETATM   27  C   UNL     1     -12.248   6.640  71.633  1.00  0.00    -0.401 C  
ENDBRANCH   4  25
ENDBRANCH   2   4
TORSDOF 7
ENDMDL
MODEL      114
REMARK 921   NORMALIZED FREE ENERGY PREDICTED BY IDOCK:   -4.77 KCAL/MOL
REMARK 922        TOTAL FREE ENERGY PREDICTED BY IDOCK:   -7.91 KCAL/MOL
REMARK 923 INTER-LIGAND FREE ENERGY PREDICTED BY IDOCK:   -6.59 KCAL/MOL
REMARK 924 INTRA-LIGAND FREE ENERGY PREDICTED BY IDOCK:   -1.32 KCAL/MOL
REMARK 927      BINDING AFFINITY PREDICTED BY RF-SCORE:    0.00 PKD
ROOT
HETATM    1  C   UNL     1     -11.135   5.878  70.194  1.00  0.00    -0.395 C  
HETATM    2  C   UNL     1      -9.724   6.331  69.800  1.00  0.00    -0.160 C  
HETATM    3  C   UNL     1      -8.671   5.883  70.813  1.00  0.00    -0.134 C  
ENDROOT
BRANCH   2   4
HETATM    4  N   UNL     1      -9.307   6.006  68.307  1.00  0.00    -0.116 N  
HETATM    5  C   UNL     1     -10.503   6.277  67.376  1.00  0.00    -0.248 C  
BRANCH   4   6
HETATM    6  C   UNL     1      -8.151   6.994  67.879  1.00  0.00    -0.115 C  
BRANCH   6   7
HETATM    7  C   UNL     1      -8.479   7.991  66.762  1.00  0.00    -0.128 C  
BRANCH   7   8
HETATM    8  O   UNL     1      -8.537   9.321  67.308  1.00  0.00    -0.124 OA 
BRANCH   8   9
HETATM    9  C   UNL     1      -9.743   9.974  67.216  1.00  0.00    -0.167 C  
HETATM   10  O   UNL     1     -10.607   9.600  66.427  1.00  0.00    -0.150 OA 
BRANCH   9  11
HETATM   11  C   UNL     1      -9.878  11.144  68.206  1.00  0.00    -0.195 C  
HETATM   12  C   UNL     1     -10.340  12.429  67.539  1.00  0.00    -0.223 A  
HETATM   13  C   UNL     1      -9.560  13.042  66.540  1.00  0.00    -0.260 A  
HETATM   14  C   UNL     1     -10.067  14.112  65.802  1.00  0.00    -0.352 A  
HETATM   15  C   UNL     1     -11.334  14.613  66.087  1.00  0.00    -0.350 A  
HETATM   16  C   UNL     1     -12.081  14.061  67.128  1.00  0.00    -0.436 A  
HETATM   17  C   UNL     1     -11.584  12.975  67.851  1.00  0.00    -0.342 A  
HETATM   18  O   UNL     1     -12.394  12.498  68.849  1.00  0.00    -0.052 OA 
HETATM   19  C   UNL     1     -11.933  11.477  69.642  1.00  0.00    -0.339 A  
HETATM   20  C   UNL     1     -12.734  11.158  70.743  1.00  0.00    -0.388 A  
HETATM   21  C   UNL     1     -12.375  10.118  71.596  1.00  0.00    -0.471 A  
HETATM   22  C   UNL     1     -11.212   9.396  71.349  1.00  0.00    -0.452 A  
HETATM   23  C   UNL     1     -10.400   9.726  70.260  1.00  0.00    -0.348 A  
HETATM   24  C   UNL     1     -10.754  10.770  69.387  1.00  0.00    -0.272 A  
ENDBRANCH   9  11
ENDBRANCH   8   9
ENDBRANCH   7   8
ENDBRANCH   6   7
ENDBRANCH   4   6
BRANCH   4  25
HETATM   25  C   UNL     1      -8.720   4.534  68.077  1.00  0.00    -0.104 C  
HETATM   26  C   UNL     1      -9.608   3.632  67.221  1.00  0.00    -0.194 C  
HETATM   27  C   UNL     1      -7.311   4.547  67.458  1.00  0.00    -0.073 C  
ENDBRANCH   4  25
ENDBRANCH   2   4
TORSDOF 7
ENDMDL
MODEL      115
REMARK 921   NORMALIZED FREE ENERGY PREDICTED BY IDOCK:   -4.76 KCAL/MOL
REMARK 922        TOTAL FREE ENERGY PREDICTED BY IDOCK:   -7.90 KCAL/MOL
REMARK 923 INTER-LIGAND FREE ENERGY PREDICTED BY IDOCK:   -7.27 KCAL/MOL
REMARK 924 INTRA-LIGAND FREE ENERGY PREDICTED BY IDOCK:   -0.63 KCAL/MOL
REMARK 927      BINDING AFFINITY PREDICTED BY RF-SCORE:    0.00 PKD
ROOT
HETATM    1  C   UNL     1      -9.236   9.598  64.530  1.00  0.00    -0.277 C  
HETATM    2  C   UNL     1      -8.804   8.775  65.749  1.00  0.00    -0.195 C  
HETATM    3  C   UNL     1      -7.310   8.451  65.724  1.00  0.00    -0.073 C  
ENDROOT
BRANCH   2   4
HETATM    4  N   UNL     1      -9.277   9.347  67.147  1.00  0.00    -0.133 N  
HETATM    5  C   UNL     1      -8.049   9.555  68.052  1.00  0.00    -0.102 C  
BRANCH   4   6
HETATM    6  C   UNL     1      -9.932  10.766  66.918  1.00  0.00    -0.200 C  
BRANCH   6   7
HETATM    7  C   UNL     1     -10.478  11.479  68.160  1.00  0.00    -0.193 C  
BRANCH   7   8
HETATM    8  O   UNL     1     -11.801  11.973  67.887  1.00  0.00    -0.457 OA 
BRANCH   8   9
HETATM    9  C   UNL     1     -12.077  13.257  68.291  1.00  0.00    -0.211 C  
HETATM   10  O   UNL     1     -12.344  13.507  69.464  1.00  0.00    -0.268 OA 
BRANCH   9  11
HETATM   11  C   UNL     1     -11.972  14.290  67.155  1.00  0.00    -0.449 C  
HETATM   12  C   UNL     1     -10.963  15.388  67.448  1.00  0.00    -0.312 A  
HETATM   13  C   UNL     1     -11.136  16.250  68.547  1.00  0.00    -0.368 A  
HETATM   14  C   UNL     1     -10.123  17.131  68.921  1.00  0.00    -0.322 A  
HETATM   15  C   UNL     1      -8.950  17.199  68.175  1.00  0.00    -0.240 A  
HETATM   16  C   UNL     1      -8.804  16.403  67.039  1.00  0.00    -0.222 A  
HETATM   17  C   UNL     1      -9.808  15.503  66.677  1.00  0.00    -0.254 A  
HETATM   18  O   UNL     1      -9.569  14.761  65.549  1.00  0.00    -0.286 OA 
HETATM   19  C   UNL     1     -10.547  13.908  65.101  1.00  0.00    -0.379 A  
HETATM   20  C   UNL     1     -10.308  13.315  63.858  1.00  0.00     0.145 A  
HETATM   21  C   UNL     1     -11.221  12.409  63.323  1.00  0.00    -0.377 A  
HETATM   22  C   UNL     1     -12.377  12.100  64.032  1.00  0.00    -0.550 A  
HETATM   23  C   UNL     1     -12.628  12.707  65.266  1.00  0.00    -0.388 A  
HETATM   24  C   UNL     1     -11.710  13.617  65.820  1.00  0.00    -0.369 A  
ENDBRANCH   9  11
ENDBRANCH   8   9
ENDBRANCH   7   8
ENDBRANCH   6   7
ENDBRANCH   4   6
BRANCH   4  25
HETATM   25  C   UNL     1     -10.396   8.473  67.889  1.00  0.00    -0.223 C  
HETATM   26  C   UNL     1     -10.842   7.235  67.113  1.00  0.00    -0.378 C  
HETATM   27  C   UNL     1      -9.963   8.027  69.298  1.00  0.00    -0.191 C  
ENDBRANCH   4  25
ENDBRANCH   2   4
TORSDOF 7
ENDMDL
MODEL      116
REMARK 921   NORMALIZED FREE ENERGY PREDICTED BY IDOCK:   -4.75 KCAL/MOL
REMARK 922        TOTAL FREE ENERGY PREDICTED BY IDOCK:   -7.88 KCAL/MOL
REMARK 923 INTER-LIGAND FREE ENERGY PREDICTED BY IDOCK:   -6.68 KCAL/MOL
REMARK 924 INTRA-LIGAND FREE ENERGY PREDICTED BY IDOCK:   -1.20 KCAL/MOL
REMARK 927      BINDING AFFINITY PREDICTED BY RF-SCORE:    0.00 PKD
ROOT
HETATM    1  C   UNL     1     -11.543  14.891  65.178  1.00  0.00    -0.330 C  
HETATM    2  C   UNL     1     -10.261  14.168  65.605  1.00  0.00    -0.339 C  
HETATM    3  C   UNL     1      -9.277  15.105  66.305  1.00  0.00    -0.336 C  
ENDROOT
BRANCH   2   4
HETATM    4  N   UNL     1     -10.485  12.819  66.402  1.00  0.00    -0.248 N  
HETATM    5  C   UNL     1     -11.026  11.745  65.441  1.00  0.00    -0.297 C  
BRANCH   4   6
HETATM    6  C   UNL     1      -9.087  12.307  66.932  1.00  0.00    -0.208 C  
BRANCH   6   7
HETATM    7  C   UNL     1      -8.731  10.847  66.628  1.00  0.00    -0.155 C  
BRANCH   7   8
HETATM    8  O   UNL     1      -8.765  10.082  67.845  1.00  0.00    -0.124 OA 
BRANCH   8   9
HETATM    9  C   UNL     1      -9.500   8.920  67.825  1.00  0.00    -0.141 C  
HETATM   10  O   UNL     1     -10.227   8.649  66.874  1.00  0.00    -0.256 OA 
BRANCH   9  11
HETATM   11  C   UNL     1      -9.272   8.034  69.062  1.00  0.00    -0.148 C  
HETATM   12  C   UNL     1     -10.357   8.199  70.113  1.00  0.00    -0.215 A  
HETATM   13  C   UNL     1     -10.571   9.442  70.738  1.00  0.00    -0.371 A  
HETATM   14  C   UNL     1     -11.680   9.639  71.561  1.00  0.00    -0.472 A  
HETATM   15  C   UNL     1     -12.557   8.586  71.809  1.00  0.00    -0.387 A  
HETATM   16  C   UNL     1     -12.307   7.331  71.255  1.00  0.00    -0.401 A  
HETATM   17  C   UNL     1     -11.211   7.138  70.412  1.00  0.00    -0.287 A  
HETATM   18  O   UNL     1     -11.055   5.872  69.912  1.00  0.00    -0.366 OA 
HETATM   19  C   UNL     1      -9.957   5.601  69.133  1.00  0.00    -0.183 A  
HETATM   20  C   UNL     1      -9.769   4.255  68.802  1.00  0.00    -0.184 A  
HETATM   21  C   UNL     1      -8.703   3.873  67.991  1.00  0.00    -0.122 A  
HETATM   22  C   UNL     1      -7.823   4.839  67.513  1.00  0.00    -0.094 A  
HETATM   23  C   UNL     1      -7.998   6.181  67.859  1.00  0.00    -0.110 A  
HETATM   24  C   UNL     1      -9.073   6.581  68.672  1.00  0.00    -0.128 A  
ENDBRANCH   9  11
ENDBRANCH   8   9
ENDBRANCH   7   8
ENDBRANCH   6   7
ENDBRANCH   4   6
BRANCH   4  25
HETATM   25  C   UNL     1     -11.414  12.949  67.701  1.00  0.00    -0.334 C  
HETATM   26  C   UNL     1     -12.035  11.632  68.163  1.00  0.00    -0.214 C  
HETATM   27  C   UNL     1     -10.676  13.578  68.897  1.00  0.00    -0.228 C  
ENDBRANCH   4  25
ENDBRANCH   2   4
TORSDOF 7
ENDMDL
MODEL      117
REMARK 921   NORMALIZED FREE ENERGY PREDICTED BY IDOCK:   -4.75 KCAL/MOL
REMARK 922        TOTAL FREE ENERGY PREDICTED BY IDOCK:   -7.87 KCAL/MOL
REMARK 923 INTER-LIGAND FREE ENERGY PREDICTED BY IDOCK:   -6.77 KCAL/MOL
REMARK 924 INTRA-LIGAND FREE ENERGY PREDICTED BY IDOCK:   -1.10 KCAL/MOL
REMARK 927      BINDING AFFINITY PREDICTED BY RF-SCORE:    0.00 PKD
ROOT
HETATM    1  C   UNL     1      -8.908  15.444  66.450  1.00  0.00    -0.340 C  
HETATM    2  C   UNL     1      -9.066  14.455  67.610  1.00  0.00    -0.194 C  
HETATM    3  C   UNL     1      -8.228  14.854  68.825  1.00  0.00    -0.161 C  
ENDROOT
BRANCH   2   4
HETATM    4  N   UNL     1     -10.561  14.102  67.994  1.00  0.00    -0.236 N  
HETATM    5  C   UNL     1     -11.501  14.600  66.881  1.00  0.00    -0.363 C  
BRANCH   4   6
HETATM    6  C   UNL     1     -10.709  12.531  68.059  1.00  0.00    -0.221 C  
BRANCH   6   7
HETATM    7  C   UNL     1      -9.439  11.735  68.382  1.00  0.00    -0.188 C  
BRANCH   7   8
HETATM    8  O   UNL     1      -9.528  10.428  67.787  1.00  0.00    -0.144 OA 
BRANCH   8   9
HETATM    9  C   UNL     1      -9.929   9.402  68.608  1.00  0.00    -0.173 C  
HETATM   10  O   UNL     1     -10.460   8.395  68.147  1.00  0.00    -0.212 OA 
BRANCH   9  11
HETATM   11  C   UNL     1      -9.607   9.647  70.093  1.00  0.00    -0.300 C  
HETATM   12  C   UNL     1     -10.821   9.489  70.993  1.00  0.00    -0.423 A  
HETATM   13  C   UNL     1     -11.942  10.328  70.844  1.00  0.00    -0.473 A  
HETATM   14  C   UNL     1     -13.121  10.066  71.540  1.00  0.00    -0.531 A  
HETATM   15  C   UNL     1     -13.178   8.996  72.430  1.00  0.00    -0.507 A  
HETATM   16  C   UNL     1     -12.047   8.208  72.641  1.00  0.00    -0.311 A  
HETATM   17  C   UNL     1     -10.874   8.455  71.926  1.00  0.00    -0.302 A  
HETATM   18  O   UNL     1      -9.820   7.623  72.198  1.00  0.00    -0.167 OA 
HETATM   19  C   UNL     1      -8.617   7.856  71.579  1.00  0.00    -0.121 A  
HETATM   20  C   UNL     1      -7.544   7.081  72.031  1.00  0.00    -0.091 A  
HETATM   21  C   UNL     1      -6.285   7.217  71.450  1.00  0.00    -0.037 A  
HETATM   22  C   UNL     1      -6.099   8.132  70.419  1.00  0.00    -0.028 A  
HETATM   23  C   UNL     1      -7.165   8.922  69.981  1.00  0.00    -0.054 A  
HETATM   24  C   UNL     1      -8.442   8.790  70.553  1.00  0.00    -0.181 A  
ENDBRANCH   9  11
ENDBRANCH   8   9
ENDBRANCH   7   8
ENDBRANCH   6   7
ENDBRANCH   4   6
BRANCH   4  25
HETATM   25  C   UNL     1     -11.033  14.637  69.428  1.00  0.00    -0.257 C  
HETATM   26  C   UNL     1     -11.504  16.091  69.431  1.00  0.00    -0.336 C  
HETATM   27  C   UNL     1     -12.144  13.771  70.048  1.00  0.00    -0.416 C  
ENDBRANCH   4  25
ENDBRANCH   2   4
TORSDOF 7
ENDMDL
MODEL      118
REMARK 921   NORMALIZED FREE ENERGY PREDICTED BY IDOCK:   -4.74 KCAL/MOL
REMARK 922        TOTAL FREE ENERGY PREDICTED BY IDOCK:   -7.87 KCAL/MOL
REMARK 923 INTER-LIGAND FREE ENERGY PREDICTED BY IDOCK:   -6.99 KCAL/MOL
REMARK 924 INTRA-LIGAND FREE ENERGY PREDICTED BY IDOCK:   -0.88 KCAL/MOL
REMARK 927      BINDING AFFINITY PREDICTED BY RF-SCORE:    0.00 PKD
ROOT
HETATM    1  C   UNL     1     -11.954  12.910  68.766  1.00  0.00    -0.290 C  
HETATM    2  C   UNL     1     -11.907  13.754  67.487  1.00  0.00    -0.387 C  
HETATM    3  C   UNL     1     -11.539  15.210  67.771  1.00  0.00    -0.303 C  
ENDROOT
BRANCH   2   4
HETATM    4  N   UNL     1     -11.057  13.133  66.304  1.00  0.00    -0.284 N  
HETATM    5  C   UNL     1      -9.612  13.658  66.389  1.00  0.00    -0.268 C  
BRANCH   4   6
HETATM    6  C   UNL     1     -10.994  11.567  66.495  1.00  0.00    -0.293 C  
BRANCH   6   7
HETATM    7  C   UNL     1      -9.770  10.853  65.911  1.00  0.00    -0.224 C  
BRANCH   7   8
HETATM    8  O   UNL     1      -9.998   9.433  65.910  1.00  0.00    -0.303 OA 
BRANCH   8   9
HETATM    9  C   UNL     1      -9.434   8.715  66.937  1.00  0.00    -0.180 C  
HETATM   10  O   UNL     1      -8.244   8.839  67.218  1.00  0.00    -0.104 OA 
BRANCH   9  11
HETATM   11  C   UNL     1     -10.441   7.817  67.677  1.00  0.00    -0.308 C  
HETATM   12  C   UNL     1     -10.146   6.336  67.505  1.00  0.00    -0.186 A  
HETATM   13  C   UNL     1     -10.176   5.739  66.230  1.00  0.00    -0.129 A  
HETATM   14  C   UNL     1      -9.727   4.431  66.050  1.00  0.00    -0.218 A  
HETATM   15  C   UNL     1      -9.294   3.689  67.145  1.00  0.00    -0.228 A  
HETATM   16  C   UNL     1      -9.335   4.247  68.422  1.00  0.00    -0.209 A  
HETATM   17  C   UNL     1      -9.761   5.565  68.600  1.00  0.00    -0.142 A  
HETATM   18  O   UNL     1      -9.760   6.025  69.891  1.00  0.00    -0.158 OA 
HETATM   19  C   UNL     1     -10.234   7.289  70.142  1.00  0.00    -0.203 A  
HETATM   20  C   UNL     1     -10.365   7.629  71.492  1.00  0.00    -0.223 A  
HETATM   21  C   UNL     1     -10.809   8.897  71.858  1.00  0.00    -0.433 A  
HETATM   22  C   UNL     1     -11.124   9.826  70.871  1.00  0.00    -0.428 A  
HETATM   23  C   UNL     1     -11.013   9.482  69.522  1.00  0.00    -0.217 A  
HETATM   24  C   UNL     1     -10.560   8.207  69.138  1.00  0.00    -0.179 A  
ENDBRANCH   9  11
ENDBRANCH   8   9
ENDBRANCH   7   8
ENDBRANCH   6   7
ENDBRANCH   4   6
BRANCH   4  25
HETATM   25  C   UNL     1     -11.667  13.364  64.842  1.00  0.00    -0.351 C  
HETATM   26  C   UNL     1     -12.849  12.455  64.505  1.00  0.00    -0.305 C  
HETATM   27  C   UNL     1     -12.100  14.822  64.602  1.00  0.00    -0.437 C  
ENDBRANCH   4  25
ENDBRANCH   2   4
TORSDOF 7
ENDMDL
MODEL      119
REMARK 921   NORMALIZED FREE ENERGY PREDICTED BY IDOCK:   -4.69 KCAL/MOL
REMARK 922        TOTAL FREE ENERGY PREDICTED BY IDOCK:   -7.80 KCAL/MOL
REMARK 923 INTER-LIGAND FREE ENERGY PREDICTED BY IDOCK:   -6.57 KCAL/MOL
REMARK 924 INTRA-LIGAND FREE ENERGY PREDICTED BY IDOCK:   -1.23 KCAL/MOL
REMARK 927      BINDING AFFINITY PREDICTED BY RF-SCORE:    0.00 PKD
ROOT
HETATM    1  C   UNL     1      -9.637  13.609  68.236  1.00  0.00    -0.215 C  
HETATM    2  C   UNL     1     -10.483  12.397  67.831  1.00  0.00    -0.215 C  
HETATM    3  C   UNL     1     -11.966  12.747  67.701  1.00  0.00    -0.331 C  
ENDROOT
BRANCH   2   4
HETATM    4  N   UNL     1      -9.941  11.586  66.584  1.00  0.00    -0.203 N  
HETATM    5  C   UNL     1      -8.416  11.773  66.481  1.00  0.00    -0.125 C  
BRANCH   4   6
HETATM    6  C   UNL     1     -10.205  10.048  66.828  1.00  0.00    -0.232 C  
BRANCH   6   7
HETATM    7  C   UNL     1      -9.195   9.310  67.714  1.00  0.00    -0.129 C  
BRANCH   7   8
HETATM    8  O   UNL     1      -9.523   7.910  67.754  1.00  0.00    -0.142 OA 
BRANCH   8   9
HETATM    9  C   UNL     1     -10.286   7.485  68.815  1.00  0.00    -0.200 C  
HETATM   10  O   UNL     1     -11.158   6.632  68.665  1.00  0.00    -0.257 OA 
BRANCH   9  11
HETATM   11  C   UNL     1      -9.899   8.148  70.148  1.00  0.00    -0.184 C  
HETATM   12  C   UNL     1     -11.070   8.844  70.822  1.00  0.00    -0.312 A  
HETATM   13  C   UNL     1     -11.725   9.920  70.194  1.00  0.00    -0.239 A  
HETATM   14  C   UNL     1     -12.908  10.435  70.724  1.00  0.00    -0.450 A  
HETATM   15  C   UNL     1     -13.421   9.918  71.911  1.00  0.00    -0.467 A  
HETATM   16  C   UNL     1     -12.735   8.903  72.579  1.00  0.00    -0.382 A  
HETATM   17  C   UNL     1     -11.564   8.371  72.037  1.00  0.00    -0.351 A  
HETATM   18  O   UNL     1     -10.966   7.374  72.763  1.00  0.00    -0.283 OA 
HETATM   19  C   UNL     1      -9.774   6.857  72.320  1.00  0.00    -0.146 A  
HETATM   20  C   UNL     1      -9.137   5.971  73.194  1.00  0.00    -0.130 A  
HETATM   21  C   UNL     1      -7.937   5.365  72.830  1.00  0.00    -0.102 A  
HETATM   22  C   UNL     1      -7.372   5.649  71.591  1.00  0.00    -0.091 A  
HETATM   23  C   UNL     1      -7.997   6.549  70.724  1.00  0.00    -0.115 A  
HETATM   24  C   UNL     1      -9.213   7.163  71.076  1.00  0.00    -0.158 A  
ENDBRANCH   9  11
ENDBRANCH   8   9
ENDBRANCH   7   8
ENDBRANCH   6   7
ENDBRANCH   4   6
BRANCH   4  25
HETATM   25  C   UNL     1     -10.657  11.929  65.193  1.00  0.00    -0.287 C  
HETATM   26  C   UNL     1     -10.303  13.303  64.627  1.00  0.00    -0.394 C  
HETATM   27  C   UNL     1     -10.377  10.875  64.106  1.00  0.00    -0.432 C  
ENDBRANCH   4  25
ENDBRANCH   2   4
TORSDOF 7
ENDMDL
MODEL      120
REMARK 921   NORMALIZED FREE ENERGY PREDICTED BY IDOCK:   -4.69 KCAL/MOL
REMARK 922        TOTAL FREE ENERGY PREDICTED BY IDOCK:   -7.80 KCAL/MOL
REMARK 923 INTER-LIGAND FREE ENERGY PREDICTED BY IDOCK:   -6.34 KCAL/MOL
REMARK 924 INTRA-LIGAND FREE ENERGY PREDICTED BY IDOCK:   -1.45 KCAL/MOL
REMARK 927      BINDING AFFINITY PREDICTED BY RF-SCORE:    0.00 PKD
ROOT
HETATM    1  C   UNL     1     -11.660   5.262  72.823  1.00  0.00    -0.270 C  
HETATM    2  C   UNL     1     -10.260   5.137  72.211  1.00  0.00    -0.202 C  
HETATM    3  C   UNL     1      -9.838   3.679  72.032  1.00  0.00    -0.244 C  
ENDROOT
BRANCH   2   4
HETATM    4  N   UNL     1     -10.017   6.003  70.907  1.00  0.00    -0.183 N  
HETATM    5  C   UNL     1     -10.030   5.079  69.676  1.00  0.00    -0.241 C  
BRANCH   4   6
HETATM    6  C   UNL     1     -11.218   7.015  70.742  1.00  0.00    -0.285 C  
BRANCH   6   7
HETATM    7  C   UNL     1     -10.918   8.490  71.036  1.00  0.00    -0.249 C  
BRANCH   7   8
HETATM    8  O   UNL     1     -11.381   9.301  69.943  1.00  0.00    -0.184 OA 
BRANCH   8   9
HETATM    9  C   UNL     1     -10.419   9.823  69.111  1.00  0.00    -0.215 C  
HETATM   10  O   UNL     1      -9.317  10.149  69.544  1.00  0.00    -0.210 OA 
BRANCH   9  11
HETATM   11  C   UNL     1     -10.865   9.903  67.640  1.00  0.00    -0.318 C  
HETATM   12  C   UNL     1     -10.974  11.333  67.135  1.00  0.00    -0.348 A  
HETATM   13  C   UNL     1     -11.885  12.235  67.716  1.00  0.00    -0.341 A  
HETATM   14  C   UNL     1     -11.854  13.588  67.380  1.00  0.00    -0.423 A  
HETATM   15  C   UNL     1     -10.951  14.045  66.424  1.00  0.00    -0.308 A  
HETATM   16  C   UNL     1     -10.099  13.143  65.787  1.00  0.00    -0.290 A  
HETATM   17  C   UNL     1     -10.112  11.793  66.141  1.00  0.00    -0.224 A  
HETATM   18  O   UNL     1      -9.234  10.988  65.463  1.00  0.00    -0.204 OA 
HETATM   19  C   UNL     1      -9.246   9.638  65.715  1.00  0.00    -0.210 A  
HETATM   20  C   UNL     1      -8.451   8.858  64.870  1.00  0.00    -0.195 A  
HETATM   21  C   UNL     1      -8.367   7.480  65.057  1.00  0.00    -0.068 A  
HETATM   22  C   UNL     1      -9.083   6.882  66.089  1.00  0.00    -0.144 A  
HETATM   23  C   UNL     1      -9.895   7.657  66.922  1.00  0.00    -0.304 A  
HETATM   24  C   UNL     1      -9.983   9.050  66.749  1.00  0.00    -0.332 A  
ENDBRANCH   9  11
ENDBRANCH   8   9
ENDBRANCH   7   8
ENDBRANCH   6   7
ENDBRANCH   4   6
BRANCH   4  25
HETATM   25  C   UNL     1      -8.695   6.906  70.935  1.00  0.00    -0.141 C  
HETATM   26  C   UNL     1      -7.898   6.813  72.236  1.00  0.00    -0.095 C  
HETATM   27  C   UNL     1      -7.742   6.599  69.766  1.00  0.00    -0.113 C  
ENDBRANCH   4  25
ENDBRANCH   2   4
TORSDOF 7
ENDMDL
MODEL      121
REMARK 921   NORMALIZED FREE ENERGY PREDICTED BY IDOCK:   -4.66 KCAL/MOL
REMARK 922        TOTAL FREE ENERGY PREDICTED BY IDOCK:   -7.75 KCAL/MOL
REMARK 923 INTER-LIGAND FREE ENERGY PREDICTED BY IDOCK:   -6.69 KCAL/MOL
REMARK 924 INTRA-LIGAND FREE ENERGY PREDICTED BY IDOCK:   -1.05 KCAL/MOL
REMARK 927      BINDING AFFINITY PREDICTED BY RF-SCORE:    0.00 PKD
ROOT
HETATM    1  C   UNL     1      -9.510   4.754  70.797  1.00  0.00    -0.228 C  
HETATM    2  C   UNL     1     -10.483   5.526  69.898  1.00  0.00    -0.316 C  
HETATM    3  C   UNL     1     -11.450   6.392  70.706  1.00  0.00    -0.415 C  
ENDROOT
BRANCH   2   4
HETATM    4  N   UNL     1      -9.809   6.321  68.706  1.00  0.00    -0.134 N  
HETATM    5  C   UNL     1     -10.237   5.690  67.369  1.00  0.00    -0.205 C  
BRANCH   4   6
HETATM    6  C   UNL     1     -10.353   7.804  68.716  1.00  0.00    -0.204 C  
BRANCH   6   7
HETATM    7  C   UNL     1     -10.450   8.509  67.358  1.00  0.00    -0.280 C  
BRANCH   7   8
HETATM    8  O   UNL     1     -10.823   9.883  67.556  1.00  0.00    -0.279 OA 
BRANCH   8   9
HETATM    9  C   UNL     1      -9.801  10.780  67.753  1.00  0.00    -0.166 C  
HETATM   10  O   UNL     1      -9.216  10.846  68.831  1.00  0.00    -0.184 OA 
BRANCH   9  11
HETATM   11  C   UNL     1      -9.473  11.614  66.502  1.00  0.00    -0.219 C  
HETATM   12  C   UNL     1      -8.854  10.787  65.388  1.00  0.00    -0.202 A  
HETATM   13  C   UNL     1      -7.621  10.134  65.576  1.00  0.00    -0.146 A  
HETATM   14  C   UNL     1      -7.146   9.231  64.626  1.00  0.00    -0.096 A  
HETATM   15  C   UNL     1      -7.868   9.008  63.457  1.00  0.00    -0.140 A  
HETATM   16  C   UNL     1      -9.052   9.711  63.228  1.00  0.00    -0.223 A  
HETATM   17  C   UNL     1      -9.541  10.597  64.190  1.00  0.00    -0.300 A  
HETATM   18  O   UNL     1     -10.713  11.234  63.876  1.00  0.00    -0.363 OA 
HETATM   19  C   UNL     1     -11.210  12.170  64.749  1.00  0.00    -0.323 A  
HETATM   20  C   UNL     1     -12.309  12.902  64.290  1.00  0.00    -0.458 A  
HETATM   21  C   UNL     1     -12.910  13.856  65.107  1.00  0.00    -0.383 A  
HETATM   22  C   UNL     1     -12.408  14.081  66.385  1.00  0.00    -0.468 A  
HETATM   23  C   UNL     1     -11.297  13.365  66.838  1.00  0.00    -0.351 A  
HETATM   24  C   UNL     1     -10.685  12.394  66.026  1.00  0.00    -0.294 A  
ENDBRANCH   9  11
ENDBRANCH   8   9
ENDBRANCH   7   8
ENDBRANCH   6   7
ENDBRANCH   4   6
BRANCH   4  25
HETATM   25  C   UNL     1      -8.215   6.449  68.798  1.00  0.00    -0.121 C  
HETATM   26  C   UNL     1      -7.499   6.348  67.451  1.00  0.00    -0.088 C  
HETATM   27  C   UNL     1      -7.762   7.750  69.485  1.00  0.00    -0.105 C  
ENDBRANCH   4  25
ENDBRANCH   2   4
TORSDOF 7
ENDMDL
MODEL      122
REMARK 921   NORMALIZED FREE ENERGY PREDICTED BY IDOCK:   -4.65 KCAL/MOL
REMARK 922        TOTAL FREE ENERGY PREDICTED BY IDOCK:   -7.74 KCAL/MOL
REMARK 923 INTER-LIGAND FREE ENERGY PREDICTED BY IDOCK:   -6.92 KCAL/MOL
REMARK 924 INTRA-LIGAND FREE ENERGY PREDICTED BY IDOCK:   -0.83 KCAL/MOL
REMARK 927      BINDING AFFINITY PREDICTED BY RF-SCORE:    0.00 PKD
ROOT
HETATM    1  C   UNL     1     -12.323  13.952  65.835  1.00  0.00    -0.517 C  
HETATM    2  C   UNL     1     -11.048  14.492  66.494  1.00  0.00    -0.332 C  
HETATM    3  C   UNL     1     -11.268  15.862  67.135  1.00  0.00    -0.060 C  
ENDROOT
BRANCH   2   4
HETATM    4  N   UNL     1     -10.313  13.480  67.464  1.00  0.00    -0.236 N  
HETATM    5  C   UNL     1     -10.073  14.163  68.822  1.00  0.00    -0.198 C  
BRANCH   4   6
HETATM    6  C   UNL     1     -11.266  12.247  67.725  1.00  0.00    -0.276 C  
BRANCH   6   7
HETATM    7  C   UNL     1     -11.501  11.860  69.190  1.00  0.00    -0.296 C  
BRANCH   7   8
HETATM    8  O   UNL     1     -10.517  10.892  69.594  1.00  0.00    -0.196 OA 
BRANCH   8   9
HETATM    9  C   UNL     1     -10.964   9.837  70.353  1.00  0.00    -0.312 C  
HETATM   10  O   UNL     1     -11.997   9.923  71.011  1.00  0.00    -0.311 OA 
BRANCH   9  11
HETATM   11  C   UNL     1     -10.071   8.587  70.243  1.00  0.00    -0.199 C  
HETATM   12  C   UNL     1     -10.228   7.647  71.426  1.00  0.00    -0.208 A  
HETATM   13  C   UNL     1      -9.900   8.067  72.728  1.00  0.00    -0.351 A  
HETATM   14  C   UNL     1     -10.216   7.273  73.830  1.00  0.00    -0.370 A  
HETATM   15  C   UNL     1     -10.813   6.029  73.641  1.00  0.00    -0.171 A  
HETATM   16  C   UNL     1     -11.070   5.573  72.348  1.00  0.00    -0.312 A  
HETATM   17  C   UNL     1     -10.776   6.378  71.246  1.00  0.00    -0.241 A  
HETATM   18  O   UNL     1     -11.070   5.844  70.018  1.00  0.00    -0.359 OA 
HETATM   19  C   UNL     1     -10.741   6.557  68.892  1.00  0.00    -0.273 A  
HETATM   20  C   UNL     1     -10.910   5.882  67.679  1.00  0.00    -0.331 A  
HETATM   21  C   UNL     1     -10.634   6.523  66.474  1.00  0.00    -0.125 A  
HETATM   22  C   UNL     1     -10.186   7.840  66.482  1.00  0.00    -0.195 A  
HETATM   23  C   UNL     1      -9.997   8.509  67.695  1.00  0.00    -0.253 A  
HETATM   24  C   UNL     1     -10.279   7.876  68.919  1.00  0.00    -0.215 A  
ENDBRANCH   9  11
ENDBRANCH   8   9
ENDBRANCH   7   8
ENDBRANCH   6   7
ENDBRANCH   4   6
BRANCH   4  25
HETATM   25  C   UNL     1      -8.956  12.857  66.885  1.00  0.00    -0.210 C  
HETATM   26  C   UNL     1      -7.896  12.565  67.947  1.00  0.00    -0.144 C  
HETATM   27  C   UNL     1      -9.192  11.568  66.076  1.00  0.00    -0.229 C  
ENDBRANCH   4  25
ENDBRANCH   2   4
TORSDOF 7
ENDMDL
MODEL      123
REMARK 921   NORMALIZED FREE ENERGY PREDICTED BY IDOCK:   -4.65 KCAL/MOL
REMARK 922        TOTAL FREE ENERGY PREDICTED BY IDOCK:   -7.74 KCAL/MOL
REMARK 923 INTER-LIGAND FREE ENERGY PREDICTED BY IDOCK:   -6.86 KCAL/MOL
REMARK 924 INTRA-LIGAND FREE ENERGY PREDICTED BY IDOCK:   -0.88 KCAL/MOL
REMARK 927      BINDING AFFINITY PREDICTED BY RF-SCORE:    0.00 PKD
ROOT
HETATM    1  C   UNL     1     -11.135  15.673  64.697  1.00  0.00    -0.387 C  
HETATM    2  C   UNL     1     -11.860  14.606  65.525  1.00  0.00    -0.292 C  
HETATM    3  C   UNL     1     -12.060  13.308  64.743  1.00  0.00    -0.456 C  
ENDROOT
BRANCH   2   4
HETATM    4  N   UNL     1     -11.263  14.357  66.970  1.00  0.00    -0.317 N  
HETATM    5  C   UNL     1     -11.802  13.024  67.519  1.00  0.00    -0.355 C  
BRANCH   4   6
HETATM    6  C   UNL     1      -9.694  14.211  66.850  1.00  0.00    -0.269 C  
BRANCH   6   7
HETATM    7  C   UNL     1      -9.012  13.288  67.866  1.00  0.00    -0.199 C  
BRANCH   7   8
HETATM    8  O   UNL     1      -8.643  12.056  67.223  1.00  0.00    -0.162 OA 
BRANCH   8   9
HETATM    9  C   UNL     1      -8.598  10.934  68.016  1.00  0.00    -0.131 C  
HETATM   10  O   UNL     1      -7.718  10.792  68.861  1.00  0.00    -0.110 OA 
BRANCH   9  11
HETATM   11  C   UNL     1      -9.753   9.952  67.749  1.00  0.00    -0.175 C  
HETATM   12  C   UNL     1      -9.327   8.755  66.916  1.00  0.00    -0.213 A  
HETATM   13  C   UNL     1      -8.843   8.925  65.605  1.00  0.00    -0.230 A  
HETATM   14  C   UNL     1      -8.283   7.852  64.913  1.00  0.00    -0.128 A  
HETATM   15  C   UNL     1      -8.246   6.590  65.499  1.00  0.00    -0.138 A  
HETATM   16  C   UNL     1      -8.795   6.398  66.767  1.00  0.00    -0.124 A  
HETATM   17  C   UNL     1      -9.335   7.476  67.471  1.00  0.00    -0.138 A  
HETATM   18  O   UNL     1      -9.844   7.188  68.710  1.00  0.00    -0.154 OA 
HETATM   19  C   UNL     1     -10.451   8.191  69.424  1.00  0.00    -0.220 A  
HETATM   20  C   UNL     1     -11.097   7.792  70.598  1.00  0.00    -0.264 A  
HETATM   21  C   UNL     1     -11.720   8.734  71.413  1.00  0.00    -0.369 A  
HETATM   22  C   UNL     1     -11.699  10.077  71.052  1.00  0.00    -0.479 A  
HETATM   23  C   UNL     1     -11.071  10.475  69.869  1.00  0.00    -0.371 A  
HETATM   24  C   UNL     1     -10.432   9.536  69.040  1.00  0.00    -0.229 A  
ENDBRANCH   9  11
ENDBRANCH   8   9
ENDBRANCH   7   8
ENDBRANCH   6   7
ENDBRANCH   4   6
BRANCH   4  25
HETATM   25  C   UNL     1     -11.503  15.549  68.013  1.00  0.00    -0.308 C  
HETATM   26  C   UNL     1     -11.781  15.084  69.443  1.00  0.00    -0.351 C  
HETATM   27  C   UNL     1     -10.333  16.548  68.053  1.00  0.00    -0.294 C  
ENDBRANCH   4  25
ENDBRANCH   2   4
TORSDOF 7
ENDMDL
MODEL      124
REMARK 921   NORMALIZED FREE ENERGY PREDICTED BY IDOCK:   -4.65 KCAL/MOL
REMARK 922        TOTAL FREE ENERGY PREDICTED BY IDOCK:   -7.74 KCAL/MOL
REMARK 923 INTER-LIGAND FREE ENERGY PREDICTED BY IDOCK:   -6.73 KCAL/MOL
REMARK 924 INTRA-LIGAND FREE ENERGY PREDICTED BY IDOCK:   -1.01 KCAL/MOL
REMARK 927      BINDING AFFINITY PREDICTED BY RF-SCORE:    0.00 PKD
ROOT
HETATM    1  C   UNL     1     -12.761  12.101  63.350  1.00  0.00    -0.508 C  
HETATM    2  C   UNL     1     -11.712  13.055  63.932  1.00  0.00    -0.468 C  
HETATM    3  C   UNL     1     -12.308  14.415  64.295  1.00  0.00    -0.402 C  
ENDROOT
BRANCH   2   4
HETATM    4  N   UNL     1     -10.827  12.450  65.097  1.00  0.00    -0.288 N  
HETATM    5  C   UNL     1     -10.276  13.598  65.964  1.00  0.00    -0.307 C  
BRANCH   4   6
HETATM    6  C   UNL     1     -11.751  11.568  66.026  1.00  0.00     0.263 C  
BRANCH   6   7
HETATM    7  C   UNL     1     -11.558  11.730  67.538  1.00  0.00    -0.291 C  
BRANCH   7   8
HETATM    8  O   UNL     1     -11.907  10.503  68.201  1.00  0.00    -0.417 OA 
BRANCH   8   9
HETATM    9  C   UNL     1     -10.870   9.667  68.542  1.00  0.00    -0.161 C  
HETATM   10  O   UNL     1     -10.615   8.671  67.871  1.00  0.00    -0.222 OA 
BRANCH   9  11
HETATM   11  C   UNL     1     -10.089  10.141  69.780  1.00  0.00    -0.269 C  
HETATM   12  C   UNL     1     -10.357   9.286  71.008  1.00  0.00    -0.388 A  
HETATM   13  C   UNL     1     -11.651   9.197  71.554  1.00  0.00    -0.439 A  
HETATM   14  C   UNL     1     -11.932   8.273  72.561  1.00  0.00    -0.420 A  
HETATM   15  C   UNL     1     -10.916   7.468  73.068  1.00  0.00    -0.443 A  
HETATM   16  C   UNL     1      -9.615   7.606  72.585  1.00  0.00    -0.235 A  
HETATM   17  C   UNL     1      -9.337   8.512  71.560  1.00  0.00    -0.222 A  
HETATM   18  O   UNL     1      -8.031   8.571  71.150  1.00  0.00    -0.099 OA 
HETATM   19  C   UNL     1      -7.680   9.491  70.194  1.00  0.00    -0.154 A  
HETATM   20  C   UNL     1      -6.309   9.614  69.948  1.00  0.00    -0.054 A  
HETATM   21  C   UNL     1      -5.845  10.498  68.977  1.00  0.00    -0.040 A  
HETATM   22  C   UNL     1      -6.754  11.262  68.252  1.00  0.00    -0.059 A  
HETATM   23  C   UNL     1      -8.124  11.155  68.510  1.00  0.00    -0.146 A  
HETATM   24  C   UNL     1      -8.606  10.262  69.484  1.00  0.00    -0.153 A  
ENDBRANCH   9  11
ENDBRANCH   8   9
ENDBRANCH   7   8
ENDBRANCH   6   7
ENDBRANCH   4   6
BRANCH   4  25
HETATM   25  C   UNL     1      -9.650  11.478  64.615  1.00  0.00    -0.162 C  
HETATM   26  C   UNL     1      -9.867  10.007  64.967  1.00  0.00    -0.374 C  
HETATM   27  C   UNL     1      -9.383  11.574  63.101  1.00  0.00    -0.271 C  
ENDBRANCH   4  25
ENDBRANCH   2   4
TORSDOF 7
ENDMDL
MODEL      125
REMARK 921   NORMALIZED FREE ENERGY PREDICTED BY IDOCK:   -4.62 KCAL/MOL
REMARK 922        TOTAL FREE ENERGY PREDICTED BY IDOCK:   -7.70 KCAL/MOL
REMARK 923 INTER-LIGAND FREE ENERGY PREDICTED BY IDOCK:   -6.73 KCAL/MOL
REMARK 924 INTRA-LIGAND FREE ENERGY PREDICTED BY IDOCK:   -0.97 KCAL/MOL
REMARK 927      BINDING AFFINITY PREDICTED BY RF-SCORE:    0.00 PKD
ROOT
HETATM    1  C   UNL     1     -10.091   5.366  69.126  1.00  0.00    -0.293 C  
HETATM    2  C   UNL     1      -9.094   6.077  70.048  1.00  0.00    -0.146 C  
HETATM    3  C   UNL     1      -7.949   6.724  69.269  1.00  0.00    -0.115 C  
ENDROOT
BRANCH   2   4
HETATM    4  N   UNL     1      -9.741   7.063  71.104  1.00  0.00    -0.173 N  
HETATM    5  C   UNL     1      -8.631   7.903  71.761  1.00  0.00    -0.119 C  
BRANCH   4   6
HETATM    6  C   UNL     1     -10.694   8.065  70.341  1.00  0.00    -0.233 C  
BRANCH   6   7
HETATM    7  C   UNL     1     -10.801   9.482  70.916  1.00  0.00    -0.337 C  
BRANCH   7   8
HETATM    8  O   UNL     1     -10.542  10.442  69.877  1.00  0.00    -0.263 OA 
BRANCH   8   9
HETATM    9  C   UNL     1     -11.638  11.014  69.277  1.00  0.00    -0.314 C  
HETATM   10  O   UNL     1     -12.729  11.037  69.842  1.00  0.00    -0.212 OA 
BRANCH   9  11
HETATM   11  C   UNL     1     -11.329  11.626  67.899  1.00  0.00    -0.369 C  
HETATM   12  C   UNL     1     -10.952  13.096  67.978  1.00  0.00    -0.270 A  
HETATM   13  C   UNL     1     -11.865  14.048  68.469  1.00  0.00    -0.399 A  
HETATM   14  C   UNL     1     -11.458  15.359  68.714  1.00  0.00    -0.352 A  
HETATM   15  C   UNL     1     -10.153  15.747  68.424  1.00  0.00    -0.222 A  
HETATM   16  C   UNL     1      -9.265  14.828  67.864  1.00  0.00    -0.191 A  
HETATM   17  C   UNL     1      -9.664  13.509  67.641  1.00  0.00    -0.229 A  
HETATM   18  O   UNL     1      -8.719  12.681  67.095  1.00  0.00    -0.189 OA 
HETATM   19  C   UNL     1      -9.070  11.391  66.787  1.00  0.00    -0.176 A  
HETATM   20  C   UNL     1      -8.114  10.657  66.076  1.00  0.00    -0.159 A  
HETATM   21  C   UNL     1      -8.356   9.328  65.739  1.00  0.00    -0.128 A  
HETATM   22  C   UNL     1      -9.558   8.732  66.109  1.00  0.00    -0.323 A  
HETATM   23  C   UNL     1     -10.522   9.470  66.801  1.00  0.00    -0.263 A  
HETATM   24  C   UNL     1     -10.288  10.811  67.155  1.00  0.00    -0.269 A  
ENDBRANCH   9  11
ENDBRANCH   8   9
ENDBRANCH   7   8
ENDBRANCH   6   7
ENDBRANCH   4   6
BRANCH   4  25
HETATM   25  C   UNL     1     -10.659   6.357  72.211  1.00  0.00    -0.214 C  
HETATM   26  C   UNL     1     -10.421   6.856  73.635  1.00  0.00    -0.400 C  
HETATM   27  C   UNL     1     -12.162   6.483  71.903  1.00  0.00    -0.373 C  
ENDBRANCH   4  25
ENDBRANCH   2   4
TORSDOF 7
ENDMDL
MODEL      126
REMARK 921   NORMALIZED FREE ENERGY PREDICTED BY IDOCK:   -4.62 KCAL/MOL
REMARK 922        TOTAL FREE ENERGY PREDICTED BY IDOCK:   -7.70 KCAL/MOL
REMARK 923 INTER-LIGAND FREE ENERGY PREDICTED BY IDOCK:   -6.27 KCAL/MOL
REMARK 924 INTRA-LIGAND FREE ENERGY PREDICTED BY IDOCK:   -1.42 KCAL/MOL
REMARK 927      BINDING AFFINITY PREDICTED BY RF-SCORE:    0.00 PKD
ROOT
HETATM    1  C   UNL     1      -6.746   9.688  65.349  1.00  0.00    -0.090 C  
HETATM    2  C   UNL     1      -8.077   8.946  65.182  1.00  0.00    -0.133 C  
HETATM    3  C   UNL     1      -8.758   9.276  63.854  1.00  0.00    -0.193 C  
ENDROOT
BRANCH   2   4
HETATM    4  N   UNL     1      -8.017   7.389  65.462  1.00  0.00    -0.115 N  
HETATM    5  C   UNL     1      -6.763   7.071  66.296  1.00  0.00    -0.053 C  
BRANCH   4   6
HETATM    6  C   UNL     1      -9.271   6.983  66.333  1.00  0.00    -0.149 C  
BRANCH   6   7
HETATM    7  C   UNL     1     -10.077   8.131  66.952  1.00  0.00    -0.297 C  
BRANCH   7   8
HETATM    8  O   UNL     1     -10.016   8.041  68.386  1.00  0.00    -0.173 OA 
BRANCH   8   9
HETATM    9  C   UNL     1      -9.086   8.833  69.016  1.00  0.00    -0.141 C  
HETATM   10  O   UNL     1      -7.903   8.505  69.061  1.00  0.00    -0.100 OA 
BRANCH   9  11
HETATM   11  C   UNL     1      -9.680  10.131  69.591  1.00  0.00    -0.250 C  
HETATM   12  C   UNL     1      -9.974  11.168  68.519  1.00  0.00    -0.204 A  
HETATM   13  C   UNL     1      -8.938  11.701  67.730  1.00  0.00    -0.170 A  
HETATM   14  C   UNL     1      -9.229  12.509  66.631  1.00  0.00    -0.223 A  
HETATM   15  C   UNL     1     -10.551  12.834  66.338  1.00  0.00    -0.273 A  
HETATM   16  C   UNL     1     -11.577  12.373  67.163  1.00  0.00    -0.435 A  
HETATM   17  C   UNL     1     -11.289  11.545  68.249  1.00  0.00    -0.286 A  
HETATM   18  O   UNL     1     -12.365  11.139  68.995  1.00  0.00    -0.479 OA 
HETATM   19  C   UNL     1     -12.141  10.380  70.117  1.00  0.00    -0.256 A  
HETATM   20  C   UNL     1     -13.261  10.147  70.922  1.00  0.00    -0.360 A  
HETATM   21  C   UNL     1     -13.152   9.365  72.069  1.00  0.00    -0.516 A  
HETATM   22  C   UNL     1     -11.920   8.816  72.413  1.00  0.00    -0.369 A  
HETATM   23  C   UNL     1     -10.796   9.064  71.620  1.00  0.00    -0.437 A  
HETATM   24  C   UNL     1     -10.893   9.847  70.456  1.00  0.00    -0.391 A  
ENDBRANCH   9  11
ENDBRANCH   8   9
ENDBRANCH   7   8
ENDBRANCH   6   7
ENDBRANCH   4   6
BRANCH   4  25
HETATM   25  C   UNL     1      -8.087   6.466  64.154  1.00  0.00    -0.052 C  
HETATM   26  C   UNL     1      -6.736   6.231  63.479  1.00  0.00    -0.040 C  
HETATM   27  C   UNL     1      -8.731   5.095  64.430  1.00  0.00    -0.088 C  
ENDBRANCH   4  25
ENDBRANCH   2   4
TORSDOF 7
ENDMDL
MODEL      127
REMARK 921   NORMALIZED FREE ENERGY PREDICTED BY IDOCK:   -4.62 KCAL/MOL
REMARK 922        TOTAL FREE ENERGY PREDICTED BY IDOCK:   -7.69 KCAL/MOL
REMARK 923 INTER-LIGAND FREE ENERGY PREDICTED BY IDOCK:   -6.95 KCAL/MOL
REMARK 924 INTRA-LIGAND FREE ENERGY PREDICTED BY IDOCK:   -0.75 KCAL/MOL
REMARK 927      BINDING AFFINITY PREDICTED BY RF-SCORE:    0.00 PKD
ROOT
HETATM    1  C   UNL     1     -12.026  14.457  69.165  1.00  0.00    -0.357 C  
HETATM    2  C   UNL     1     -11.700  14.998  67.768  1.00  0.00    -0.274 C  
HETATM    3  C   UNL     1     -10.779  16.217  67.824  1.00  0.00    -0.325 C  
ENDROOT
BRANCH   2   4
HETATM    4  N   UNL     1     -11.206  13.913  66.726  1.00  0.00    -0.310 N  
HETATM    5  C   UNL     1      -9.817  14.313  66.196  1.00  0.00    -0.316 C  
BRANCH   4   6
HETATM    6  C   UNL     1     -11.038  12.533  67.475  1.00  0.00    -0.267 C  
BRANCH   6   7
HETATM    7  C   UNL     1      -9.610  11.992  67.606  1.00  0.00    -0.188 C  
BRANCH   7   8
HETATM    8  O   UNL     1      -9.389  11.541  68.953  1.00  0.00    -0.121 OA 
BRANCH   8   9
HETATM    9  C   UNL     1      -9.121  10.204  69.122  1.00  0.00    -0.183 C  
HETATM   10  O   UNL     1      -8.105   9.831  69.702  1.00  0.00    -0.120 OA 
BRANCH   9  11
HETATM   11  C   UNL     1     -10.219   9.286  68.555  1.00  0.00    -0.225 C  
HETATM   12  C   UNL     1      -9.740   8.451  67.380  1.00  0.00    -0.222 A  
HETATM   13  C   UNL     1      -9.298   9.065  66.193  1.00  0.00    -0.294 A  
HETATM   14  C   UNL     1      -8.688   8.311  65.190  1.00  0.00    -0.089 A  
HETATM   15  C   UNL     1      -8.560   6.933  65.338  1.00  0.00    -0.054 A  
HETATM   16  C   UNL     1      -9.067   6.307  66.478  1.00  0.00    -0.162 A  
HETATM   17  C   UNL     1      -9.655   7.064  67.493  1.00  0.00    -0.130 A  
HETATM   18  O   UNL     1     -10.116   6.360  68.574  1.00  0.00    -0.139 OA 
HETATM   19  C   UNL     1     -10.768   7.038  69.575  1.00  0.00    -0.241 A  
HETATM   20  C   UNL     1     -11.361   6.241  70.558  1.00  0.00    -0.428 A  
HETATM   21  C   UNL     1     -12.021   6.827  71.635  1.00  0.00    -0.391 A  
HETATM   22  C   UNL     1     -12.091   8.214  71.726  1.00  0.00    -0.357 A  
HETATM   23  C   UNL     1     -11.517   9.012  70.733  1.00  0.00    -0.331 A  
HETATM   24  C   UNL     1     -10.841   8.433  69.644  1.00  0.00    -0.153 A  
ENDBRANCH   9  11
ENDBRANCH   8   9
ENDBRANCH   7   8
ENDBRANCH   6   7
ENDBRANCH   4   6
BRANCH   4  25
HETATM   25  C   UNL     1     -12.221  13.626  65.520  1.00  0.00    -0.443 C  
HETATM   26  C   UNL     1     -12.400  14.800  64.558  1.00  0.00    -0.384 C  
HETATM   27  C   UNL     1     -11.828  12.387  64.696  1.00  0.00    -0.445 C  
ENDBRANCH   4  25
ENDBRANCH   2   4
TORSDOF 7
ENDMDL
MODEL      128
REMARK 921   NORMALIZED FREE ENERGY PREDICTED BY IDOCK:   -4.61 KCAL/MOL
REMARK 922        TOTAL FREE ENERGY PREDICTED BY IDOCK:   -7.69 KCAL/MOL
REMARK 923 INTER-LIGAND FREE ENERGY PREDICTED BY IDOCK:   -6.55 KCAL/MOL
REMARK 924 INTRA-LIGAND FREE ENERGY PREDICTED BY IDOCK:   -1.14 KCAL/MOL
REMARK 927      BINDING AFFINITY PREDICTED BY RF-SCORE:    0.00 PKD
ROOT
HETATM    1  C   UNL     1     -11.773  12.992  66.858  1.00  0.00    -0.441 C  
HETATM    2  C   UNL     1     -10.951  11.832  66.284  1.00  0.00    -0.300 C  
HETATM    3  C   UNL     1     -10.253  12.211  64.978  1.00  0.00    -0.312 C  
ENDROOT
BRANCH   2   4
HETATM    4  N   UNL     1      -9.974  11.129  67.313  1.00  0.00    -0.182 N  
HETATM    5  C   UNL     1      -9.499  12.164  68.349  1.00  0.00    -0.179 C  
BRANCH   4   6
HETATM    6  C   UNL     1     -10.778  10.019  68.098  1.00  0.00    -0.239 C  
BRANCH   6   7
HETATM    7  C   UNL     1     -10.616  10.003  69.622  1.00  0.00    -0.252 C  
BRANCH   7   8
HETATM    8  O   UNL     1     -11.168   8.785  70.150  1.00  0.00    -0.237 OA 
BRANCH   8   9
HETATM    9  C   UNL     1     -10.298   7.735  70.321  1.00  0.00    -0.215 C  
HETATM   10  O   UNL     1      -9.119   7.930  70.604  1.00  0.00    -0.150 OA 
BRANCH   9  11
HETATM   11  C   UNL     1     -10.967   6.358  70.160  1.00  0.00    -0.395 C  
HETATM   12  C   UNL     1     -10.598   5.673  68.855  1.00  0.00    -0.303 A  
HETATM   13  C   UNL     1     -10.933   6.253  67.617  1.00  0.00    -0.438 A  
HETATM   14  C   UNL     1     -10.435   5.722  66.428  1.00  0.00    -0.217 A  
HETATM   15  C   UNL     1      -9.642   4.578  66.456  1.00  0.00    -0.200 A  
HETATM   16  C   UNL     1      -9.371   3.953  67.673  1.00  0.00    -0.232 A  
HETATM   17  C   UNL     1      -9.848   4.498  68.866  1.00  0.00    -0.120 A  
HETATM   18  O   UNL     1      -9.523   3.814  70.009  1.00  0.00    -0.165 OA 
HETATM   19  C   UNL     1     -10.021   4.260  71.209  1.00  0.00    -0.160 A  
HETATM   20  C   UNL     1      -9.794   3.423  72.305  1.00  0.00    -0.231 A  
HETATM   21  C   UNL     1     -10.231   3.793  73.575  1.00  0.00    -0.213 A  
HETATM   22  C   UNL     1     -10.897   5.002  73.747  1.00  0.00    -0.366 A  
HETATM   23  C   UNL     1     -11.142   5.831  72.649  1.00  0.00    -0.325 A  
HETATM   24  C   UNL     1     -10.701   5.472  71.363  1.00  0.00    -0.290 A  
ENDBRANCH   9  11
ENDBRANCH   8   9
ENDBRANCH   7   8
ENDBRANCH   6   7
ENDBRANCH   4   6
BRANCH   4  25
HETATM   25  C   UNL     1      -8.730  10.369  66.649  1.00  0.00    -0.135 C  
HETATM   26  C   UNL     1      -7.371  10.993  66.965  1.00  0.00    -0.123 C  
HETATM   27  C   UNL     1      -8.674   8.878  67.029  1.00  0.00    -0.130 C  
ENDBRANCH   4  25
ENDBRANCH   2   4
TORSDOF 7
ENDMDL
MODEL      129
REMARK 921   NORMALIZED FREE ENERGY PREDICTED BY IDOCK:   -4.61 KCAL/MOL
REMARK 922        TOTAL FREE ENERGY PREDICTED BY IDOCK:   -7.69 KCAL/MOL
REMARK 923 INTER-LIGAND FREE ENERGY PREDICTED BY IDOCK:   -6.69 KCAL/MOL
REMARK 924 INTRA-LIGAND FREE ENERGY PREDICTED BY IDOCK:   -0.99 KCAL/MOL
REMARK 927      BINDING AFFINITY PREDICTED BY RF-SCORE:    0.00 PKD
ROOT
HETATM    1  C   UNL     1      -8.128   6.035  68.602  1.00  0.00    -0.107 C  
HETATM    2  C   UNL     1      -7.410   7.313  68.151  1.00  0.00    -0.100 C  
HETATM    3  C   UNL     1      -5.920   7.078  67.901  1.00  0.00    -0.029 C  
ENDROOT
BRANCH   2   4
HETATM    4  N   UNL     1      -8.108   8.092  66.963  1.00  0.00    -0.114 N  
HETATM    5  C   UNL     1      -9.293   7.260  66.438  1.00  0.00    -0.150 C  
BRANCH   4   6
HETATM    6  C   UNL     1      -8.702   9.444  67.525  1.00  0.00    -0.122 C  
BRANCH   6   7
HETATM    7  C   UNL     1     -10.217   9.635  67.394  1.00  0.00    -0.227 C  
BRANCH   7   8
HETATM    8  O   UNL     1     -10.487  10.738  66.512  1.00  0.00    -0.241 OA 
BRANCH   8   9
HETATM    9  C   UNL     1     -11.271  11.751  67.010  1.00  0.00    -0.322 C  
HETATM   10  O   UNL     1     -12.381  11.982  66.540  1.00  0.00    -0.377 OA 
BRANCH   9  11
HETATM   11  C   UNL     1     -10.627  12.490  68.197  1.00  0.00    -0.239 C  
HETATM   12  C   UNL     1     -10.162  13.891  67.836  1.00  0.00    -0.241 A  
HETATM   13  C   UNL     1      -9.170  14.090  66.857  1.00  0.00    -0.271 A  
HETATM   14  C   UNL     1      -8.877  15.373  66.396  1.00  0.00    -0.340 A  
HETATM   15  C   UNL     1      -9.532  16.473  66.942  1.00  0.00    -0.250 A  
HETATM   16  C   UNL     1     -10.460  16.290  67.967  1.00  0.00    -0.293 A  
HETATM   17  C   UNL     1     -10.771  15.004  68.412  1.00  0.00    -0.245 A  
HETATM   18  O   UNL     1     -11.699  14.927  69.419  1.00  0.00    -0.286 OA 
HETATM   19  C   UNL     1     -11.997  13.696  69.948  1.00  0.00    -0.348 A  
HETATM   20  C   UNL     1     -12.817  13.708  71.081  1.00  0.00    -0.399 A  
HETATM   21  C   UNL     1     -13.206  12.512  71.681  1.00  0.00    -0.381 A  
HETATM   22  C   UNL     1     -12.771  11.303  71.148  1.00  0.00    -0.492 A  
HETATM   23  C   UNL     1     -11.935  11.290  70.028  1.00  0.00    -0.447 A  
HETATM   24  C   UNL     1     -11.540  12.489  69.409  1.00  0.00    -0.368 A  
ENDBRANCH   9  11
ENDBRANCH   8   9
ENDBRANCH   7   8
ENDBRANCH   6   7
ENDBRANCH   4   6
BRANCH   4  25
HETATM   25  C   UNL     1      -7.130   8.517  65.769  1.00  0.00    -0.075 C  
HETATM   26  C   UNL     1      -7.344   7.735  64.473  1.00  0.00    -0.089 C  
HETATM   27  C   UNL     1      -7.212  10.019  65.441  1.00  0.00    -0.139 C  
ENDBRANCH   4  25
ENDBRANCH   2   4
TORSDOF 7
ENDMDL
MODEL      130
REMARK 921   NORMALIZED FREE ENERGY PREDICTED BY IDOCK:   -4.59 KCAL/MOL
REMARK 922        TOTAL FREE ENERGY PREDICTED BY IDOCK:   -7.66 KCAL/MOL
REMARK 923 INTER-LIGAND FREE ENERGY PREDICTED BY IDOCK:   -6.63 KCAL/MOL
REMARK 924 INTRA-LIGAND FREE ENERGY PREDICTED BY IDOCK:   -1.02 KCAL/MOL
REMARK 927      BINDING AFFINITY PREDICTED BY RF-SCORE:    0.00 PKD
ROOT
HETATM    1  C   UNL     1      -7.657   6.462  70.985  1.00  0.00    -0.090 C  
HETATM    2  C   UNL     1      -9.024   6.459  70.291  1.00  0.00    -0.154 C  
HETATM    3  C   UNL     1      -9.796   5.164  70.544  1.00  0.00    -0.285 C  
ENDROOT
BRANCH   2   4
HETATM    4  N   UNL     1      -9.907   7.749  70.540  1.00  0.00    -0.183 N  
HETATM    5  C   UNL     1      -8.983   8.957  70.782  1.00  0.00    -0.209 C  
BRANCH   4   6
HETATM    6  C   UNL     1     -10.738   8.054  69.232  1.00  0.00    -0.129 C  
BRANCH   6   7
HETATM    7  C   UNL     1     -10.274   9.245  68.386  1.00  0.00    -0.202 C  
BRANCH   7   8
HETATM    8  O   UNL     1     -11.319  10.232  68.333  1.00  0.00    -0.256 OA 
BRANCH   8   9
HETATM    9  C   UNL     1     -10.925  11.548  68.318  1.00  0.00    -0.224 C  
HETATM   10  O   UNL     1     -11.261  12.319  69.213  1.00  0.00    -0.246 OA 
BRANCH   9  11
HETATM   11  C   UNL     1     -10.023  11.901  67.122  1.00  0.00    -0.209 C  
HETATM   12  C   UNL     1     -10.716  12.792  66.105  1.00  0.00    -0.297 A  
HETATM   13  C   UNL     1     -11.865  12.349  65.423  1.00  0.00    -0.460 A  
HETATM   14  C   UNL     1     -12.603  13.229  64.632  1.00  0.00    -0.354 A  
HETATM   15  C   UNL     1     -12.176  14.544  64.472  1.00  0.00    -0.483 A  
HETATM   16  C   UNL     1     -10.995  14.969  65.082  1.00  0.00    -0.417 A  
HETATM   17  C   UNL     1     -10.268  14.096  65.893  1.00  0.00    -0.319 A  
HETATM   18  O   UNL     1      -9.127  14.607  66.453  1.00  0.00    -0.264 OA 
HETATM   19  C   UNL     1      -8.331  13.779  67.205  1.00  0.00    -0.137 A  
HETATM   20  C   UNL     1      -7.102  14.316  67.599  1.00  0.00    -0.200 A  
HETATM   21  C   UNL     1      -6.230  13.571  68.390  1.00  0.00    -0.093 A  
HETATM   22  C   UNL     1      -6.588  12.286  68.784  1.00  0.00    -0.084 A  
HETATM   23  C   UNL     1      -7.807  11.740  68.373  1.00  0.00    -0.141 A  
HETATM   24  C   UNL     1      -8.699  12.483  67.581  1.00  0.00    -0.177 A  
ENDBRANCH   9  11
ENDBRANCH   8   9
ENDBRANCH   7   8
ENDBRANCH   6   7
ENDBRANCH   4   6
BRANCH   4  25
HETATM   25  C   UNL     1     -10.989   7.609  71.713  1.00  0.00    -0.239 C  
HETATM   26  C   UNL     1     -10.413   7.767  73.120  1.00  0.00    -0.413 C  
HETATM   27  C   UNL     1     -12.160   8.596  71.561  1.00  0.00    -0.369 C  
ENDBRANCH   4  25
ENDBRANCH   2   4
TORSDOF 7
ENDMDL
MODEL      131
REMARK 921   NORMALIZED FREE ENERGY PREDICTED BY IDOCK:   -4.59 KCAL/MOL
REMARK 922        TOTAL FREE ENERGY PREDICTED BY IDOCK:   -7.65 KCAL/MOL
REMARK 923 INTER-LIGAND FREE ENERGY PREDICTED BY IDOCK:   -6.62 KCAL/MOL
REMARK 924 INTRA-LIGAND FREE ENERGY PREDICTED BY IDOCK:   -1.03 KCAL/MOL
REMARK 927      BINDING AFFINITY PREDICTED BY RF-SCORE:    0.00 PKD
ROOT
HETATM    1  C   UNL     1     -10.592  11.311  63.907  1.00  0.00    -0.455 C  
HETATM    2  C   UNL     1     -10.989  12.301  65.008  1.00  0.00    -0.302 C  
HETATM    3  C   UNL     1     -12.470  12.676  64.939  1.00  0.00    -0.564 C  
ENDROOT
BRANCH   2   4
HETATM    4  N   UNL     1     -10.534  11.898  66.470  1.00  0.00    -0.216 N  
HETATM    5  C   UNL     1     -11.776  11.765  67.370  1.00  0.00    -0.230 C  
BRANCH   4   6
HETATM    6  C   UNL     1      -9.848  10.476  66.412  1.00  0.00    -0.210 C  
BRANCH   6   7
HETATM    7  C   UNL     1     -10.621   9.315  67.046  1.00  0.00    -0.193 C  
BRANCH   7   8
HETATM    8  O   UNL     1      -9.797   8.136  67.051  1.00  0.00    -0.187 OA 
BRANCH   8   9
HETATM    9  C   UNL     1     -10.218   7.091  67.838  1.00  0.00    -0.183 C  
HETATM   10  O   UNL     1     -10.965   6.224  67.393  1.00  0.00    -0.325 OA 
BRANCH   9  11
HETATM   11  C   UNL     1      -9.630   7.124  69.260  1.00  0.00    -0.155 C  
HETATM   12  C   UNL     1      -8.353   7.943  69.350  1.00  0.00    -0.132 A  
HETATM   13  C   UNL     1      -7.208   7.574  68.620  1.00  0.00    -0.086 A  
HETATM   14  C   UNL     1      -6.103   8.422  68.558  1.00  0.00    -0.045 A  
HETATM   15  C   UNL     1      -6.108   9.622  69.263  1.00  0.00    -0.037 A  
HETATM   16  C   UNL     1      -7.209   9.958  70.052  1.00  0.00    -0.146 A  
HETATM   17  C   UNL     1      -8.325   9.121  70.095  1.00  0.00    -0.165 A  
HETATM   18  O   UNL     1      -9.358   9.540  70.892  1.00  0.00    -0.229 OA 
HETATM   19  C   UNL     1     -10.456   8.728  71.033  1.00  0.00    -0.230 A  
HETATM   20  C   UNL     1     -11.390   9.135  71.990  1.00  0.00    -0.333 A  
HETATM   21  C   UNL     1     -12.555   8.399  72.193  1.00  0.00    -0.412 A  
HETATM   22  C   UNL     1     -12.785   7.253  71.438  1.00  0.00    -0.427 A  
HETATM   23  C   UNL     1     -11.842   6.834  70.494  1.00  0.00    -0.418 A  
HETATM   24  C   UNL     1     -10.665   7.571  70.275  1.00  0.00    -0.247 A  
ENDBRANCH   9  11
ENDBRANCH   8   9
ENDBRANCH   7   8
ENDBRANCH   6   7
ENDBRANCH   4   6
BRANCH   4  25
HETATM   25  C   UNL     1      -9.447  12.872  67.130  1.00  0.00    -0.229 C  
HETATM   26  C   UNL     1      -8.019  12.328  67.104  1.00  0.00    -0.161 C  
HETATM   27  C   UNL     1      -9.438  14.272  66.489  1.00  0.00    -0.306 C  
ENDBRANCH   4  25
ENDBRANCH   2   4
TORSDOF 7
ENDMDL
MODEL      132
REMARK 921   NORMALIZED FREE ENERGY PREDICTED BY IDOCK:   -4.58 KCAL/MOL
REMARK 922        TOTAL FREE ENERGY PREDICTED BY IDOCK:   -7.64 KCAL/MOL
REMARK 923 INTER-LIGAND FREE ENERGY PREDICTED BY IDOCK:   -6.66 KCAL/MOL
REMARK 924 INTRA-LIGAND FREE ENERGY PREDICTED BY IDOCK:   -0.98 KCAL/MOL
REMARK 927      BINDING AFFINITY PREDICTED BY RF-SCORE:    0.00 PKD
ROOT
HETATM    1  C   UNL     1      -9.939  11.397  63.154  1.00  0.00    -0.402 C  
HETATM    2  C   UNL     1     -10.999  12.366  63.690  1.00  0.00    -0.470 C  
HETATM    3  C   UNL     1     -12.420  11.857  63.445  1.00  0.00    -0.582 C  
ENDROOT
BRANCH   2   4
HETATM    4  N   UNL     1     -10.777  12.848  65.181  1.00  0.00    -0.296 N  
HETATM    5  C   UNL     1     -12.124  12.831  65.926  1.00  0.00    -0.426 C  
BRANCH   4   6
HETATM    6  C   UNL     1      -9.830  11.815  65.910  1.00  0.00    -0.238 C  
BRANCH   6   7
HETATM    7  C   UNL     1     -10.507  10.795  66.833  1.00  0.00    -0.252 C  
BRANCH   7   8
HETATM    8  O   UNL     1     -10.420   9.485  66.247  1.00  0.00    -0.192 OA 
BRANCH   8   9
HETATM    9  C   UNL     1     -10.281   8.428  67.114  1.00  0.00    -0.292 C  
HETATM   10  O   UNL     1     -10.963   7.414  66.991  1.00  0.00    -0.332 OA 
BRANCH   9  11
HETATM   11  C   UNL     1      -9.189   8.651  68.176  1.00  0.00    -0.142 C  
HETATM   12  C   UNL     1      -9.722   8.558  69.596  1.00  0.00    -0.179 A  
HETATM   13  C   UNL     1     -10.701   9.457  70.059  1.00  0.00    -0.270 A  
HETATM   14  C   UNL     1     -11.320   9.257  71.292  1.00  0.00    -0.423 A  
HETATM   15  C   UNL     1     -10.933   8.191  72.099  1.00  0.00    -0.372 A  
HETATM   16  C   UNL     1      -9.909   7.341  71.681  1.00  0.00    -0.176 A  
HETATM   17  C   UNL     1      -9.305   7.526  70.436  1.00  0.00    -0.161 A  
HETATM   18  O   UNL     1      -8.314   6.637  70.112  1.00  0.00    -0.130 OA 
HETATM   19  C   UNL     1      -7.634   6.806  68.932  1.00  0.00    -0.105 A  
HETATM   20  C   UNL     1      -6.526   5.973  68.747  1.00  0.00    -0.049 A  
HETATM   21  C   UNL     1      -5.783   6.041  67.571  1.00  0.00    -0.016 A  
HETATM   22  C   UNL     1      -6.147   6.947  66.580  1.00  0.00    -0.033 A  
HETATM   23  C   UNL     1      -7.241   7.795  66.772  1.00  0.00    -0.088 A  
HETATM   24  C   UNL     1      -8.004   7.732  67.951  1.00  0.00    -0.125 A  
ENDBRANCH   9  11
ENDBRANCH   8   9
ENDBRANCH   7   8
ENDBRANCH   6   7
ENDBRANCH   4   6
BRANCH   4  25
HETATM   25  C   UNL     1     -10.055  14.270  65.330  1.00  0.00    -0.351 C  
HETATM   26  C   UNL     1     -11.016  15.446  65.501  1.00  0.00    -0.350 C  
HETATM   27  C   UNL     1      -9.044  14.303  66.490  1.00  0.00    -0.212 C  
ENDBRANCH   4  25
ENDBRANCH   2   4
TORSDOF 7
ENDMDL
MODEL      133
REMARK 921   NORMALIZED FREE ENERGY PREDICTED BY IDOCK:   -4.58 KCAL/MOL
REMARK 922        TOTAL FREE ENERGY PREDICTED BY IDOCK:   -7.63 KCAL/MOL
REMARK 923 INTER-LIGAND FREE ENERGY PREDICTED BY IDOCK:   -6.71 KCAL/MOL
REMARK 924 INTRA-LIGAND FREE ENERGY PREDICTED BY IDOCK:   -0.92 KCAL/MOL
REMARK 927      BINDING AFFINITY PREDICTED BY RF-SCORE:    0.00 PKD
ROOT
HETATM    1  C   UNL     1     -11.589  15.078  66.658  1.00  0.00    -0.201 C  
HETATM    2  C   UNL     1     -11.128  13.681  66.224  1.00  0.00    -0.301 C  
HETATM    3  C   UNL     1     -10.644  13.660  64.774  1.00  0.00    -0.436 C  
ENDROOT
BRANCH   2   4
HETATM    4  N   UNL     1     -10.114  12.972  67.212  1.00  0.00    -0.233 N  
HETATM    5  C   UNL     1     -10.823  12.689  68.549  1.00  0.00    -0.252 C  
BRANCH   4   6
HETATM    6  C   UNL     1      -9.705  11.575  66.598  1.00  0.00    -0.199 C  
BRANCH   6   7
HETATM    7  C   UNL     1     -10.510  10.357  67.066  1.00  0.00    -0.251 C  
BRANCH   7   8
HETATM    8  O   UNL     1      -9.645   9.456  67.779  1.00  0.00    -0.132 OA 
BRANCH   8   9
HETATM    9  C   UNL     1     -10.208   8.284  68.226  1.00  0.00    -0.208 C  
HETATM   10  O   UNL     1     -10.757   7.509  67.447  1.00  0.00    -0.280 OA 
BRANCH   9  11
HETATM   11  C   UNL     1     -10.032   8.063  69.739  1.00  0.00    -0.191 C  
HETATM   12  C   UNL     1     -11.259   8.469  70.539  1.00  0.00    -0.262 A  
HETATM   13  C   UNL     1     -11.710   9.802  70.538  1.00  0.00    -0.343 A  
HETATM   14  C   UNL     1     -12.933  10.136  71.118  1.00  0.00    -0.488 A  
HETATM   15  C   UNL     1     -13.693   9.156  71.751  1.00  0.00    -0.465 A  
HETATM   16  C   UNL     1     -13.214   7.847  71.824  1.00  0.00    -0.360 A  
HETATM   17  C   UNL     1     -12.002   7.507  71.222  1.00  0.00    -0.307 A  
HETATM   18  O   UNL     1     -11.620   6.196  71.342  1.00  0.00    -0.289 OA 
HETATM   19  C   UNL     1     -10.404   5.813  70.832  1.00  0.00    -0.237 A  
HETATM   20  C   UNL     1     -10.003   4.509  71.141  1.00  0.00    -0.257 A  
HETATM   21  C   UNL     1      -8.800   4.008  70.649  1.00  0.00    -0.132 A  
HETATM   22  C   UNL     1      -7.996   4.814  69.850  1.00  0.00    -0.069 A  
HETATM   23  C   UNL     1      -8.385   6.124  69.557  1.00  0.00    -0.120 A  
HETATM   24  C   UNL     1      -9.600   6.640  70.042  1.00  0.00    -0.163 A  
ENDBRANCH   9  11
ENDBRANCH   8   9
ENDBRANCH   7   8
ENDBRANCH   6   7
ENDBRANCH   4   6
BRANCH   4  25
HETATM   25  C   UNL     1      -8.738  13.758  67.445  1.00  0.00    -0.207 C  
HETATM   26  C   UNL     1      -8.718  14.630  68.700  1.00  0.00    -0.174 C  
HETATM   27  C   UNL     1      -7.519  12.818  67.493  1.00  0.00    -0.154 C  
ENDBRANCH   4  25
ENDBRANCH   2   4
TORSDOF 7
ENDMDL
MODEL      134
REMARK 921   NORMALIZED FREE ENERGY PREDICTED BY IDOCK:   -4.57 KCAL/MOL
REMARK 922        TOTAL FREE ENERGY PREDICTED BY IDOCK:   -7.63 KCAL/MOL
REMARK 923 INTER-LIGAND FREE ENERGY PREDICTED BY IDOCK:   -7.17 KCAL/MOL
REMARK 924 INTRA-LIGAND FREE ENERGY PREDICTED BY IDOCK:   -0.46 KCAL/MOL
REMARK 927      BINDING AFFINITY PREDICTED BY RF-SCORE:    0.00 PKD
ROOT
HETATM    1  C   UNL     1      -9.573   7.205  70.305  1.00  0.00    -0.169 C  
HETATM    2  C   UNL     1     -10.452   8.297  69.683  1.00  0.00    -0.221 C  
HETATM    3  C   UNL     1     -11.400   8.924  70.705  1.00  0.00    -0.299 C  
ENDROOT
BRANCH   2   4
HETATM    4  N   UNL     1      -9.673   9.382  68.833  1.00  0.00    -0.160 N  
HETATM    5  C   UNL     1     -10.173   9.340  67.378  1.00  0.00    -0.243 C  
BRANCH   4   6
HETATM    6  C   UNL     1     -10.019  10.814  69.403  1.00  0.00    -0.110 C  
BRANCH   6   7
HETATM    7  C   UNL     1     -10.146  11.948  68.379  1.00  0.00    -0.206 C  
BRANCH   7   8
HETATM    8  O   UNL     1     -11.536  12.200  68.112  1.00  0.00    -0.295 OA 
BRANCH   8   9
HETATM    9  C   UNL     1     -12.012  13.447  68.438  1.00  0.00    -0.324 C  
HETATM   10  O   UNL     1     -12.442  13.686  69.564  1.00  0.00    -0.241 OA 
BRANCH   9  11
HETATM   11  C   UNL     1     -11.904  14.461  67.285  1.00  0.00    -0.434 C  
HETATM   12  C   UNL     1     -10.867  15.541  67.546  1.00  0.00    -0.306 A  
HETATM   13  C   UNL     1     -11.004  16.422  68.635  1.00  0.00    -0.345 A  
HETATM   14  C   UNL     1      -9.966  17.287  68.981  1.00  0.00    -0.272 A  
HETATM   15  C   UNL     1      -8.804  17.319  68.216  1.00  0.00    -0.258 A  
HETATM   16  C   UNL     1      -8.694  16.504  67.089  1.00  0.00    -0.216 A  
HETATM   17  C   UNL     1      -9.722  15.620  66.756  1.00  0.00    -0.241 A  
HETATM   18  O   UNL     1      -9.517  14.857  65.636  1.00  0.00    -0.282 OA 
HETATM   19  C   UNL     1     -10.520  14.019  65.216  1.00  0.00    -0.382 A  
HETATM   20  C   UNL     1     -10.314  13.404  63.977  1.00  0.00     0.093 A  
HETATM   21  C   UNL     1     -11.255  12.511  63.470  1.00  0.00    -0.525 A  
HETATM   22  C   UNL     1     -12.406  12.236  64.202  1.00  0.00    -0.546 A  
HETATM   23  C   UNL     1     -12.623  12.866  65.430  1.00  0.00    -0.440 A  
HETATM   24  C   UNL     1     -11.678  13.764  65.957  1.00  0.00    -0.383 A  
ENDBRANCH   9  11
ENDBRANCH   8   9
ENDBRANCH   7   8
ENDBRANCH   6   7
ENDBRANCH   4   6
BRANCH   4  25
HETATM   25  C   UNL     1      -8.077   9.270  68.896  1.00  0.00    -0.103 C  
HETATM   26  C   UNL     1      -7.370   9.629  67.590  1.00  0.00    -0.090 C  
HETATM   27  C   UNL     1      -7.466  10.123  70.023  1.00  0.00    -0.171 C  
ENDBRANCH   4  25
ENDBRANCH   2   4
TORSDOF 7
ENDMDL
MODEL      135
REMARK 921   NORMALIZED FREE ENERGY PREDICTED BY IDOCK:   -4.57 KCAL/MOL
REMARK 922        TOTAL FREE ENERGY PREDICTED BY IDOCK:   -7.62 KCAL/MOL
REMARK 923 INTER-LIGAND FREE ENERGY PREDICTED BY IDOCK:   -6.69 KCAL/MOL
REMARK 924 INTRA-LIGAND FREE ENERGY PREDICTED BY IDOCK:   -0.94 KCAL/MOL
REMARK 927      BINDING AFFINITY PREDICTED BY RF-SCORE:    0.00 PKD
ROOT
HETATM    1  C   UNL     1     -11.184  15.995  69.420  1.00  0.00    -0.349 C  
HETATM    2  C   UNL     1     -10.485  16.155  68.065  1.00  0.00    -0.281 C  
HETATM    3  C   UNL     1      -9.365  17.194  68.115  1.00  0.00    -0.264 C  
ENDROOT
BRANCH   2   4
HETATM    4  N   UNL     1     -10.025  14.802  67.383  1.00  0.00    -0.223 N  
HETATM    5  C   UNL     1      -8.490  14.782  67.278  1.00  0.00    -0.214 C  
BRANCH   4   6
HETATM    6  C   UNL     1     -10.443  13.598  68.317  1.00  0.00    -0.249 C  
BRANCH   6   7
HETATM    7  C   UNL     1      -9.676  12.284  68.127  1.00  0.00    -0.213 C  
BRANCH   7   8
HETATM    8  O   UNL     1     -10.238  11.273  68.981  1.00  0.00    -0.205 OA 
BRANCH   8   9
HETATM    9  C   UNL     1     -11.159  10.425  68.412  1.00  0.00    -0.268 C  
HETATM   10  O   UNL     1     -12.099  10.863  67.754  1.00  0.00    -0.433 OA 
BRANCH   9  11
HETATM   11  C   UNL     1     -10.852   8.938  68.659  1.00  0.00    -0.036 C  
HETATM   12  C   UNL     1      -9.717   8.419  67.792  1.00  0.00    -0.199 A  
HETATM   13  C   UNL     1      -9.826   8.417  66.389  1.00  0.00    -0.310 A  
HETATM   14  C   UNL     1      -8.721   8.116  65.593  1.00  0.00    -0.176 A  
HETATM   15  C   UNL     1      -7.512   7.765  66.187  1.00  0.00    -0.079 A  
HETATM   16  C   UNL     1      -7.418   7.689  67.577  1.00  0.00    -0.104 A  
HETATM   17  C   UNL     1      -8.517   8.014  68.375  1.00  0.00    -0.127 A  
HETATM   18  O   UNL     1      -8.325   7.915  69.728  1.00  0.00    -0.123 OA 
HETATM   19  C   UNL     1      -9.387   8.153  70.565  1.00  0.00    -0.155 A  
HETATM   20  C   UNL     1      -9.167   7.868  71.916  1.00  0.00    -0.202 A  
HETATM   21  C   UNL     1     -10.168   8.101  72.856  1.00  0.00    -0.341 A  
HETATM   22  C   UNL     1     -11.392   8.618  72.443  1.00  0.00    -0.353 A  
HETATM   23  C   UNL     1     -11.620   8.885  71.090  1.00  0.00    -0.360 A  
HETATM   24  C   UNL     1     -10.616   8.660  70.132  1.00  0.00    -0.235 A  
ENDBRANCH   9  11
ENDBRANCH   8   9
ENDBRANCH   7   8
ENDBRANCH   6   7
ENDBRANCH   4   6
BRANCH   4  25
HETATM   25  C   UNL     1     -10.703  14.498  65.964  1.00  0.00    -0.305 C  
HETATM   26  C   UNL     1     -12.158  14.039  66.049  1.00  0.00    -0.461 C  
HETATM   27  C   UNL     1     -10.635  15.701  65.005  1.00  0.00    -0.422 C  
ENDBRANCH   4  25
ENDBRANCH   2   4
TORSDOF 7
ENDMDL
MODEL      136
REMARK 921   NORMALIZED FREE ENERGY PREDICTED BY IDOCK:   -4.55 KCAL/MOL
REMARK 922        TOTAL FREE ENERGY PREDICTED BY IDOCK:   -7.60 KCAL/MOL
REMARK 923 INTER-LIGAND FREE ENERGY PREDICTED BY IDOCK:   -5.91 KCAL/MOL
REMARK 924 INTRA-LIGAND FREE ENERGY PREDICTED BY IDOCK:   -1.69 KCAL/MOL
REMARK 927      BINDING AFFINITY PREDICTED BY RF-SCORE:    0.00 PKD
ROOT
HETATM    1  C   UNL     1      -6.689   3.871  68.587  1.00  0.00    -0.046 C  
HETATM    2  C   UNL     1      -8.091   4.407  68.273  1.00  0.00    -0.082 C  
HETATM    3  C   UNL     1      -9.092   3.282  68.010  1.00  0.00    -0.214 C  
ENDROOT
BRANCH   2   4
HETATM    4  N   UNL     1      -8.642   5.482  69.296  1.00  0.00    -0.103 N  
HETATM    5  C   UNL     1      -7.461   6.269  69.891  1.00  0.00    -0.084 C  
BRANCH   4   6
HETATM    6  C   UNL     1      -9.540   6.516  68.508  1.00  0.00    -0.123 C  
BRANCH   6   7
HETATM    7  C   UNL     1      -8.829   7.387  67.466  1.00  0.00    -0.127 C  
BRANCH   7   8
HETATM    8  O   UNL     1      -9.230   8.758  67.633  1.00  0.00    -0.133 OA 
BRANCH   8   9
HETATM    9  C   UNL     1      -8.358   9.580  68.306  1.00  0.00    -0.118 C  
HETATM   10  O   UNL     1      -7.143   9.448  68.185  1.00  0.00    -0.075 OA 
BRANCH   9  11
HETATM   11  C   UNL     1      -9.064  10.653  69.154  1.00  0.00    -0.152 C  
HETATM   12  C   UNL     1      -9.766  11.703  68.308  1.00  0.00    -0.197 A  
HETATM   13  C   UNL     1      -9.037  12.525  67.429  1.00  0.00    -0.185 A  
HETATM   14  C   UNL     1      -9.697  13.355  66.524  1.00  0.00    -0.284 A  
HETATM   15  C   UNL     1     -11.088  13.412  66.521  1.00  0.00    -0.312 A  
HETATM   16  C   UNL     1     -11.815  12.658  67.442  1.00  0.00    -0.393 A  
HETATM   17  C   UNL     1     -11.156  11.809  68.332  1.00  0.00    -0.237 A  
HETATM   18  O   UNL     1     -11.957  11.105  69.194  1.00  0.00    -0.330 OA 
HETATM   19  C   UNL     1     -11.366  10.305  70.140  1.00  0.00    -0.316 A  
HETATM   20  C   UNL     1     -12.231   9.755  71.092  1.00  0.00    -0.453 A  
HETATM   21  C   UNL     1     -11.740   8.905  72.080  1.00  0.00    -0.438 A  
HETATM   22  C   UNL     1     -10.382   8.607  72.117  1.00  0.00    -0.403 A  
HETATM   23  C   UNL     1      -9.513   9.172  71.180  1.00  0.00    -0.331 A  
HETATM   24  C   UNL     1      -9.996  10.027  70.173  1.00  0.00    -0.239 A  
ENDBRANCH   9  11
ENDBRANCH   8   9
ENDBRANCH   7   8
ENDBRANCH   6   7
ENDBRANCH   4   6
BRANCH   4  25
HETATM   25  C   UNL     1      -9.582   4.893  70.452  1.00  0.00    -0.190 C  
HETATM   26  C   UNL     1      -8.985   4.990  71.855  1.00  0.00    -0.147 C  
HETATM   27  C   UNL     1     -10.974   5.549  70.476  1.00  0.00    -0.196 C  
ENDBRANCH   4  25
ENDBRANCH   2   4
TORSDOF 7
ENDMDL
MODEL      137
REMARK 921   NORMALIZED FREE ENERGY PREDICTED BY IDOCK:   -4.54 KCAL/MOL
REMARK 922        TOTAL FREE ENERGY PREDICTED BY IDOCK:   -7.58 KCAL/MOL
REMARK 923 INTER-LIGAND FREE ENERGY PREDICTED BY IDOCK:   -6.71 KCAL/MOL
REMARK 924 INTRA-LIGAND FREE ENERGY PREDICTED BY IDOCK:   -0.87 KCAL/MOL
REMARK 927      BINDING AFFINITY PREDICTED BY RF-SCORE:    0.00 PKD
ROOT
HETATM    1  C   UNL     1      -8.469   7.104  66.078  1.00  0.00    -0.148 C  
HETATM    2  C   UNL     1      -9.311   7.891  67.089  1.00  0.00    -0.153 C  
HETATM    3  C   UNL     1     -10.671   7.238  67.338  1.00  0.00    -0.358 C  
ENDROOT
BRANCH   2   4
HETATM    4  N   UNL     1      -8.565   8.269  68.434  1.00  0.00    -0.132 N  
HETATM    5  C   UNL     1      -7.056   8.400  68.157  1.00  0.00    -0.085 C  
BRANCH   4   6
HETATM    6  C   UNL     1      -9.075   9.686  68.913  1.00  0.00    -0.144 C  
BRANCH   6   7
HETATM    7  C   UNL     1      -9.015  10.821  67.884  1.00  0.00    -0.139 C  
BRANCH   7   8
HETATM    8  O   UNL     1      -9.588  12.012  68.450  1.00  0.00    -0.204 OA 
BRANCH   8   9
HETATM    9  C   UNL     1      -9.388  13.183  67.760  1.00  0.00    -0.206 C  
HETATM   10  O   UNL     1      -8.261  13.526  67.410  1.00  0.00    -0.169 OA 
BRANCH   9  11
HETATM   11  C   UNL     1     -10.691  13.945  67.462  1.00  0.00    -0.271 C  
HETATM   12  C   UNL     1     -10.555  15.445  67.662  1.00  0.00    -0.280 A  
HETATM   13  C   UNL     1     -10.244  15.977  68.928  1.00  0.00    -0.231 A  
HETATM   14  C   UNL     1      -9.938  17.330  69.072  1.00  0.00    -0.272 A  
HETATM   15  C   UNL     1      -9.990  18.175  67.967  1.00  0.00    -0.353 A  
HETATM   16  C   UNL     1     -10.373  17.670  66.725  1.00  0.00    -0.331 A  
HETATM   17  C   UNL     1     -10.655  16.311  66.575  1.00  0.00    -0.256 A  
HETATM   18  O   UNL     1     -11.016  15.910  65.315  1.00  0.00    -0.361 OA 
HETATM   19  C   UNL     1     -11.374  14.600  65.116  1.00  0.00    -0.375 A  
HETATM   20  C   UNL     1     -11.894  14.300  63.854  1.00  0.00    -0.153 A  
HETATM   21  C   UNL     1     -12.261  12.994  63.536  1.00  0.00    -0.580 A  
HETATM   22  C   UNL     1     -12.110  11.988  64.484  1.00  0.00    -0.340 A  
HETATM   23  C   UNL     1     -11.610  12.289  65.754  1.00  0.00    -0.443 A  
HETATM   24  C   UNL     1     -11.229  13.602  66.085  1.00  0.00    -0.309 A  
ENDBRANCH   9  11
ENDBRANCH   8   9
ENDBRANCH   7   8
ENDBRANCH   6   7
ENDBRANCH   4   6
BRANCH   4  25
HETATM   25  C   UNL     1      -8.841   7.277  69.660  1.00  0.00    -0.141 C  
HETATM   26  C   UNL     1      -7.619   6.475  70.105  1.00  0.00    -0.096 C  
HETATM   27  C   UNL     1      -9.415   8.001  70.892  1.00  0.00    -0.178 C  
ENDBRANCH   4  25
ENDBRANCH   2   4
TORSDOF 7
ENDMDL
MODEL      138
REMARK 921   NORMALIZED FREE ENERGY PREDICTED BY IDOCK:   -4.53 KCAL/MOL
REMARK 922        TOTAL FREE ENERGY PREDICTED BY IDOCK:   -7.57 KCAL/MOL
REMARK 923 INTER-LIGAND FREE ENERGY PREDICTED BY IDOCK:   -6.17 KCAL/MOL
REMARK 924 INTRA-LIGAND FREE ENERGY PREDICTED BY IDOCK:   -1.40 KCAL/MOL
REMARK 927      BINDING AFFINITY PREDICTED BY RF-SCORE:    0.00 PKD
ROOT
HETATM    1  C   UNL     1     -11.899  11.919  68.816  1.00  0.00    -0.371 C  
HETATM    2  C   UNL     1     -11.741  13.054  67.798  1.00  0.00    -0.359 C  
HETATM    3  C   UNL     1     -11.535  14.409  68.474  1.00  0.00    -0.326 C  
ENDROOT
BRANCH   2   4
HETATM    4  N   UNL     1     -10.685  12.783  66.649  1.00  0.00    -0.259 N  
HETATM    5  C   UNL     1      -9.372  13.513  66.985  1.00  0.00    -0.247 C  
BRANCH   4   6
HETATM    6  C   UNL     1     -10.362  11.238  66.613  1.00  0.00    -0.237 C  
BRANCH   6   7
HETATM    7  C   UNL     1      -9.096  10.818  65.857  1.00  0.00    -0.188 C  
BRANCH   7   8
HETATM    8  O   UNL     1      -9.088   9.390  65.691  1.00  0.00    -0.177 OA 
BRANCH   8   9
HETATM    9  C   UNL     1      -7.904   8.744  65.956  1.00  0.00    -0.105 C  
HETATM   10  O   UNL     1      -6.850   9.123  65.452  1.00  0.00    -0.072 OA 
BRANCH   9  11
HETATM   11  C   UNL     1      -8.057   7.574  66.944  1.00  0.00    -0.116 C  
HETATM   12  C   UNL     1      -8.766   7.975  68.226  1.00  0.00    -0.130 A  
HETATM   13  C   UNL     1      -8.214   8.947  69.081  1.00  0.00    -0.118 A  
HETATM   14  C   UNL     1      -8.950   9.447  70.155  1.00  0.00    -0.256 A  
HETATM   15  C   UNL     1     -10.222   8.945  70.419  1.00  0.00    -0.236 A  
HETATM   16  C   UNL     1     -10.744   7.926  69.622  1.00  0.00    -0.218 A  
HETATM   17  C   UNL     1     -10.018   7.443  68.532  1.00  0.00    -0.165 A  
HETATM   18  O   UNL     1     -10.618   6.447  67.806  1.00  0.00    -0.200 OA 
HETATM   19  C   UNL     1      -9.927   5.881  66.764  1.00  0.00    -0.175 A  
HETATM   20  C   UNL     1     -10.525   4.760  66.180  1.00  0.00    -0.332 A  
HETATM   21  C   UNL     1      -9.923   4.126  65.096  1.00  0.00    -0.218 A  
HETATM   22  C   UNL     1      -8.719   4.614  64.597  1.00  0.00    -0.151 A  
HETATM   23  C   UNL     1      -8.110   5.722  65.192  1.00  0.00    -0.133 A  
HETATM   24  C   UNL     1      -8.710   6.375  66.283  1.00  0.00    -0.146 A  
ENDBRANCH   9  11
ENDBRANCH   8   9
ENDBRANCH   7   8
ENDBRANCH   6   7
ENDBRANCH   4   6
BRANCH   4  25
HETATM   25  C   UNL     1     -11.186  13.151  65.173  1.00  0.00    -0.294 C  
HETATM   26  C   UNL     1     -12.658  12.832  64.912  1.00  0.00    -0.541 C  
HETATM   27  C   UNL     1     -10.945  14.629  64.815  1.00  0.00    -0.399 C  
ENDBRANCH   4  25
ENDBRANCH   2   4
TORSDOF 7
ENDMDL
MODEL      139
REMARK 921   NORMALIZED FREE ENERGY PREDICTED BY IDOCK:   -4.53 KCAL/MOL
REMARK 922        TOTAL FREE ENERGY PREDICTED BY IDOCK:   -7.56 KCAL/MOL
REMARK 923 INTER-LIGAND FREE ENERGY PREDICTED BY IDOCK:   -6.32 KCAL/MOL
REMARK 924 INTRA-LIGAND FREE ENERGY PREDICTED BY IDOCK:   -1.25 KCAL/MOL
REMARK 927      BINDING AFFINITY PREDICTED BY RF-SCORE:    0.00 PKD
ROOT
HETATM    1  C   UNL     1      -9.033   2.217  67.546  1.00  0.00    -0.185 C  
HETATM    2  C   UNL     1      -8.672   3.706  67.620  1.00  0.00    -0.107 C  
HETATM    3  C   UNL     1      -7.334   3.939  68.322  1.00  0.00    -0.059 C  
ENDROOT
BRANCH   2   4
HETATM    4  N   UNL     1      -8.784   4.493  66.251  1.00  0.00    -0.112 N  
HETATM    5  C   UNL     1     -10.248   4.481  65.777  1.00  0.00    -0.265 C  
BRANCH   4   6
HETATM    6  C   UNL     1      -8.389   6.002  66.503  1.00  0.00    -0.113 C  
BRANCH   6   7
HETATM    7  C   UNL     1      -9.537   7.017  66.524  1.00  0.00    -0.144 C  
BRANCH   7   8
HETATM    8  O   UNL     1      -9.596   7.647  67.816  1.00  0.00    -0.140 OA 
BRANCH   8   9
HETATM    9  C   UNL     1     -10.492   7.125  68.718  1.00  0.00    -0.202 C  
HETATM   10  O   UNL     1     -11.404   6.390  68.350  1.00  0.00    -0.280 OA 
BRANCH   9  11
HETATM   11  C   UNL     1     -10.195   7.527  70.173  1.00  0.00    -0.206 C  
HETATM   12  C   UNL     1     -10.995   8.737  70.625  1.00  0.00    -0.278 A  
HETATM   13  C   UNL     1     -10.835   9.983  69.990  1.00  0.00    -0.352 A  
HETATM   14  C   UNL     1     -11.696  11.041  70.279  1.00  0.00    -0.445 A  
HETATM   15  C   UNL     1     -12.691  10.884  71.241  1.00  0.00    -0.542 A  
HETATM   16  C   UNL     1     -12.805   9.677  71.930  1.00  0.00    -0.515 A  
HETATM   17  C   UNL     1     -11.959   8.609  71.624  1.00  0.00    -0.326 A  
HETATM   18  O   UNL     1     -12.153   7.463  72.350  1.00  0.00    -0.247 OA 
HETATM   19  C   UNL     1     -11.308   6.401  72.146  1.00  0.00    -0.290 A  
HETATM   20  C   UNL     1     -11.452   5.333  73.037  1.00  0.00    -0.340 A  
HETATM   21  C   UNL     1     -10.666   4.192  72.901  1.00  0.00    -0.230 A  
HETATM   22  C   UNL     1      -9.731   4.120  71.874  1.00  0.00    -0.235 A  
HETATM   23  C   UNL     1      -9.570   5.195  70.994  1.00  0.00    -0.229 A  
HETATM   24  C   UNL     1     -10.363   6.350  71.116  1.00  0.00    -0.244 A  
ENDBRANCH   9  11
ENDBRANCH   8   9
ENDBRANCH   7   8
ENDBRANCH   6   7
ENDBRANCH   4   6
BRANCH   4  25
HETATM   25  C   UNL     1      -7.801   3.979  65.096  1.00  0.00    -0.089 C  
HETATM   26  C   UNL     1      -8.456   3.035  64.088  1.00  0.00    -0.089 C  
HETATM   27  C   UNL     1      -7.147   5.134  64.317  1.00  0.00    -0.050 C  
ENDBRANCH   4  25
ENDBRANCH   2   4
TORSDOF 7
ENDMDL
MODEL      140
REMARK 921   NORMALIZED FREE ENERGY PREDICTED BY IDOCK:   -4.49 KCAL/MOL
REMARK 922        TOTAL FREE ENERGY PREDICTED BY IDOCK:   -7.52 KCAL/MOL
REMARK 923 INTER-LIGAND FREE ENERGY PREDICTED BY IDOCK:   -8.08 KCAL/MOL
REMARK 924 INTRA-LIGAND FREE ENERGY PREDICTED BY IDOCK:    0.56 KCAL/MOL
REMARK 927      BINDING AFFINITY PREDICTED BY RF-SCORE:    0.00 PKD
ROOT
HETATM    1  C   UNL     1     -12.744  11.648  70.974  1.00  0.00    -0.395 C  
HETATM    2  C   UNL     1     -11.970  12.801  70.325  1.00  0.00    -0.280 C  
HETATM    3  C   UNL     1     -11.857  12.638  68.809  1.00  0.00    -0.341 C  
ENDROOT
BRANCH   2   4
HETATM    4  N   UNL     1     -12.448  14.251  70.745  1.00  0.00    -0.335 N  
HETATM    5  C   UNL     1     -11.430  14.856  71.728  1.00  0.00    -0.202 C  
BRANCH   4   6
HETATM    6  C   UNL     1     -12.457  15.171  69.461  1.00  0.00    -0.085 C  
BRANCH   6   7
HETATM    7  C   UNL     1     -11.224  16.055  69.241  1.00  0.00    -0.346 C  
BRANCH   7   8
HETATM    8  O   UNL     1     -10.122  15.240  68.806  1.00  0.00    -0.205 OA 
BRANCH   8   9
HETATM    9  C   UNL     1      -8.956  15.896  68.489  1.00  0.00    -0.199 C  
HETATM   10  O   UNL     1      -8.095  16.102  69.341  1.00  0.00    -0.226 OA 
BRANCH   9  11
HETATM   11  C   UNL     1      -8.857  16.279  67.002  1.00  0.00    -0.228 C  
HETATM   12  C   UNL     1      -9.715  15.399  66.109  1.00  0.00    -0.347 A  
HETATM   13  C   UNL     1      -9.478  14.014  66.021  1.00  0.00    -0.164 A  
HETATM   14  C   UNL     1     -10.375  13.183  65.350  1.00  0.00    -0.313 A  
HETATM   15  C   UNL     1     -11.488  13.730  64.718  1.00  0.00    -0.366 A  
HETATM   16  C   UNL     1     -11.688  15.110  64.735  1.00  0.00    -0.331 A  
HETATM   17  C   UNL     1     -10.803  15.941  65.426  1.00  0.00    -0.349 A  
HETATM   18  O   UNL     1     -11.087  17.281  65.390  1.00  0.00    -0.210 OA 
HETATM   19  C   UNL     1     -10.218  18.156  65.992  1.00  0.00    -0.320 A  
HETATM   20  C   UNL     1     -10.476  19.513  65.770  1.00  0.00    -0.518 A  
HETATM   21  C   UNL     1      -9.673  20.487  66.358  1.00  0.00    -0.279 A  
HETATM   22  C   UNL     1      -8.609  20.103  67.168  1.00  0.00    -0.415 A  
HETATM   23  C   UNL     1      -8.337  18.748  67.375  1.00  0.00    -0.280 A  
HETATM   24  C   UNL     1      -9.144  17.754  66.793  1.00  0.00    -0.273 A  
ENDBRANCH   9  11
ENDBRANCH   8   9
ENDBRANCH   7   8
ENDBRANCH   6   7
ENDBRANCH   4   6
BRANCH   4  25
HETATM   25  C   UNL     1     -13.934  14.326  71.337  1.00  0.00    -0.272 C  
HETATM   26  C   UNL     1     -14.248  13.256  72.382  1.00  0.00    -0.334 C  
HETATM   27  C   UNL     1     -14.262  15.701  71.945  1.00  0.00    -0.463 C  
ENDBRANCH   4  25
ENDBRANCH   2   4
TORSDOF 7
ENDMDL
MODEL      141
REMARK 921   NORMALIZED FREE ENERGY PREDICTED BY IDOCK:   -4.48 KCAL/MOL
REMARK 922        TOTAL FREE ENERGY PREDICTED BY IDOCK:   -7.50 KCAL/MOL
REMARK 923 INTER-LIGAND FREE ENERGY PREDICTED BY IDOCK:   -6.45 KCAL/MOL
REMARK 924 INTRA-LIGAND FREE ENERGY PREDICTED BY IDOCK:   -1.04 KCAL/MOL
REMARK 927      BINDING AFFINITY PREDICTED BY RF-SCORE:    0.00 PKD
ROOT
HETATM    1  C   UNL     1      -5.164  17.739  69.582  1.00  0.00    -0.188 C  
HETATM    2  C   UNL     1      -6.494  18.471  69.364  1.00  0.00    -0.242 C  
HETATM    3  C   UNL     1      -6.643  19.680  70.288  1.00  0.00    -0.122 C  
ENDROOT
BRANCH   2   4
HETATM    4  N   UNL     1      -6.832  18.815  67.856  1.00  0.00    -0.211 N  
HETATM    5  C   UNL     1      -5.599  18.525  66.981  1.00  0.00    -0.139 C  
BRANCH   4   6
HETATM    6  C   UNL     1      -7.987  17.855  67.366  1.00  0.00    -0.213 C  
BRANCH   6   7
HETATM    7  C   UNL     1      -7.602  16.792  66.331  1.00  0.00    -0.290 C  
BRANCH   7   8
HETATM    8  O   UNL     1      -8.289  15.563  66.628  1.00  0.00    -0.255 OA 
BRANCH   8   9
HETATM    9  C   UNL     1      -7.575  14.605  67.306  1.00  0.00    -0.143 C  
HETATM   10  O   UNL     1      -6.347  14.614  67.309  1.00  0.00    -0.303 OA 
BRANCH   9  11
HETATM   11  C   UNL     1      -8.467  13.598  68.056  1.00  0.00    -0.174 C  
HETATM   12  C   UNL     1      -9.723  14.235  68.625  1.00  0.00    -0.213 A  
HETATM   13  C   UNL     1      -9.639  15.255  69.592  1.00  0.00    -0.188 A  
HETATM   14  C   UNL     1     -10.777  15.963  69.976  1.00  0.00    -0.343 A  
HETATM   15  C   UNL     1     -12.017  15.628  69.440  1.00  0.00    -0.349 A  
HETATM   16  C   UNL     1     -12.120  14.567  68.539  1.00  0.00    -0.257 A  
HETATM   17  C   UNL     1     -10.977  13.873  68.136  1.00  0.00    -0.249 A  
HETATM   18  O   UNL     1     -11.180  12.852  67.245  1.00  0.00    -0.264 OA 
HETATM   19  C   UNL     1     -10.106  12.087  66.862  1.00  0.00    -0.205 A  
HETATM   20  C   UNL     1     -10.410  10.962  66.090  1.00  0.00    -0.305 A  
HETATM   21  C   UNL     1      -9.393  10.132  65.624  1.00  0.00    -0.250 A  
HETATM   22  C   UNL     1      -8.069  10.429  65.933  1.00  0.00    -0.149 A  
HETATM   23  C   UNL     1      -7.765  11.542  66.721  1.00  0.00    -0.136 A  
HETATM   24  C   UNL     1      -8.781  12.391  67.193  1.00  0.00    -0.195 A  
ENDBRANCH   9  11
ENDBRANCH   8   9
ENDBRANCH   7   8
ENDBRANCH   6   7
ENDBRANCH   4   6
BRANCH   4  25
HETATM   25  C   UNL     1      -7.376  20.301  67.610  1.00  0.00    -0.305 C  
HETATM   26  C   UNL     1      -6.437  21.184  66.789  1.00  0.00    -0.376 C  
HETATM   27  C   UNL     1      -8.762  20.322  66.941  1.00  0.00    -0.385 C  
ENDBRANCH   4  25
ENDBRANCH   2   4
TORSDOF 7
ENDMDL
MODEL      142
REMARK 921   NORMALIZED FREE ENERGY PREDICTED BY IDOCK:   -4.47 KCAL/MOL
REMARK 922        TOTAL FREE ENERGY PREDICTED BY IDOCK:   -7.49 KCAL/MOL
REMARK 923 INTER-LIGAND FREE ENERGY PREDICTED BY IDOCK:   -7.00 KCAL/MOL
REMARK 924 INTRA-LIGAND FREE ENERGY PREDICTED BY IDOCK:   -0.49 KCAL/MOL
REMARK 927      BINDING AFFINITY PREDICTED BY RF-SCORE:    0.00 PKD
ROOT
HETATM    1  C   UNL     1      -8.932  14.006  66.646  1.00  0.00    -0.177 C  
HETATM    2  C   UNL     1     -10.274  14.231  65.940  1.00  0.00    -0.324 C  
HETATM    3  C   UNL     1     -10.302  15.549  65.165  1.00  0.00    -0.388 C  
ENDROOT
BRANCH   2   4
HETATM    4  N   UNL     1     -10.792  13.009  65.077  1.00  0.00    -0.296 N  
HETATM    5  C   UNL     1      -9.686  12.572  64.100  1.00  0.00     0.046 C  
BRANCH   4   6
HETATM    6  C   UNL     1     -11.068  11.790  66.043  1.00  0.00    -0.312 C  
BRANCH   6   7
HETATM    7  C   UNL     1     -11.710  12.117  67.396  1.00  0.00    -0.304 C  
BRANCH   7   8
HETATM    8  O   UNL     1     -11.950  10.899  68.121  1.00  0.00    -0.581 OA 
BRANCH   8   9
HETATM    9  C   UNL     1     -11.323  10.769  69.337  1.00  0.00    -0.285 C  
HETATM   10  O   UNL     1     -11.554  11.552  70.255  1.00  0.00    -0.304 OA 
BRANCH   9  11
HETATM   11  C   UNL     1     -10.375   9.558  69.408  1.00  0.00    -0.225 C  
HETATM   12  C   UNL     1      -8.917   9.940  69.217  1.00  0.00    -0.184 A  
HETATM   13  C   UNL     1      -8.477  10.525  68.015  1.00  0.00    -0.120 A  
HETATM   14  C   UNL     1      -7.185  11.041  67.910  1.00  0.00    -0.086 A  
HETATM   15  C   UNL     1      -6.305  10.933  68.982  1.00  0.00    -0.049 A  
HETATM   16  C   UNL     1      -6.709  10.285  70.150  1.00  0.00    -0.146 A  
HETATM   17  C   UNL     1      -8.010   9.789  70.265  1.00  0.00    -0.162 A  
HETATM   18  O   UNL     1      -8.314   9.175  71.451  1.00  0.00    -0.321 OA 
HETATM   19  C   UNL     1      -9.554   8.605  71.601  1.00  0.00    -0.274 A  
HETATM   20  C   UNL     1      -9.735   7.849  72.763  1.00  0.00    -0.322 A  
HETATM   21  C   UNL     1     -10.965   7.252  73.029  1.00  0.00    -0.388 A  
HETATM   22  C   UNL     1     -12.014   7.408  72.129  1.00  0.00    -0.307 A  
HETATM   23  C   UNL     1     -11.828   8.146  70.956  1.00  0.00    -0.279 A  
HETATM   24  C   UNL     1     -10.594   8.761  70.679  1.00  0.00    -0.258 A  
ENDBRANCH   9  11
ENDBRANCH   8   9
ENDBRANCH   7   8
ENDBRANCH   6   7
ENDBRANCH   4   6
BRANCH   4  25
HETATM   25  C   UNL     1     -12.172  13.266  64.306  1.00  0.00    -0.392 C  
HETATM   26  C   UNL     1     -12.768  12.019  63.654  1.00  0.00    -0.550 C  
HETATM   27  C   UNL     1     -13.248  13.896  65.209  1.00  0.00    -0.012 C  
ENDBRANCH   4  25
ENDBRANCH   2   4
TORSDOF 7
ENDMDL
MODEL      143
REMARK 921   NORMALIZED FREE ENERGY PREDICTED BY IDOCK:   -4.47 KCAL/MOL
REMARK 922        TOTAL FREE ENERGY PREDICTED BY IDOCK:   -7.49 KCAL/MOL
REMARK 923 INTER-LIGAND FREE ENERGY PREDICTED BY IDOCK:   -6.39 KCAL/MOL
REMARK 924 INTRA-LIGAND FREE ENERGY PREDICTED BY IDOCK:   -1.09 KCAL/MOL
REMARK 927      BINDING AFFINITY PREDICTED BY RF-SCORE:    0.00 PKD
ROOT
HETATM    1  C   UNL     1      -8.220   8.190  68.483  1.00  0.00    -0.125 C  
HETATM    2  C   UNL     1      -8.626   9.650  68.718  1.00  0.00    -0.125 C  
HETATM    3  C   UNL     1      -8.964   9.925  70.183  1.00  0.00    -0.159 C  
ENDROOT
BRANCH   2   4
HETATM    4  N   UNL     1      -7.638  10.728  68.111  1.00  0.00    -0.090 N  
HETATM    5  C   UNL     1      -7.843  10.804  66.587  1.00  0.00    -0.140 C  
BRANCH   4   6
HETATM    6  C   UNL     1      -8.011  12.145  68.702  1.00  0.00    -0.063 C  
BRANCH   6   7
HETATM    7  C   UNL     1      -8.241  13.272  67.688  1.00  0.00    -0.179 C  
BRANCH   7   8
HETATM    8  O   UNL     1      -9.104  14.267  68.265  1.00  0.00    -0.177 OA 
BRANCH   8   9
HETATM    9  C   UNL     1     -10.018  14.856  67.425  1.00  0.00    -0.223 C  
HETATM   10  O   UNL     1      -9.763  15.912  66.853  1.00  0.00    -0.223 OA 
BRANCH   9  11
HETATM   11  C   UNL     1     -11.315  14.041  67.270  1.00  0.00    -0.350 C  
HETATM   12  C   UNL     1     -11.267  13.076  66.097  1.00  0.00    -0.320 A  
HETATM   13  C   UNL     1     -11.116  13.550  64.780  1.00  0.00    -0.368 A  
HETATM   14  C   UNL     1     -10.888  12.662  63.729  1.00  0.00    -0.466 A  
HETATM   15  C   UNL     1     -10.859  11.291  63.972  1.00  0.00    -0.414 A  
HETATM   16  C   UNL     1     -11.085  10.811  65.262  1.00  0.00     0.189 A  
HETATM   17  C   UNL     1     -11.290  11.700  66.319  1.00  0.00    -0.227 A  
HETATM   18  O   UNL     1     -11.497  11.132  67.549  1.00  0.00    -0.447 OA 
HETATM   19  C   UNL     1     -11.773  11.950  68.616  1.00  0.00    -0.323 A  
HETATM   20  C   UNL     1     -12.142  11.299  69.797  1.00  0.00    -0.394 A  
HETATM   21  C   UNL     1     -12.415  12.033  70.949  1.00  0.00    -0.384 A  
HETATM   22  C   UNL     1     -12.321  13.421  70.918  1.00  0.00    -0.436 A  
HETATM   23  C   UNL     1     -11.972  14.074  69.733  1.00  0.00    -0.393 A  
HETATM   24  C   UNL     1     -11.687  13.345  68.565  1.00  0.00    -0.392 A  
ENDBRANCH   9  11
ENDBRANCH   8   9
ENDBRANCH   7   8
ENDBRANCH   6   7
ENDBRANCH   4   6
BRANCH   4  25
HETATM   25  C   UNL     1      -6.094  10.506  68.474  1.00  0.00    -0.043 C  
HETATM   26  C   UNL     1      -5.130  11.387  67.680  1.00  0.00    -0.046 C  
HETATM   27  C   UNL     1      -5.801  10.705  69.972  1.00  0.00    -0.076 C  
ENDBRANCH   4  25
ENDBRANCH   2   4
TORSDOF 7
ENDMDL
MODEL      144
REMARK 921   NORMALIZED FREE ENERGY PREDICTED BY IDOCK:   -4.46 KCAL/MOL
REMARK 922        TOTAL FREE ENERGY PREDICTED BY IDOCK:   -7.47 KCAL/MOL
REMARK 923 INTER-LIGAND FREE ENERGY PREDICTED BY IDOCK:   -6.25 KCAL/MOL
REMARK 924 INTRA-LIGAND FREE ENERGY PREDICTED BY IDOCK:   -1.22 KCAL/MOL
REMARK 927      BINDING AFFINITY PREDICTED BY RF-SCORE:    0.00 PKD
ROOT
HETATM    1  C   UNL     1      -6.819   8.364  67.334  1.00  0.00    -0.070 C  
HETATM    2  C   UNL     1      -7.477   9.572  66.657  1.00  0.00    -0.093 C  
HETATM    3  C   UNL     1      -6.444  10.562  66.118  1.00  0.00    -0.122 C  
ENDROOT
BRANCH   2   4
HETATM    4  N   UNL     1      -8.593   9.220  65.591  1.00  0.00    -0.144 N  
HETATM    5  C   UNL     1      -8.334   7.808  65.033  1.00  0.00    -0.086 C  
BRANCH   4   6
HETATM    6  C   UNL     1      -9.994   9.182  66.321  1.00  0.00    -0.282 C  
BRANCH   6   7
HETATM    7  C   UNL     1     -10.122  10.009  67.605  1.00  0.00    -0.190 C  
BRANCH   7   8
HETATM    8  O   UNL     1     -10.338   9.129  68.722  1.00  0.00    -0.205 OA 
BRANCH   8   9
HETATM    9  C   UNL     1      -9.534   9.316  69.821  1.00  0.00    -0.191 C  
HETATM   10  O   UNL     1      -8.688  10.206  69.842  1.00  0.00    -0.173 OA 
BRANCH   9  11
HETATM   11  C   UNL     1      -9.843   8.344  70.974  1.00  0.00    -0.232 C  
HETATM   12  C   UNL     1     -11.311   8.342  71.365  1.00  0.00    -0.309 A  
HETATM   13  C   UNL     1     -11.927   9.509  71.857  1.00  0.00    -0.381 A  
HETATM   14  C   UNL     1     -13.308   9.557  72.040  1.00  0.00    -0.535 A  
HETATM   15  C   UNL     1     -14.083   8.429  71.784  1.00  0.00    -0.509 A  
HETATM   16  C   UNL     1     -13.470   7.246  71.371  1.00  0.00    -0.400 A  
HETATM   17  C   UNL     1     -12.090   7.203  71.164  1.00  0.00    -0.358 A  
HETATM   18  O   UNL     1     -11.582   5.998  70.753  1.00  0.00    -0.259 OA 
HETATM   19  C   UNL     1     -10.224   5.872  70.599  1.00  0.00    -0.209 A  
HETATM   20  C   UNL     1      -9.762   4.576  70.347  1.00  0.00    -0.287 A  
HETATM   21  C   UNL     1      -8.404   4.340  70.145  1.00  0.00    -0.081 A  
HETATM   22  C   UNL     1      -7.507   5.402  70.199  1.00  0.00    -0.069 A  
HETATM   23  C   UNL     1      -7.964   6.695  70.471  1.00  0.00    -0.111 A  
HETATM   24  C   UNL     1      -9.333   6.948  70.670  1.00  0.00    -0.162 A  
ENDBRANCH   9  11
ENDBRANCH   8   9
ENDBRANCH   7   8
ENDBRANCH   6   7
ENDBRANCH   4   6
BRANCH   4  25
HETATM   25  C   UNL     1      -8.755  10.286  64.407  1.00  0.00    -0.198 C  
HETATM   26  C   UNL     1      -8.374   9.753  63.027  1.00  0.00    -0.166 C  
HETATM   27  C   UNL     1     -10.178  10.866  64.322  1.00  0.00    -0.430 C  
ENDBRANCH   4  25
ENDBRANCH   2   4
TORSDOF 7
ENDMDL
MODEL      145
REMARK 921   NORMALIZED FREE ENERGY PREDICTED BY IDOCK:   -4.46 KCAL/MOL
REMARK 922        TOTAL FREE ENERGY PREDICTED BY IDOCK:   -7.47 KCAL/MOL
REMARK 923 INTER-LIGAND FREE ENERGY PREDICTED BY IDOCK:   -6.28 KCAL/MOL
REMARK 924 INTRA-LIGAND FREE ENERGY PREDICTED BY IDOCK:   -1.18 KCAL/MOL
REMARK 927      BINDING AFFINITY PREDICTED BY RF-SCORE:    0.00 PKD
ROOT
HETATM    1  C   UNL     1     -10.772   8.130  71.633  1.00  0.00    -0.299 C  
HETATM    2  C   UNL     1     -10.529   7.264  70.391  1.00  0.00    -0.220 C  
HETATM    3  C   UNL     1     -11.782   6.495  69.972  1.00  0.00    -0.388 C  
ENDROOT
BRANCH   2   4
HETATM    4  N   UNL     1      -9.842   8.011  69.176  1.00  0.00    -0.174 N  
HETATM    5  C   UNL     1     -10.612   7.691  67.882  1.00  0.00    -0.168 C  
BRANCH   4   6
HETATM    6  C   UNL     1      -9.955   9.569  69.412  1.00  0.00    -0.191 C  
BRANCH   6   7
HETATM    7  C   UNL     1     -10.869  10.343  68.455  1.00  0.00    -0.245 C  
BRANCH   7   8
HETATM    8  O   UNL     1     -11.467  11.450  69.152  1.00  0.00    -0.242 OA 
BRANCH   8   9
HETATM    9  C   UNL     1     -11.022  12.706  68.814  1.00  0.00    -0.249 C  
HETATM   10  O   UNL     1     -11.274  13.678  69.521  1.00  0.00    -0.228 OA 
BRANCH   9  11
HETATM   11  C   UNL     1     -10.180  12.727  67.526  1.00  0.00    -0.216 C  
HETATM   12  C   UNL     1     -10.897  13.393  66.364  1.00  0.00    -0.294 A  
HETATM   13  C   UNL     1     -12.100  12.862  65.861  1.00  0.00    -0.503 A  
HETATM   14  C   UNL     1     -12.850  13.572  64.923  1.00  0.00    -0.269 A  
HETATM   15  C   UNL     1     -12.384  14.792  64.441  1.00  0.00    -0.389 A  
HETATM   16  C   UNL     1     -11.155  15.286  64.877  1.00  0.00    -0.435 A  
HETATM   17  C   UNL     1     -10.415  14.589  65.833  1.00  0.00    -0.312 A  
HETATM   18  O   UNL     1      -9.225  15.159  66.202  1.00  0.00    -0.295 OA 
HETATM   19  C   UNL     1      -8.417  14.487  67.087  1.00  0.00    -0.212 A  
HETATM   20  C   UNL     1      -7.148  15.039  67.286  1.00  0.00    -0.134 A  
HETATM   21  C   UNL     1      -6.260  14.454  68.185  1.00  0.00    -0.142 A  
HETATM   22  C   UNL     1      -6.641  13.314  68.885  1.00  0.00    -0.107 A  
HETATM   23  C   UNL     1      -7.902  12.749  68.672  1.00  0.00    -0.044 A  
HETATM   24  C   UNL     1      -8.811  13.333  67.772  1.00  0.00    -0.197 A  
ENDBRANCH   9  11
ENDBRANCH   8   9
ENDBRANCH   7   8
ENDBRANCH   6   7
ENDBRANCH   4   6
BRANCH   4  25
HETATM   25  C   UNL     1      -8.277   7.717  69.002  1.00  0.00    -0.127 C  
HETATM   26  C   UNL     1      -7.896   6.244  69.144  1.00  0.00    -0.105 C  
HETATM   27  C   UNL     1      -7.723   8.228  67.660  1.00  0.00    -0.099 C  
ENDBRANCH   4  25
ENDBRANCH   2   4
TORSDOF 7
ENDMDL
MODEL      146
REMARK 921   NORMALIZED FREE ENERGY PREDICTED BY IDOCK:   -4.45 KCAL/MOL
REMARK 922        TOTAL FREE ENERGY PREDICTED BY IDOCK:   -7.46 KCAL/MOL
REMARK 923 INTER-LIGAND FREE ENERGY PREDICTED BY IDOCK:   -6.18 KCAL/MOL
REMARK 924 INTRA-LIGAND FREE ENERGY PREDICTED BY IDOCK:   -1.28 KCAL/MOL
REMARK 927      BINDING AFFINITY PREDICTED BY RF-SCORE:    0.00 PKD
ROOT
HETATM    1  C   UNL     1      -8.698  14.116  67.446  1.00  0.00    -0.217 C  
HETATM    2  C   UNL     1      -9.984  14.773  66.933  1.00  0.00    -0.244 C  
HETATM    3  C   UNL     1     -10.005  14.886  65.408  1.00  0.00    -0.367 C  
ENDROOT
BRANCH   2   4
HETATM    4  N   UNL     1     -11.326  14.166  67.513  1.00  0.00    -0.306 N  
HETATM    5  C   UNL     1     -12.367  14.063  66.383  1.00  0.00    -0.431 C  
BRANCH   4   6
HETATM    6  C   UNL     1     -11.039  12.696  68.017  1.00  0.00    -0.251 C  
BRANCH   6   7
HETATM    7  C   UNL     1     -11.339  11.562  67.030  1.00  0.00    -0.269 C  
BRANCH   7   8
HETATM    8  O   UNL     1     -11.592  10.347  67.757  1.00  0.00    -0.405 OA 
BRANCH   8   9
HETATM    9  C   UNL     1     -10.642   9.359  67.660  1.00  0.00    -0.271 C  
HETATM   10  O   UNL     1     -10.528   8.690  66.636  1.00  0.00    -0.277 OA 
BRANCH   9  11
HETATM   11  C   UNL     1      -9.761   9.235  68.916  1.00  0.00    -0.164 C  
HETATM   12  C   UNL     1     -10.030   7.961  69.699  1.00  0.00    -0.191 A  
HETATM   13  C   UNL     1     -11.296   7.715  70.263  1.00  0.00    -0.197 A  
HETATM   14  C   UNL     1     -11.595   6.472  70.819  1.00  0.00    -0.437 A  
HETATM   15  C   UNL     1     -10.620   5.480  70.866  1.00  0.00    -0.309 A  
HETATM   16  C   UNL     1      -9.339   5.742  70.379  1.00  0.00    -0.186 A  
HETATM   17  C   UNL     1      -9.046   6.978  69.800  1.00  0.00    -0.144 A  
HETATM   18  O   UNL     1      -7.763   7.138  69.346  1.00  0.00    -0.103 OA 
HETATM   19  C   UNL     1      -7.392   8.355  68.830  1.00  0.00    -0.087 A  
HETATM   20  C   UNL     1      -6.030   8.502  68.547  1.00  0.00    -0.045 A  
HETATM   21  C   UNL     1      -5.551   9.686  67.992  1.00  0.00    -0.040 A  
HETATM   22  C   UNL     1      -6.435  10.726  67.722  1.00  0.00    -0.059 A  
HETATM   23  C   UNL     1      -7.793  10.588  68.023  1.00  0.00    -0.105 A  
HETATM   24  C   UNL     1      -8.291   9.396  68.577  1.00  0.00    -0.118 A  
ENDBRANCH   9  11
ENDBRANCH   8   9
ENDBRANCH   7   8
ENDBRANCH   6   7
ENDBRANCH   4   6
BRANCH   4  25
HETATM   25  C   UNL     1     -11.926  14.943  68.779  1.00  0.00    -0.249 C  
HETATM   26  C   UNL     1     -11.827  14.171  70.094  1.00  0.00    -0.382 C  
HETATM   27  C   UNL     1     -11.283  16.327  68.984  1.00  0.00    -0.326 C  
ENDBRANCH   4  25
ENDBRANCH   2   4
TORSDOF 7
ENDMDL
MODEL      147
REMARK 921   NORMALIZED FREE ENERGY PREDICTED BY IDOCK:   -4.45 KCAL/MOL
REMARK 922        TOTAL FREE ENERGY PREDICTED BY IDOCK:   -7.45 KCAL/MOL
REMARK 923 INTER-LIGAND FREE ENERGY PREDICTED BY IDOCK:   -6.46 KCAL/MOL
REMARK 924 INTRA-LIGAND FREE ENERGY PREDICTED BY IDOCK:   -0.99 KCAL/MOL
REMARK 927      BINDING AFFINITY PREDICTED BY RF-SCORE:    0.00 PKD
ROOT
HETATM    1  C   UNL     1      -9.751  15.274  65.908  1.00  0.00    -0.390 C  
HETATM    2  C   UNL     1      -9.727  13.935  66.654  1.00  0.00    -0.289 C  
HETATM    3  C   UNL     1     -10.046  14.099  68.140  1.00  0.00    -0.239 C  
ENDROOT
BRANCH   2   4
HETATM    4  N   UNL     1     -10.566  12.775  65.979  1.00  0.00    -0.265 N  
HETATM    5  C   UNL     1      -9.616  11.634  65.571  1.00  0.00    -0.218 C  
BRANCH   4   6
HETATM    6  C   UNL     1     -11.567  12.186  67.049  1.00  0.00    -0.337 C  
BRANCH   6   7
HETATM    7  C   UNL     1     -11.271  10.772  67.561  1.00  0.00    -0.274 C  
BRANCH   7   8
HETATM    8  O   UNL     1     -11.841  10.607  68.871  1.00  0.00    -0.274 OA 
BRANCH   8   9
HETATM    9  C   UNL     1     -11.026  10.062  69.835  1.00  0.00    -0.293 C  
HETATM   10  O   UNL     1     -11.286  10.191  71.029  1.00  0.00    -0.339 OA 
BRANCH   9  11
HETATM   11  C   UNL     1      -9.835   9.279  69.255  1.00  0.00    -0.172 C  
HETATM   12  C   UNL     1      -8.504   9.973  69.489  1.00  0.00    -0.186 A  
HETATM   13  C   UNL     1      -8.249  11.245  68.943  1.00  0.00    -0.079 A  
HETATM   14  C   UNL     1      -7.107  11.957  69.308  1.00  0.00    -0.004 A  
HETATM   15  C   UNL     1      -6.183  11.388  70.180  1.00  0.00    -0.138 A  
HETATM   16  C   UNL     1      -6.391  10.096  70.664  1.00  0.00    -0.093 A  
HETATM   17  C   UNL     1      -7.545   9.392  70.318  1.00  0.00    -0.138 A  
HETATM   18  O   UNL     1      -7.661   8.134  70.848  1.00  0.00    -0.078 OA 
HETATM   19  C   UNL     1      -8.740   7.363  70.490  1.00  0.00    -0.147 A  
HETATM   20  C   UNL     1      -8.706   6.036  70.928  1.00  0.00    -0.135 A  
HETATM   21  C   UNL     1      -9.764   5.175  70.646  1.00  0.00    -0.257 A  
HETATM   22  C   UNL     1     -10.856   5.643  69.922  1.00  0.00    -0.370 A  
HETATM   23  C   UNL     1     -10.883   6.963  69.466  1.00  0.00    -0.287 A  
HETATM   24  C   UNL     1      -9.824   7.845  69.750  1.00  0.00    -0.179 A  
ENDBRANCH   9  11
ENDBRANCH   8   9
ENDBRANCH   7   8
ENDBRANCH   6   7
ENDBRANCH   4   6
BRANCH   4  25
HETATM   25  C   UNL     1     -11.478  13.233  64.744  1.00  0.00    -0.327 C  
HETATM   26  C   UNL     1     -11.651  12.167  63.662  1.00  0.00    -0.575 C  
HETATM   27  C   UNL     1     -12.877  13.703  65.183  1.00  0.00    -0.382 C  
ENDBRANCH   4  25
ENDBRANCH   2   4
TORSDOF 7
ENDMDL
MODEL      148
REMARK 921   NORMALIZED FREE ENERGY PREDICTED BY IDOCK:   -4.42 KCAL/MOL
REMARK 922        TOTAL FREE ENERGY PREDICTED BY IDOCK:   -7.41 KCAL/MOL
REMARK 923 INTER-LIGAND FREE ENERGY PREDICTED BY IDOCK:   -6.20 KCAL/MOL
REMARK 924 INTRA-LIGAND FREE ENERGY PREDICTED BY IDOCK:   -1.22 KCAL/MOL
REMARK 927      BINDING AFFINITY PREDICTED BY RF-SCORE:    0.00 PKD
ROOT
HETATM    1  C   UNL     1      -9.521   7.877  72.947  1.00  0.00    -0.321 C  
HETATM    2  C   UNL     1      -9.715   6.906  71.777  1.00  0.00    -0.159 C  
HETATM    3  C   UNL     1     -10.126   5.511  72.249  1.00  0.00    -0.225 C  
ENDROOT
BRANCH   2   4
HETATM    4  N   UNL     1     -10.633   7.443  70.604  1.00  0.00    -0.220 N  
HETATM    5  C   UNL     1     -12.034   6.819  70.730  1.00  0.00    -0.378 C  
BRANCH   4   6
HETATM    6  C   UNL     1     -10.802   9.005  70.769  1.00  0.00    -0.251 C  
BRANCH   6   7
HETATM    7  C   UNL     1      -9.964   9.888  69.839  1.00  0.00    -0.252 C  
BRANCH   7   8
HETATM    8  O   UNL     1     -10.594  11.174  69.702  1.00  0.00    -0.163 OA 
BRANCH   8   9
HETATM    9  C   UNL     1     -11.315  11.389  68.552  1.00  0.00    -0.271 C  
HETATM   10  O   UNL     1     -12.497  11.063  68.477  1.00  0.00    -0.440 OA 
BRANCH   9  11
HETATM   11  C   UNL     1     -10.506  12.091  67.447  1.00  0.00    -0.239 C  
HETATM   12  C   UNL     1      -9.789  13.335  67.943  1.00  0.00    -0.234 A  
HETATM   13  C   UNL     1     -10.514  14.431  68.448  1.00  0.00    -0.246 A  
HETATM   14  C   UNL     1      -9.854  15.491  69.070  1.00  0.00    -0.235 A  
HETATM   15  C   UNL     1      -8.464  15.493  69.149  1.00  0.00    -0.248 A  
HETATM   16  C   UNL     1      -7.735  14.448  68.581  1.00  0.00    -0.138 A  
HETATM   17  C   UNL     1      -8.396  13.375  67.979  1.00  0.00    -0.165 A  
HETATM   18  O   UNL     1      -7.593  12.395  67.456  1.00  0.00    -0.133 OA 
HETATM   19  C   UNL     1      -8.179  11.348  66.790  1.00  0.00    -0.160 A  
HETATM   20  C   UNL     1      -7.300  10.480  66.135  1.00  0.00    -0.136 A  
HETATM   21  C   UNL     1      -7.787   9.367  65.454  1.00  0.00    -0.104 A  
HETATM   22  C   UNL     1      -9.157   9.124  65.425  1.00  0.00    -0.271 A  
HETATM   23  C   UNL     1     -10.039  10.002  66.061  1.00  0.00    -0.318 A  
HETATM   24  C   UNL     1      -9.560  11.125  66.758  1.00  0.00    -0.215 A  
ENDBRANCH   9  11
ENDBRANCH   8   9
ENDBRANCH   7   8
ENDBRANCH   6   7
ENDBRANCH   4   6
BRANCH   4  25
HETATM   25  C   UNL     1     -10.038   7.230  69.132  1.00  0.00    -0.183 C  
HETATM   26  C   UNL     1      -8.690   6.511  69.098  1.00  0.00    -0.129 C  
HETATM   27  C   UNL     1     -11.007   6.475  68.204  1.00  0.00    -0.365 C  
ENDBRANCH   4  25
ENDBRANCH   2   4
TORSDOF 7
ENDMDL
MODEL      149
REMARK 921   NORMALIZED FREE ENERGY PREDICTED BY IDOCK:   -4.41 KCAL/MOL
REMARK 922        TOTAL FREE ENERGY PREDICTED BY IDOCK:   -7.39 KCAL/MOL
REMARK 923 INTER-LIGAND FREE ENERGY PREDICTED BY IDOCK:   -6.30 KCAL/MOL
REMARK 924 INTRA-LIGAND FREE ENERGY PREDICTED BY IDOCK:   -1.10 KCAL/MOL
REMARK 927      BINDING AFFINITY PREDICTED BY RF-SCORE:    0.00 PKD
ROOT
HETATM    1  C   UNL     1      -9.840  16.989  66.379  1.00  0.00    -0.312 C  
HETATM    2  C   UNL     1      -9.090  17.097  67.711  1.00  0.00    -0.233 C  
HETATM    3  C   UNL     1      -9.901  17.843  68.770  1.00  0.00    -0.354 C  
ENDROOT
BRANCH   2   4
HETATM    4  N   UNL     1      -8.488  15.738  68.255  1.00  0.00    -0.161 N  
HETATM    5  C   UNL     1      -8.865  15.574  69.739  1.00  0.00    -0.015 C  
BRANCH   4   6
HETATM    6  C   UNL     1      -9.155  14.540  67.471  1.00  0.00    -0.193 C  
BRANCH   6   7
HETATM    7  C   UNL     1     -10.056  13.604  68.285  1.00  0.00    -0.240 C  
BRANCH   7   8
HETATM    8  O   UNL     1     -10.837  12.793  67.391  1.00  0.00    -0.233 OA 
BRANCH   8   9
HETATM    9  C   UNL     1     -11.053  11.489  67.768  1.00  0.00    -0.260 C  
HETATM   10  O   UNL     1     -11.762  10.745  67.095  1.00  0.00    -0.312 OA 
BRANCH   9  11
HETATM   11  C   UNL     1     -10.299  11.093  69.050  1.00  0.00    -0.214 C  
HETATM   12  C   UNL     1     -11.232  10.763  70.203  1.00  0.00    -0.345 A  
HETATM   13  C   UNL     1     -12.106  11.735  70.724  1.00  0.00    -0.352 A  
HETATM   14  C   UNL     1     -13.086  11.383  71.651  1.00  0.00    -0.498 A  
HETATM   15  C   UNL     1     -13.171  10.071  72.107  1.00  0.00    -0.489 A  
HETATM   16  C   UNL     1     -12.258   9.119  71.654  1.00  0.00    -0.433 A  
HETATM   17  C   UNL     1     -11.292   9.464  70.707  1.00  0.00    -0.300 A  
HETATM   18  O   UNL     1     -10.446   8.459  70.320  1.00  0.00    -0.208 OA 
HETATM   19  C   UNL     1      -9.430   8.751  69.444  1.00  0.00    -0.161 A  
HETATM   20  C   UNL     1      -8.505   7.726  69.227  1.00  0.00    -0.138 A  
HETATM   21  C   UNL     1      -7.451   7.906  68.334  1.00  0.00    -0.100 A  
HETATM   22  C   UNL     1      -7.322   9.116  67.659  1.00  0.00    -0.087 A  
HETATM   23  C   UNL     1      -8.234  10.149  67.890  1.00  0.00    -0.109 A  
HETATM   24  C   UNL     1      -9.306   9.978  68.783  1.00  0.00    -0.162 A  
ENDBRANCH   9  11
ENDBRANCH   8   9
ENDBRANCH   7   8
ENDBRANCH   6   7
ENDBRANCH   4   6
BRANCH   4  25
HETATM   25  C   UNL     1      -6.910  15.565  68.040  1.00  0.00    -0.136 C  
HETATM   26  C   UNL     1      -6.158  16.879  67.832  1.00  0.00    -0.146 C  
HETATM   27  C   UNL     1      -6.234  14.803  69.194  1.00  0.00    -0.105 C  
ENDBRANCH   4  25
ENDBRANCH   2   4
TORSDOF 7
ENDMDL
MODEL      150
REMARK 921   NORMALIZED FREE ENERGY PREDICTED BY IDOCK:   -4.40 KCAL/MOL
REMARK 922        TOTAL FREE ENERGY PREDICTED BY IDOCK:   -7.38 KCAL/MOL
REMARK 923 INTER-LIGAND FREE ENERGY PREDICTED BY IDOCK:   -6.21 KCAL/MOL
REMARK 924 INTRA-LIGAND FREE ENERGY PREDICTED BY IDOCK:   -1.17 KCAL/MOL
REMARK 927      BINDING AFFINITY PREDICTED BY RF-SCORE:    0.00 PKD
ROOT
HETATM    1  C   UNL     1      -7.062   7.045  73.256  1.00  0.00    -0.073 C  
HETATM    2  C   UNL     1      -8.240   6.091  73.024  1.00  0.00    -0.116 C  
HETATM    3  C   UNL     1      -9.081   5.898  74.286  1.00  0.00    -0.126 C  
ENDROOT
BRANCH   2   4
HETATM    4  N   UNL     1      -9.123   6.412  71.750  1.00  0.00    -0.143 N  
HETATM    5  C   UNL     1     -10.612   6.309  72.126  1.00  0.00    -0.223 C  
BRANCH   4   6
HETATM    6  C   UNL     1      -8.856   7.907  71.314  1.00  0.00    -0.135 C  
BRANCH   6   7
HETATM    7  C   UNL     1      -9.831   8.962  71.848  1.00  0.00    -0.294 C  
BRANCH   7   8
HETATM    8  O   UNL     1     -10.097   9.934  70.822  1.00  0.00    -0.214 OA 
BRANCH   8   9
HETATM    9  C   UNL     1     -11.415  10.253  70.600  1.00  0.00    -0.349 C  
HETATM   10  O   UNL     1     -12.264  10.072  71.469  1.00  0.00    -0.373 OA 
BRANCH   9  11
HETATM   11  C   UNL     1     -11.667  10.872  69.214  1.00  0.00    -0.395 C  
HETATM   12  C   UNL     1     -11.481  12.381  69.200  1.00  0.00    -0.358 A  
HETATM   13  C   UNL     1     -12.295  13.213  69.991  1.00  0.00    -0.241 A  
HETATM   14  C   UNL     1     -12.006  14.572  70.120  1.00  0.00    -0.377 A  
HETATM   15  C   UNL     1     -10.935  15.123  69.421  1.00  0.00    -0.268 A  
HETATM   16  C   UNL     1     -10.172  14.319  68.574  1.00  0.00    -0.245 A  
HETATM   17  C   UNL     1     -10.446  12.954  68.463  1.00  0.00    -0.247 A  
HETATM   18  O   UNL     1      -9.637  12.248  67.612  1.00  0.00    -0.183 OA 
HETATM   19  C   UNL     1      -9.899  10.916  67.406  1.00  0.00    -0.173 A  
HETATM   20  C   UNL     1      -9.148  10.301  66.399  1.00  0.00    -0.174 A  
HETATM   21  C   UNL     1      -9.312   8.945  66.128  1.00  0.00    -0.301 A  
HETATM   22  C   UNL     1     -10.231   8.203  66.863  1.00  0.00    -0.387 A  
HETATM   23  C   UNL     1     -10.997   8.820  67.856  1.00  0.00     0.056 A  
HETATM   24  C   UNL     1     -10.837  10.187  68.145  1.00  0.00    -0.310 A  
ENDBRANCH   9  11
ENDBRANCH   8   9
ENDBRANCH   7   8
ENDBRANCH   6   7
ENDBRANCH   4   6
BRANCH   4  25
HETATM   25  C   UNL     1      -8.792   5.523  70.459  1.00  0.00    -0.136 C  
HETATM   26  C   UNL     1     -10.013   4.858  69.826  1.00  0.00    -0.314 C  
HETATM   27  C   UNL     1      -8.056   6.318  69.365  1.00  0.00    -0.113 C  
ENDBRANCH   4  25
ENDBRANCH   2   4
TORSDOF 7
ENDMDL
MODEL      151
REMARK 921   NORMALIZED FREE ENERGY PREDICTED BY IDOCK:   -4.39 KCAL/MOL
REMARK 922        TOTAL FREE ENERGY PREDICTED BY IDOCK:   -7.37 KCAL/MOL
REMARK 923 INTER-LIGAND FREE ENERGY PREDICTED BY IDOCK:   -6.42 KCAL/MOL
REMARK 924 INTRA-LIGAND FREE ENERGY PREDICTED BY IDOCK:   -0.94 KCAL/MOL
REMARK 927      BINDING AFFINITY PREDICTED BY RF-SCORE:    0.00 PKD
ROOT
HETATM    1  C   UNL     1     -10.373   7.921  72.633  1.00  0.00    -0.372 C  
HETATM    2  C   UNL     1     -11.237   7.512  71.435  1.00  0.00    -0.242 C  
HETATM    3  C   UNL     1     -12.429   8.450  71.238  1.00  0.00    -0.264 C  
ENDROOT
BRANCH   2   4
HETATM    4  N   UNL     1     -10.442   7.252  70.091  1.00  0.00    -0.213 N  
HETATM    5  C   UNL     1     -11.217   6.236  69.232  1.00  0.00    -0.389 C  
BRANCH   4   6
HETATM    6  C   UNL     1     -10.379   8.601  69.272  1.00  0.00    -0.221 C  
BRANCH   6   7
HETATM    7  C   UNL     1     -10.767   8.524  67.791  1.00  0.00    -0.101 C  
BRANCH   7   8
HETATM    8  O   UNL     1     -10.438   9.766  67.144  1.00  0.00    -0.243 OA 
BRANCH   8   9
HETATM    9  C   UNL     1      -9.426   9.729  66.215  1.00  0.00    -0.195 C  
HETATM   10  O   UNL     1      -8.950   8.660  65.840  1.00  0.00    -0.177 OA 
BRANCH   9  11
HETATM   11  C   UNL     1      -9.017  11.122  65.704  1.00  0.00    -0.195 C  
HETATM   12  C   UNL     1     -10.186  11.903  65.127  1.00  0.00    -0.314 A  
HETATM   13  C   UNL     1     -10.887  11.425  64.003  1.00  0.00    -0.450 A  
HETATM   14  C   UNL     1     -12.067  12.043  63.590  1.00  0.00    -0.627 A  
HETATM   15  C   UNL     1     -12.532  13.172  64.259  1.00  0.00    -0.358 A  
HETATM   16  C   UNL     1     -11.801  13.697  65.324  1.00  0.00    -0.365 A  
HETATM   17  C   UNL     1     -10.632  13.065  65.755  1.00  0.00    -0.277 A  
HETATM   18  O   UNL     1      -9.988  13.652  66.812  1.00  0.00    -0.256 OA 
HETATM   19  C   UNL     1      -8.797  13.120  67.238  1.00  0.00    -0.208 A  
HETATM   20  C   UNL     1      -8.111  13.866  68.202  1.00  0.00    -0.150 A  
HETATM   21  C   UNL     1      -6.907  13.402  68.725  1.00  0.00    -0.101 A  
HETATM   22  C   UNL     1      -6.386  12.191  68.281  1.00  0.00    -0.053 A  
HETATM   23  C   UNL     1      -7.059  11.454  67.303  1.00  0.00    -0.119 A  
HETATM   24  C   UNL     1      -8.279  11.907  66.771  1.00  0.00    -0.129 A  
ENDBRANCH   9  11
ENDBRANCH   8   9
ENDBRANCH   7   8
ENDBRANCH   6   7
ENDBRANCH   4   6
BRANCH   4  25
HETATM   25  C   UNL     1      -8.919   6.796  70.286  1.00  0.00    -0.152 C  
HETATM   26  C   UNL     1      -8.735   5.292  70.482  1.00  0.00    -0.132 C  
HETATM   27  C   UNL     1      -8.013   7.244  69.125  1.00  0.00    -0.119 C  
ENDBRANCH   4  25
ENDBRANCH   2   4
TORSDOF 7
ENDMDL
MODEL      152
REMARK 921   NORMALIZED FREE ENERGY PREDICTED BY IDOCK:   -4.39 KCAL/MOL
REMARK 922        TOTAL FREE ENERGY PREDICTED BY IDOCK:   -7.37 KCAL/MOL
REMARK 923 INTER-LIGAND FREE ENERGY PREDICTED BY IDOCK:   -7.55 KCAL/MOL
REMARK 924 INTRA-LIGAND FREE ENERGY PREDICTED BY IDOCK:    0.18 KCAL/MOL
REMARK 927      BINDING AFFINITY PREDICTED BY RF-SCORE:    0.00 PKD
ROOT
HETATM    1  C   UNL     1      -9.939  10.612  64.121  1.00  0.00    -0.406 C  
HETATM    2  C   UNL     1     -10.534  12.020  64.009  1.00  0.00    -0.372 C  
HETATM    3  C   UNL     1     -11.862  12.025  63.252  1.00  0.00    -0.450 C  
ENDROOT
BRANCH   2   4
HETATM    4  N   UNL     1     -10.608  12.828  65.368  1.00  0.00    -0.281 N  
HETATM    5  C   UNL     1      -9.400  12.455  66.246  1.00  0.00    -0.189 C  
BRANCH   4   6
HETATM    6  C   UNL     1     -10.490  14.370  65.046  1.00  0.00    -0.430 C  
BRANCH   6   7
HETATM    7  C   UNL     1     -10.003  15.274  66.184  1.00  0.00    -0.302 C  
BRANCH   7   8
HETATM    8  O   UNL     1      -8.631  15.637  65.955  1.00  0.00    -0.242 OA 
BRANCH   8   9
HETATM    9  C   UNL     1      -8.288  16.945  66.200  1.00  0.00    -0.251 C  
HETATM   10  O   UNL     1      -9.127  17.840  66.140  1.00  0.00    -0.457 OA 
BRANCH   9  11
HETATM   11  C   UNL     1      -6.807  17.126  66.577  1.00  0.00    -0.295 C  
HETATM   12  C   UNL     1      -6.389  18.586  66.636  1.00  0.00    -0.206 A  
HETATM   13  C   UNL     1      -6.451  19.400  65.489  1.00  0.00    -0.288 A  
HETATM   14  C   UNL     1      -6.245  20.776  65.584  1.00  0.00    -0.274 A  
HETATM   15  C   UNL     1      -5.926  21.346  66.813  1.00  0.00    -0.393 A  
HETATM   16  C   UNL     1      -5.786  20.535  67.939  1.00  0.00    -0.281 A  
HETATM   17  C   UNL     1      -6.016  19.161  67.850  1.00  0.00    -0.203 A  
HETATM   18  O   UNL     1      -5.860  18.451  69.011  1.00  0.00    -0.203 OA 
HETATM   19  C   UNL     1      -6.003  17.086  68.975  1.00  0.00    -0.172 A  
HETATM   20  C   UNL     1      -5.663  16.411  70.151  1.00  0.00    -0.187 A  
HETATM   21  C   UNL     1      -5.799  15.027  70.232  1.00  0.00    -0.147 A  
HETATM   22  C   UNL     1      -6.274  14.317  69.134  1.00  0.00    -0.099 A  
HETATM   23  C   UNL     1      -6.595  14.988  67.951  1.00  0.00    -0.174 A  
HETATM   24  C   UNL     1      -6.469  16.386  67.857  1.00  0.00    -0.150 A  
ENDBRANCH   9  11
ENDBRANCH   8   9
ENDBRANCH   7   8
ENDBRANCH   6   7
ENDBRANCH   4   6
BRANCH   4  25
HETATM   25  C   UNL     1     -11.980  12.663  66.177  1.00  0.00    -0.395 C  
HETATM   26  C   UNL     1     -11.817  12.660  67.696  1.00  0.00    -0.390 C  
HETATM   27  C   UNL     1     -13.020  13.737  65.808  1.00  0.00    -0.310 C  
ENDBRANCH   4  25
ENDBRANCH   2   4
TORSDOF 7
ENDMDL
MODEL      153
REMARK 921   NORMALIZED FREE ENERGY PREDICTED BY IDOCK:   -4.36 KCAL/MOL
REMARK 922        TOTAL FREE ENERGY PREDICTED BY IDOCK:   -7.33 KCAL/MOL
REMARK 923 INTER-LIGAND FREE ENERGY PREDICTED BY IDOCK:   -6.99 KCAL/MOL
REMARK 924 INTRA-LIGAND FREE ENERGY PREDICTED BY IDOCK:   -0.34 KCAL/MOL
REMARK 927      BINDING AFFINITY PREDICTED BY RF-SCORE:    0.00 PKD
ROOT
HETATM    1  C   UNL     1      -7.781   7.987  68.953  1.00  0.00    -0.104 C  
HETATM    2  C   UNL     1      -9.196   8.213  69.496  1.00  0.00    -0.158 C  
HETATM    3  C   UNL     1      -9.190   8.616  70.970  1.00  0.00    -0.253 C  
ENDROOT
BRANCH   2   4
HETATM    4  N   UNL     1     -10.112   9.156  68.613  1.00  0.00    -0.188 N  
HETATM    5  C   UNL     1     -11.347   9.574  69.431  1.00  0.00     0.054 C  
BRANCH   4   6
HETATM    6  C   UNL     1      -9.307  10.474  68.280  1.00  0.00    -0.156 C  
BRANCH   6   7
HETATM    7  C   UNL     1      -9.879  11.785  68.830  1.00  0.00    -0.087 C  
BRANCH   7   8
HETATM    8  O   UNL     1      -9.984  12.746  67.765  1.00  0.00    -0.208 OA 
BRANCH   8   9
HETATM    9  C   UNL     1      -9.585  14.030  68.050  1.00  0.00    -0.217 C  
HETATM   10  O   UNL     1      -8.397  14.305  68.196  1.00  0.00    -0.144 OA 
BRANCH   9  11
HETATM   11  C   UNL     1     -10.753  15.031  68.118  1.00  0.00    -0.256 C  
HETATM   12  C   UNL     1     -11.465  15.014  69.460  1.00  0.00    -0.317 A  
HETATM   13  C   UNL     1     -12.112  13.851  69.918  1.00  0.00    -0.406 A  
HETATM   14  C   UNL     1     -12.603  13.780  71.221  1.00  0.00    -0.444 A  
HETATM   15  C   UNL     1     -12.499  14.884  72.063  1.00  0.00    -0.408 A  
HETATM   16  C   UNL     1     -11.929  16.066  71.591  1.00  0.00    -0.569 A  
HETATM   17  C   UNL     1     -11.416  16.130  70.294  1.00  0.00    -0.308 A  
HETATM   18  O   UNL     1     -10.870  17.332  69.924  1.00  0.00     0.025 OA 
HETATM   19  C   UNL     1     -10.411  17.481  68.639  1.00  0.00    -0.338 A  
HETATM   20  C   UNL     1     -10.029  18.778  68.281  1.00  0.00    -0.432 A  
HETATM   21  C   UNL     1      -9.520  19.035  67.010  1.00  0.00    -0.358 A  
HETATM   22  C   UNL     1      -9.397  17.994  66.095  1.00  0.00    -0.146 A  
HETATM   23  C   UNL     1      -9.798  16.702  66.445  1.00  0.00    -0.308 A  
HETATM   24  C   UNL     1     -10.306  16.427  67.727  1.00  0.00    -0.287 A  
ENDBRANCH   9  11
ENDBRANCH   8   9
ENDBRANCH   7   8
ENDBRANCH   6   7
ENDBRANCH   4   6
BRANCH   4  25
HETATM   25  C   UNL     1     -10.540   8.546  67.196  1.00  0.00    -0.243 C  
HETATM   26  C   UNL     1      -9.647   8.975  66.032  1.00  0.00    -0.342 C  
HETATM   27  C   UNL     1     -10.607   7.008  67.208  1.00  0.00    -0.395 C  
ENDBRANCH   4  25
ENDBRANCH   2   4
TORSDOF 7
ENDMDL
MODEL      154
REMARK 921   NORMALIZED FREE ENERGY PREDICTED BY IDOCK:   -4.35 KCAL/MOL
REMARK 922        TOTAL FREE ENERGY PREDICTED BY IDOCK:   -7.32 KCAL/MOL
REMARK 923 INTER-LIGAND FREE ENERGY PREDICTED BY IDOCK:   -6.49 KCAL/MOL
REMARK 924 INTRA-LIGAND FREE ENERGY PREDICTED BY IDOCK:   -0.83 KCAL/MOL
REMARK 927      BINDING AFFINITY PREDICTED BY RF-SCORE:    0.00 PKD
ROOT
HETATM    1  C   UNL     1      -8.673   7.180  70.610  1.00  0.00    -0.148 C  
HETATM    2  C   UNL     1      -8.650   8.696  70.387  1.00  0.00    -0.153 C  
HETATM    3  C   UNL     1      -7.258   9.290  70.604  1.00  0.00    -0.120 C  
ENDROOT
BRANCH   2   4
HETATM    4  N   UNL     1      -9.315   9.186  69.036  1.00  0.00    -0.150 N  
HETATM    5  C   UNL     1     -10.831   9.350  69.246  1.00  0.00    -0.172 C  
BRANCH   4   6
HETATM    6  C   UNL     1      -8.738  10.612  68.678  1.00  0.00    -0.148 C  
BRANCH   6   7
HETATM    7  C   UNL     1      -9.764  11.719  68.405  1.00  0.00    -0.197 C  
BRANCH   7   8
HETATM    8  O   UNL     1      -9.097  12.992  68.368  1.00  0.00    -0.191 OA 
BRANCH   8   9
HETATM    9  C   UNL     1      -8.391  13.288  67.227  1.00  0.00    -0.177 C  
HETATM   10  O   UNL     1      -7.338  12.711  66.968  1.00  0.00    -0.082 OA 
BRANCH   9  11
HETATM   11  C   UNL     1      -9.074  14.347  66.344  1.00  0.00    -0.192 C  
HETATM   12  C   UNL     1     -10.360  13.844  65.710  1.00  0.00    -0.326 A  
HETATM   13  C   UNL     1     -10.345  12.755  64.818  1.00  0.00    -0.345 A  
HETATM   14  C   UNL     1     -11.538  12.179  64.383  1.00  0.00    -0.422 A  
HETATM   15  C   UNL     1     -12.757  12.715  64.790  1.00  0.00    -0.460 A  
HETATM   16  C   UNL     1     -12.779  13.842  65.612  1.00  0.00    -0.523 A  
HETATM   17  C   UNL     1     -11.585  14.404  66.067  1.00  0.00    -0.363 A  
HETATM   18  O   UNL     1     -11.711  15.505  66.874  1.00  0.00    -0.017 OA 
HETATM   19  C   UNL     1     -10.574  16.146  67.299  1.00  0.00    -0.305 A  
HETATM   20  C   UNL     1     -10.777  17.355  67.971  1.00  0.00    -0.359 A  
HETATM   21  C   UNL     1      -9.692  18.072  68.471  1.00  0.00    -0.357 A  
HETATM   22  C   UNL     1      -8.403  17.581  68.295  1.00  0.00    -0.265 A  
HETATM   23  C   UNL     1      -8.197  16.383  67.605  1.00  0.00    -0.166 A  
HETATM   24  C   UNL     1      -9.283  15.645  67.101  1.00  0.00    -0.226 A  
ENDBRANCH   9  11
ENDBRANCH   8   9
ENDBRANCH   7   8
ENDBRANCH   6   7
ENDBRANCH   4   6
BRANCH   4  25
HETATM   25  C   UNL     1      -9.007   8.266  67.762  1.00  0.00    -0.136 C  
HETATM   26  C   UNL     1     -10.242   7.896  66.942  1.00  0.00    -0.380 C  
HETATM   27  C   UNL     1      -7.972   8.897  66.812  1.00  0.00    -0.107 C  
ENDBRANCH   4  25
ENDBRANCH   2   4
TORSDOF 7
ENDMDL
MODEL      155
REMARK 921   NORMALIZED FREE ENERGY PREDICTED BY IDOCK:   -4.35 KCAL/MOL
REMARK 922        TOTAL FREE ENERGY PREDICTED BY IDOCK:   -7.32 KCAL/MOL
REMARK 923 INTER-LIGAND FREE ENERGY PREDICTED BY IDOCK:   -6.31 KCAL/MOL
REMARK 924 INTRA-LIGAND FREE ENERGY PREDICTED BY IDOCK:   -1.01 KCAL/MOL
REMARK 927      BINDING AFFINITY PREDICTED BY RF-SCORE:    0.00 PKD
ROOT
HETATM    1  C   UNL     1     -12.105  13.963  69.073  1.00  0.00    -0.365 C  
HETATM    2  C   UNL     1     -11.783  14.672  67.752  1.00  0.00    -0.359 C  
HETATM    3  C   UNL     1     -10.771  15.803  67.937  1.00  0.00    -0.302 C  
ENDROOT
BRANCH   2   4
HETATM    4  N   UNL     1     -11.405  13.712  66.550  1.00  0.00    -0.311 N  
HETATM    5  C   UNL     1      -9.973  14.027  66.080  1.00  0.00    -0.312 C  
BRANCH   4   6
HETATM    6  C   UNL     1     -11.406  12.222  67.074  1.00  0.00    -0.334 C  
BRANCH   6   7
HETATM    7  C   UNL     1     -10.039  11.544  67.215  1.00  0.00    -0.199 C  
BRANCH   7   8
HETATM    8  O   UNL     1      -9.681  11.470  68.606  1.00  0.00    -0.197 OA 
BRANCH   8   9
HETATM    9  C   UNL     1      -9.810  10.244  69.214  1.00  0.00    -0.228 C  
HETATM   10  O   UNL     1     -10.688  10.042  70.048  1.00  0.00    -0.257 OA 
BRANCH   9  11
HETATM   11  C   UNL     1      -8.793   9.204  68.709  1.00  0.00    -0.132 C  
HETATM   12  C   UNL     1      -7.665   8.958  69.696  1.00  0.00    -0.078 A  
HETATM   13  C   UNL     1      -6.790   9.997  70.064  1.00  0.00    -0.126 A  
HETATM   14  C   UNL     1      -5.876   9.819  71.102  1.00  0.00    -0.071 A  
HETATM   15  C   UNL     1      -5.789   8.590  71.749  1.00  0.00    -0.048 A  
HETATM   16  C   UNL     1      -6.600   7.531  71.337  1.00  0.00    -0.042 A  
HETATM   17  C   UNL     1      -7.532   7.715  70.314  1.00  0.00    -0.083 A  
HETATM   18  O   UNL     1      -8.285   6.619  69.986  1.00  0.00    -0.125 OA 
HETATM   19  C   UNL     1      -9.171   6.715  68.942  1.00  0.00    -0.130 A  
HETATM   20  C   UNL     1      -9.778   5.517  68.552  1.00  0.00    -0.175 A  
HETATM   21  C   UNL     1     -10.715   5.506  67.522  1.00  0.00    -0.211 A  
HETATM   22  C   UNL     1     -11.044   6.696  66.879  1.00  0.00    -0.319 A  
HETATM   23  C   UNL     1     -10.424   7.890  67.254  1.00  0.00    -0.390 A  
HETATM   24  C   UNL     1      -9.480   7.916  68.297  1.00  0.00    -0.149 A  
ENDBRANCH   9  11
ENDBRANCH   8   9
ENDBRANCH   7   8
ENDBRANCH   6   7
ENDBRANCH   4   6
BRANCH   4  25
HETATM   25  C   UNL     1     -12.432  13.736  65.321  1.00  0.00    -0.480 C  
HETATM   26  C   UNL     1     -12.175  14.852  64.310  1.00  0.00    -0.365 C  
HETATM   27  C   UNL     1     -12.476  12.398  64.559  1.00  0.00    -0.519 C  
ENDBRANCH   4  25
ENDBRANCH   2   4
TORSDOF 7
ENDMDL
MODEL      156
REMARK 921   NORMALIZED FREE ENERGY PREDICTED BY IDOCK:   -4.34 KCAL/MOL
REMARK 922        TOTAL FREE ENERGY PREDICTED BY IDOCK:   -7.31 KCAL/MOL
REMARK 923 INTER-LIGAND FREE ENERGY PREDICTED BY IDOCK:   -6.14 KCAL/MOL
REMARK 924 INTRA-LIGAND FREE ENERGY PREDICTED BY IDOCK:   -1.17 KCAL/MOL
REMARK 927      BINDING AFFINITY PREDICTED BY RF-SCORE:    0.00 PKD
ROOT
HETATM    1  C   UNL     1      -6.869  10.681  68.350  1.00  0.00    -0.064 C  
HETATM    2  C   UNL     1      -8.264  11.315  68.322  1.00  0.00    -0.143 C  
HETATM    3  C   UNL     1      -8.207  12.820  68.055  1.00  0.00    -0.168 C  
ENDROOT
BRANCH   2   4
HETATM    4  N   UNL     1      -9.320  10.576  67.401  1.00  0.00    -0.143 N  
HETATM    5  C   UNL     1      -8.625   9.418  66.663  1.00  0.00    -0.130 C  
BRANCH   4   6
HETATM    6  C   UNL     1     -10.435   9.940  68.321  1.00  0.00    -0.210 C  
BRANCH   6   7
HETATM    7  C   UNL     1     -10.098   9.798  69.810  1.00  0.00    -0.239 C  
BRANCH   7   8
HETATM    8  O   UNL     1     -10.060   8.405  70.163  1.00  0.00    -0.186 OA 
BRANCH   8   9
HETATM    9  C   UNL     1     -11.250   7.832  70.544  1.00  0.00    -0.257 C  
HETATM   10  O   UNL     1     -12.167   8.515  70.992  1.00  0.00    -0.267 OA 
BRANCH   9  11
HETATM   11  C   UNL     1     -11.296   6.311  70.310  1.00  0.00    -0.457 C  
HETATM   12  C   UNL     1     -10.641   5.897  69.003  1.00  0.00    -0.360 A  
HETATM   13  C   UNL     1     -11.145   6.350  67.769  1.00  0.00    -0.376 A  
HETATM   14  C   UNL     1     -10.438   6.123  66.588  1.00  0.00    -0.267 A  
HETATM   15  C   UNL     1      -9.250   5.398  66.619  1.00  0.00    -0.132 A  
HETATM   16  C   UNL     1      -8.785   4.879  67.827  1.00  0.00    -0.105 A  
HETATM   17  C   UNL     1      -9.479   5.127  69.013  1.00  0.00    -0.133 A  
HETATM   18  O   UNL     1      -8.940   4.580  70.148  1.00  0.00    -0.083 OA 
HETATM   19  C   UNL     1      -9.612   4.729  71.336  1.00  0.00    -0.163 A  
HETATM   20  C   UNL     1      -9.099   4.003  72.416  1.00  0.00    -0.144 A  
HETATM   21  C   UNL     1      -9.686   4.105  73.675  1.00  0.00    -0.142 A  
HETATM   22  C   UNL     1     -10.792   4.931  73.852  1.00  0.00    -0.355 A  
HETATM   23  C   UNL     1     -11.319   5.641  72.770  1.00  0.00    -0.350 A  
HETATM   24  C   UNL     1     -10.731   5.553  71.495  1.00  0.00    -0.290 A  
ENDBRANCH   9  11
ENDBRANCH   8   9
ENDBRANCH   7   8
ENDBRANCH   6   7
ENDBRANCH   4   6
BRANCH   4  25
HETATM   25  C   UNL     1     -10.101  11.526  66.375  1.00  0.00    -0.216 C  
HETATM   26  C   UNL     1     -10.187  10.976  64.952  1.00  0.00    -0.373 C  
HETATM   27  C   UNL     1     -11.528  11.862  66.847  1.00  0.00    -0.390 C  
ENDBRANCH   4  25
ENDBRANCH   2   4
TORSDOF 7
ENDMDL
MODEL      157
REMARK 921   NORMALIZED FREE ENERGY PREDICTED BY IDOCK:   -4.34 KCAL/MOL
REMARK 922        TOTAL FREE ENERGY PREDICTED BY IDOCK:   -7.30 KCAL/MOL
REMARK 923 INTER-LIGAND FREE ENERGY PREDICTED BY IDOCK:   -6.17 KCAL/MOL
REMARK 924 INTRA-LIGAND FREE ENERGY PREDICTED BY IDOCK:   -1.14 KCAL/MOL
REMARK 927      BINDING AFFINITY PREDICTED BY RF-SCORE:    0.00 PKD
ROOT
HETATM    1  C   UNL     1     -12.266  14.421  69.402  1.00  0.00    -0.305 C  
HETATM    2  C   UNL     1     -11.715  14.848  68.037  1.00  0.00    -0.320 C  
HETATM    3  C   UNL     1     -11.018  16.207  68.097  1.00  0.00    -0.341 C  
ENDROOT
BRANCH   2   4
HETATM    4  N   UNL     1     -10.847  13.754  67.291  1.00  0.00    -0.283 N  
HETATM    5  C   UNL     1      -9.420  14.294  67.084  1.00  0.00    -0.227 C  
BRANCH   4   6
HETATM    6  C   UNL     1     -10.732  12.481  68.219  1.00  0.00    -0.228 C  
BRANCH   6   7
HETATM    7  C   UNL     1      -9.315  12.005  68.560  1.00  0.00    -0.124 C  
BRANCH   7   8
HETATM    8  O   UNL     1      -9.377  10.691  69.140  1.00  0.00    -0.196 OA 
BRANCH   8   9
HETATM    9  C   UNL     1      -8.178  10.060  69.370  1.00  0.00    -0.155 C  
HETATM   10  O   UNL     1      -7.392  10.482  70.214  1.00  0.00    -0.206 OA 
BRANCH   9  11
HETATM   11  C   UNL     1      -7.979   8.800  68.509  1.00  0.00    -0.112 C  
HETATM   12  C   UNL     1      -9.004   7.717  68.802  1.00  0.00    -0.141 A  
HETATM   13  C   UNL     1      -9.087   7.131  70.079  1.00  0.00    -0.145 A  
HETATM   14  C   UNL     1     -10.141   6.276  70.399  1.00  0.00    -0.226 A  
HETATM   15  C   UNL     1     -11.094   5.958  69.436  1.00  0.00    -0.369 A  
HETATM   16  C   UNL     1     -10.975   6.474  68.145  1.00  0.00    -0.365 A  
HETATM   17  C   UNL     1      -9.933   7.349  67.830  1.00  0.00    -0.165 A  
HETATM   18  O   UNL     1      -9.905   7.807  66.539  1.00  0.00    -0.221 OA 
HETATM   19  C   UNL     1      -8.866   8.615  66.148  1.00  0.00    -0.171 A  
HETATM   20  C   UNL     1      -8.806   8.903  64.781  1.00  0.00    -0.130 A  
HETATM   21  C   UNL     1      -7.810   9.738  64.281  1.00  0.00    -0.134 A  
HETATM   22  C   UNL     1      -6.870  10.283  65.150  1.00  0.00    -0.120 A  
HETATM   23  C   UNL     1      -6.916   9.979  66.513  1.00  0.00    -0.095 A  
HETATM   24  C   UNL     1      -7.921   9.144  67.032  1.00  0.00    -0.102 A  
ENDBRANCH   9  11
ENDBRANCH   8   9
ENDBRANCH   7   8
ENDBRANCH   6   7
ENDBRANCH   4   6
BRANCH   4  25
HETATM   25  C   UNL     1     -11.467  13.226  65.912  1.00  0.00    -0.332 C  
HETATM   26  C   UNL     1     -12.783  13.896  65.519  1.00  0.00    -0.536 C  
HETATM   27  C   UNL     1     -10.489  13.361  64.731  1.00  0.00    -0.419 C  
ENDBRANCH   4  25
ENDBRANCH   2   4
TORSDOF 7
ENDMDL
MODEL      158
REMARK 921   NORMALIZED FREE ENERGY PREDICTED BY IDOCK:   -4.34 KCAL/MOL
REMARK 922        TOTAL FREE ENERGY PREDICTED BY IDOCK:   -7.30 KCAL/MOL
REMARK 923 INTER-LIGAND FREE ENERGY PREDICTED BY IDOCK:   -6.98 KCAL/MOL
REMARK 924 INTRA-LIGAND FREE ENERGY PREDICTED BY IDOCK:   -0.31 KCAL/MOL
REMARK 927      BINDING AFFINITY PREDICTED BY RF-SCORE:    0.00 PKD
ROOT
HETATM    1  C   UNL     1     -13.492  12.083  71.732  1.00  0.00    -0.194 C  
HETATM    2  C   UNL     1     -12.195  12.688  71.182  1.00  0.00     0.008 C  
HETATM    3  C   UNL     1     -11.756  12.021  69.879  1.00  0.00    -0.374 C  
ENDROOT
BRANCH   2   4
HETATM    4  N   UNL     1     -12.179  14.269  71.088  1.00  0.00    -0.344 N  
HETATM    5  C   UNL     1     -10.721  14.761  71.060  1.00  0.00     0.422 C  
BRANCH   4   6
HETATM    6  C   UNL     1     -12.843  14.701  69.722  1.00  0.00     0.131 C  
BRANCH   6   7
HETATM    7  C   UNL     1     -12.055  14.383  68.446  1.00  0.00    -0.243 C  
BRANCH   7   8
HETATM    8  O   UNL     1     -11.584  15.607  67.855  1.00  0.00    -0.305 OA 
BRANCH   8   9
HETATM    9  C   UNL     1     -11.006  15.511  66.612  1.00  0.00    -0.248 C  
HETATM   10  O   UNL     1     -11.588  14.956  65.684  1.00  0.00    -0.329 OA 
BRANCH   9  11
HETATM   11  C   UNL     1      -9.626  16.189  66.528  1.00  0.00    -0.285 C  
HETATM   12  C   UNL     1      -9.704  17.701  66.658  1.00  0.00    -0.304 A  
HETATM   13  C   UNL     1     -10.412  18.469  65.715  1.00  0.00    -0.277 A  
HETATM   14  C   UNL     1     -10.638  19.828  65.934  1.00  0.00    -0.557 A  
HETATM   15  C   UNL     1     -10.118  20.444  67.069  1.00  0.00    -0.507 A  
HETATM   16  C   UNL     1      -9.349  19.706  67.969  1.00  0.00    -0.425 A  
HETATM   17  C   UNL     1      -9.143  18.340  67.762  1.00  0.00    -0.267 A  
HETATM   18  O   UNL     1      -8.380  17.701  68.704  1.00  0.00    -0.286 OA 
HETATM   19  C   UNL     1      -8.082  16.373  68.522  1.00  0.00    -0.205 A  
HETATM   20  C   UNL     1      -7.162  15.831  69.425  1.00  0.00    -0.217 A  
HETATM   21  C   UNL     1      -6.812  14.485  69.349  1.00  0.00    -0.149 A  
HETATM   22  C   UNL     1      -7.380  13.681  68.366  1.00  0.00    -0.118 A  
HETATM   23  C   UNL     1      -8.284  14.226  67.450  1.00  0.00    -0.217 A  
HETATM   24  C   UNL     1      -8.652  15.582  67.520  1.00  0.00    -0.184 A  
ENDBRANCH   9  11
ENDBRANCH   8   9
ENDBRANCH   7   8
ENDBRANCH   6   7
ENDBRANCH   4   6
BRANCH   4  25
HETATM   25  C   UNL     1     -13.017  15.020  72.228  1.00  0.00    -0.349 C  
HETATM   26  C   UNL     1     -12.289  16.203  72.866  1.00  0.00    -0.607 C  
HETATM   27  C   UNL     1     -14.388  15.512  71.729  1.00  0.00    -0.556 C  
ENDBRANCH   4  25
ENDBRANCH   2   4
TORSDOF 7
ENDMDL
MODEL      159
REMARK 921   NORMALIZED FREE ENERGY PREDICTED BY IDOCK:   -4.33 KCAL/MOL
REMARK 922        TOTAL FREE ENERGY PREDICTED BY IDOCK:   -7.28 KCAL/MOL
REMARK 923 INTER-LIGAND FREE ENERGY PREDICTED BY IDOCK:   -6.37 KCAL/MOL
REMARK 924 INTRA-LIGAND FREE ENERGY PREDICTED BY IDOCK:   -0.91 KCAL/MOL
REMARK 927      BINDING AFFINITY PREDICTED BY RF-SCORE:    0.00 PKD
ROOT
HETATM    1  C   UNL     1      -9.377   3.768  73.395  1.00  0.00    -0.118 C  
HETATM    2  C   UNL     1     -10.137   4.280  72.166  1.00  0.00    -0.185 C  
HETATM    3  C   UNL     1     -11.172   5.345  72.532  1.00  0.00    -0.305 C  
ENDROOT
BRANCH   2   4
HETATM    4  N   UNL     1      -9.227   4.715  70.946  1.00  0.00    -0.134 N  
HETATM    5  C   UNL     1      -9.512   3.792  69.747  1.00  0.00    -0.185 C  
BRANCH   4   6
HETATM    6  C   UNL     1      -9.629   6.179  70.511  1.00  0.00    -0.168 C  
BRANCH   6   7
HETATM    7  C   UNL     1      -9.727   6.445  69.005  1.00  0.00    -0.134 C  
BRANCH   7   8
HETATM    8  O   UNL     1     -10.012   7.837  68.781  1.00  0.00    -0.166 OA 
BRANCH   8   9
HETATM    9  C   UNL     1      -9.023   8.731  69.111  1.00  0.00    -0.137 C  
HETATM   10  O   UNL     1      -7.839   8.466  68.915  1.00  0.00    -0.108 OA 
BRANCH   9  11
HETATM   11  C   UNL     1      -9.563  10.052  69.689  1.00  0.00    -0.251 C  
HETATM   12  C   UNL     1      -9.789  11.111  68.623  1.00  0.00    -0.207 A  
HETATM   13  C   UNL     1      -8.715  11.601  67.855  1.00  0.00    -0.154 A  
HETATM   14  C   UNL     1      -8.948  12.431  66.760  1.00  0.00    -0.205 A  
HETATM   15  C   UNL     1     -10.248  12.823  66.450  1.00  0.00    -0.263 A  
HETATM   16  C   UNL     1     -11.309  12.405  67.253  1.00  0.00    -0.384 A  
HETATM   17  C   UNL     1     -11.079  11.554  68.335  1.00  0.00    -0.235 A  
HETATM   18  O   UNL     1     -12.185  11.194  69.060  1.00  0.00    -0.469 OA 
HETATM   19  C   UNL     1     -12.017  10.415  70.178  1.00  0.00    -0.276 A  
HETATM   20  C   UNL     1     -13.160  10.230  70.962  1.00  0.00    -0.458 A  
HETATM   21  C   UNL     1     -13.108   9.432  72.103  1.00  0.00    -0.526 A  
HETATM   22  C   UNL     1     -11.910   8.822  72.461  1.00  0.00    -0.272 A  
HETATM   23  C   UNL     1     -10.762   9.022  71.690  1.00  0.00    -0.441 A  
HETATM   24  C   UNL     1     -10.802   9.819  70.532  1.00  0.00    -0.387 A  
ENDBRANCH   9  11
ENDBRANCH   8   9
ENDBRANCH   7   8
ENDBRANCH   6   7
ENDBRANCH   4   6
BRANCH   4  25
HETATM   25  C   UNL     1      -7.658   4.777  71.264  1.00  0.00    -0.081 C  
HETATM   26  C   UNL     1      -6.763   4.420  70.078  1.00  0.00    -0.033 C  
HETATM   27  C   UNL     1      -7.217   6.150  71.803  1.00  0.00    -0.087 C  
ENDBRANCH   4  25
ENDBRANCH   2   4
TORSDOF 7
ENDMDL
MODEL      160
REMARK 921   NORMALIZED FREE ENERGY PREDICTED BY IDOCK:   -4.32 KCAL/MOL
REMARK 922        TOTAL FREE ENERGY PREDICTED BY IDOCK:   -7.28 KCAL/MOL
REMARK 923 INTER-LIGAND FREE ENERGY PREDICTED BY IDOCK:   -6.61 KCAL/MOL
REMARK 924 INTRA-LIGAND FREE ENERGY PREDICTED BY IDOCK:   -0.67 KCAL/MOL
REMARK 927      BINDING AFFINITY PREDICTED BY RF-SCORE:    0.00 PKD
ROOT
HETATM    1  C   UNL     1      -9.951   4.373  73.247  1.00  0.00    -0.183 C  
HETATM    2  C   UNL     1      -8.572   4.543  72.601  1.00  0.00    -0.114 C  
HETATM    3  C   UNL     1      -7.860   3.204  72.404  1.00  0.00    -0.059 C  
ENDROOT
BRANCH   2   4
HETATM    4  N   UNL     1      -8.546   5.440  71.297  1.00  0.00    -0.125 N  
HETATM    5  C   UNL     1      -8.275   4.548  70.072  1.00  0.00    -0.066 C  
BRANCH   4   6
HETATM    6  C   UNL     1      -9.976   6.082  71.097  1.00  0.00    -0.186 C  
BRANCH   6   7
HETATM    7  C   UNL     1     -10.326   7.273  71.996  1.00  0.00    -0.192 C  
BRANCH   7   8
HETATM    8  O   UNL     1     -11.243   8.141  71.308  1.00  0.00    -0.249 OA 
BRANCH   8   9
HETATM    9  C   UNL     1     -10.726   9.309  70.800  1.00  0.00    -0.284 C  
HETATM   10  O   UNL     1      -9.587   9.673  71.084  1.00  0.00    -0.151 OA 
BRANCH   9  11
HETATM   11  C   UNL     1     -11.690  10.039  69.848  1.00  0.00    -0.190 C  
HETATM   12  C   UNL     1     -12.242  11.324  70.442  1.00  0.00    -0.453 A  
HETATM   13  C   UNL     1     -13.024  11.299  71.613  1.00  0.00    -0.537 A  
HETATM   14  C   UNL     1     -13.373  12.486  72.257  1.00  0.00    -0.475 A  
HETATM   15  C   UNL     1     -12.990  13.709  71.714  1.00  0.00    -0.441 A  
HETATM   16  C   UNL     1     -12.282  13.744  70.513  1.00  0.00    -0.440 A  
HETATM   17  C   UNL     1     -11.911  12.556  69.880  1.00  0.00    -0.301 A  
HETATM   18  O   UNL     1     -11.212  12.694  68.709  1.00  0.00    -0.247 OA 
HETATM   19  C   UNL     1     -10.879  11.565  68.002  1.00  0.00    -0.213 A  
HETATM   20  C   UNL     1     -10.322  11.786  66.739  1.00  0.00    -0.251 A  
HETATM   21  C   UNL     1      -9.920  10.710  65.950  1.00  0.00    -0.312 A  
HETATM   22  C   UNL     1     -10.079   9.412  66.425  1.00  0.00    -0.332 A  
HETATM   23  C   UNL     1     -10.654   9.189  67.679  1.00  0.00    -0.307 A  
HETATM   24  C   UNL     1     -11.057  10.266  68.489  1.00  0.00    -0.294 A  
ENDBRANCH   9  11
ENDBRANCH   8   9
ENDBRANCH   7   8
ENDBRANCH   6   7
ENDBRANCH   4   6
BRANCH   4  25
HETATM   25  C   UNL     1      -7.526   6.674  71.347  1.00  0.00    -0.088 C  
HETATM   26  C   UNL     1      -6.155   6.331  71.928  1.00  0.00    -0.041 C  
HETATM   27  C   UNL     1      -7.314   7.324  69.968  1.00  0.00    -0.083 C  
ENDBRANCH   4  25
ENDBRANCH   2   4
TORSDOF 7
ENDMDL
MODEL      161
REMARK 921   NORMALIZED FREE ENERGY PREDICTED BY IDOCK:   -4.32 KCAL/MOL
REMARK 922        TOTAL FREE ENERGY PREDICTED BY IDOCK:   -7.27 KCAL/MOL
REMARK 923 INTER-LIGAND FREE ENERGY PREDICTED BY IDOCK:   -5.66 KCAL/MOL
REMARK 924 INTRA-LIGAND FREE ENERGY PREDICTED BY IDOCK:   -1.62 KCAL/MOL
REMARK 927      BINDING AFFINITY PREDICTED BY RF-SCORE:    0.00 PKD
ROOT
HETATM    1  C   UNL     1      -7.150   4.148  65.512  1.00  0.00    -0.063 C  
HETATM    2  C   UNL     1      -8.212   5.210  65.205  1.00  0.00    -0.126 C  
HETATM    3  C   UNL     1      -9.605   4.602  65.041  1.00  0.00    -0.113 C  
ENDROOT
BRANCH   2   4
HETATM    4  N   UNL     1      -8.208   6.463  66.174  1.00  0.00    -0.117 N  
HETATM    5  C   UNL     1      -8.179   7.753  65.335  1.00  0.00    -0.139 C  
BRANCH   4   6
HETATM    6  C   UNL     1      -9.559   6.472  66.993  1.00  0.00    -0.144 C  
BRANCH   6   7
HETATM    7  C   UNL     1     -10.367   7.774  66.971  1.00  0.00    -0.334 C  
BRANCH   7   8
HETATM    8  O   UNL     1     -10.483   8.290  68.308  1.00  0.00    -0.205 OA 
BRANCH   8   9
HETATM    9  C   UNL     1     -10.486   9.658  68.444  1.00  0.00    -0.223 C  
HETATM   10  O   UNL     1     -10.709  10.389  67.483  1.00  0.00    -0.245 OA 
BRANCH   9  11
HETATM   11  C   UNL     1     -10.228  10.127  69.887  1.00  0.00    -0.284 C  
HETATM   12  C   UNL     1     -11.401   9.852  70.814  1.00  0.00    -0.430 A  
HETATM   13  C   UNL     1     -12.656  10.446  70.583  1.00  0.00    -0.435 A  
HETATM   14  C   UNL     1     -13.772  10.052  71.320  1.00  0.00    -0.125 A  
HETATM   15  C   UNL     1     -13.640   9.100  72.326  1.00  0.00    -0.548 A  
HETATM   16  C   UNL     1     -12.384   8.563  72.612  1.00  0.00    -0.289 A  
HETATM   17  C   UNL     1     -11.270   8.939  71.860  1.00  0.00    -0.377 A  
HETATM   18  O   UNL     1     -10.083   8.353  72.213  1.00  0.00    -0.263 OA 
HETATM   19  C   UNL     1      -8.938   8.733  71.557  1.00  0.00    -0.236 A  
HETATM   20  C   UNL     1      -7.745   8.226  72.081  1.00  0.00    -0.162 A  
HETATM   21  C   UNL     1      -6.527   8.524  71.474  1.00  0.00    -0.064 A  
HETATM   22  C   UNL     1      -6.503   9.334  70.343  1.00  0.00    -0.064 A  
HETATM   23  C   UNL     1      -7.693   9.858  69.830  1.00  0.00    -0.159 A  
HETATM   24  C   UNL     1      -8.930   9.559  70.429  1.00  0.00    -0.291 A  
ENDBRANCH   9  11
ENDBRANCH   8   9
ENDBRANCH   7   8
ENDBRANCH   6   7
ENDBRANCH   4   6
BRANCH   4  25
HETATM   25  C   UNL     1      -7.041   6.463  67.271  1.00  0.00    -0.073 C  
HETATM   26  C   UNL     1      -6.172   7.720  67.262  1.00  0.00    -0.054 C  
HETATM   27  C   UNL     1      -7.572   6.257  68.701  1.00  0.00    -0.093 C  
ENDBRANCH   4  25
ENDBRANCH   2   4
TORSDOF 7
ENDMDL
MODEL      162
REMARK 921   NORMALIZED FREE ENERGY PREDICTED BY IDOCK:   -4.31 KCAL/MOL
REMARK 922        TOTAL FREE ENERGY PREDICTED BY IDOCK:   -7.26 KCAL/MOL
REMARK 923 INTER-LIGAND FREE ENERGY PREDICTED BY IDOCK:   -6.69 KCAL/MOL
REMARK 924 INTRA-LIGAND FREE ENERGY PREDICTED BY IDOCK:   -0.57 KCAL/MOL
REMARK 927      BINDING AFFINITY PREDICTED BY RF-SCORE:    0.00 PKD
ROOT
HETATM    1  C   UNL     1     -14.021  15.978  73.021  1.00  0.00    -0.265 C  
HETATM    2  C   UNL     1     -12.600  15.528  72.659  1.00  0.00    -0.406 C  
HETATM    3  C   UNL     1     -11.935  14.751  73.795  1.00  0.00    -0.292 C  
ENDROOT
BRANCH   2   4
HETATM    4  N   UNL     1     -12.463  14.796  71.262  1.00  0.00    -0.303 N  
HETATM    5  C   UNL     1     -13.654  15.184  70.366  1.00  0.00     0.176 C  
BRANCH   4   6
HETATM    6  C   UNL     1     -11.154  15.314  70.545  1.00  0.00    -0.306 C  
BRANCH   6   7
HETATM    7  C   UNL     1     -11.266  16.644  69.790  1.00  0.00    -0.031 C  
BRANCH   7   8
HETATM    8  O   UNL     1     -11.351  16.387  68.378  1.00  0.00    -0.366 OA 
BRANCH   8   9
HETATM    9  C   UNL     1     -10.640  17.227  67.554  1.00  0.00    -0.329 C  
HETATM   10  O   UNL     1     -10.794  18.444  67.605  1.00  0.00    -0.406 OA 
BRANCH   9  11
HETATM   11  C   UNL     1      -9.649  16.486  66.637  1.00  0.00    -0.275 C  
HETATM   12  C   UNL     1      -8.200  16.707  67.036  1.00  0.00    -0.222 A  
HETATM   13  C   UNL     1      -7.636  17.997  67.014  1.00  0.00    -0.237 A  
HETATM   14  C   UNL     1      -6.370  18.226  67.553  1.00  0.00    -0.186 A  
HETATM   15  C   UNL     1      -5.634  17.164  68.071  1.00  0.00    -0.123 A  
HETATM   16  C   UNL     1      -6.154  15.871  68.025  1.00  0.00    -0.145 A  
HETATM   17  C   UNL     1      -7.431  15.644  67.509  1.00  0.00    -0.179 A  
HETATM   18  O   UNL     1      -7.857  14.342  67.513  1.00  0.00    -0.167 OA 
HETATM   19  C   UNL     1      -9.075  14.043  66.954  1.00  0.00    -0.248 A  
HETATM   20  C   UNL     1      -9.369  12.681  66.837  1.00  0.00    -0.228 A  
HETATM   21  C   UNL     1     -10.591  12.268  66.312  1.00  0.00    -0.282 A  
HETATM   22  C   UNL     1     -11.519  13.219  65.900  1.00  0.00    -0.359 A  
HETATM   23  C   UNL     1     -11.219  14.580  65.998  1.00  0.00    -0.337 A  
HETATM   24  C   UNL     1      -9.992  15.011  66.533  1.00  0.00    -0.276 A  
ENDBRANCH   9  11
ENDBRANCH   8   9
ENDBRANCH   7   8
ENDBRANCH   6   7
ENDBRANCH   4   6
BRANCH   4  25
HETATM   25  C   UNL     1     -12.303  13.205  71.348  1.00  0.00    -0.043 C  
HETATM   26  C   UNL     1     -13.507  12.485  71.956  1.00  0.00    -0.486 C  
HETATM   27  C   UNL     1     -12.002  12.564  69.981  1.00  0.00    -0.372 C  
ENDBRANCH   4  25
ENDBRANCH   2   4
TORSDOF 7
ENDMDL
MODEL      163
REMARK 921   NORMALIZED FREE ENERGY PREDICTED BY IDOCK:   -4.30 KCAL/MOL
REMARK 922        TOTAL FREE ENERGY PREDICTED BY IDOCK:   -7.25 KCAL/MOL
REMARK 923 INTER-LIGAND FREE ENERGY PREDICTED BY IDOCK:   -6.67 KCAL/MOL
REMARK 924 INTRA-LIGAND FREE ENERGY PREDICTED BY IDOCK:   -0.58 KCAL/MOL
REMARK 927      BINDING AFFINITY PREDICTED BY RF-SCORE:    0.00 PKD
ROOT
HETATM    1  C   UNL     1     -12.239  13.878  69.429  1.00  0.00    -0.338 C  
HETATM    2  C   UNL     1     -11.477  13.722  68.108  1.00  0.00    -0.313 C  
HETATM    3  C   UNL     1     -10.251  14.633  68.039  1.00  0.00    -0.231 C  
ENDROOT
BRANCH   2   4
HETATM    4  N   UNL     1     -11.146  12.229  67.696  1.00  0.00    -0.253 N  
HETATM    5  C   UNL     1      -9.665  11.937  67.996  1.00  0.00    -0.191 C  
BRANCH   4   6
HETATM    6  C   UNL     1     -12.004  11.255  68.597  1.00  0.00    -0.243 C  
BRANCH   6   7
HETATM    7  C   UNL     1     -11.387  10.839  69.937  1.00  0.00    -0.311 C  
BRANCH   7   8
HETATM    8  O   UNL     1     -10.948   9.471  69.860  1.00  0.00    -0.231 OA 
BRANCH   8   9
HETATM    9  C   UNL     1     -11.450   8.606  70.802  1.00  0.00    -0.259 C  
HETATM   10  O   UNL     1     -12.460   8.886  71.443  1.00  0.00    -0.301 OA 
BRANCH   9  11
HETATM   11  C   UNL     1     -10.650   7.296  70.914  1.00  0.00    -0.234 C  
HETATM   12  C   UNL     1     -10.190   6.770  69.565  1.00  0.00    -0.202 A  
HETATM   13  C   UNL     1     -11.125   6.403  68.578  1.00  0.00    -0.385 A  
HETATM   14  C   UNL     1     -10.706   6.098  67.284  1.00  0.00    -0.414 A  
HETATM   15  C   UNL     1      -9.349   6.106  66.973  1.00  0.00    -0.132 A  
HETATM   16  C   UNL     1      -8.412   6.393  67.966  1.00  0.00    -0.118 A  
HETATM   17  C   UNL     1      -8.831   6.722  69.256  1.00  0.00    -0.137 A  
HETATM   18  O   UNL     1      -7.837   6.994  70.159  1.00  0.00    -0.105 OA 
HETATM   19  C   UNL     1      -8.181   7.257  71.461  1.00  0.00    -0.105 A  
HETATM   20  C   UNL     1      -7.115   7.354  72.361  1.00  0.00    -0.071 A  
HETATM   21  C   UNL     1      -7.350   7.647  73.702  1.00  0.00    -0.130 A  
HETATM   22  C   UNL     1      -8.655   7.840  74.144  1.00  0.00    -0.307 A  
HETATM   23  C   UNL     1      -9.723   7.723  73.251  1.00  0.00    -0.357 A  
HETATM   24  C   UNL     1      -9.499   7.434  71.893  1.00  0.00    -0.166 A  
ENDBRANCH   9  11
ENDBRANCH   8   9
ENDBRANCH   7   8
ENDBRANCH   6   7
ENDBRANCH   4   6
BRANCH   4  25
HETATM   25  C   UNL     1     -11.513  11.850  66.184  1.00  0.00    -0.288 C  
HETATM   26  C   UNL     1     -12.319  12.919  65.447  1.00  0.00    -0.538 C  
HETATM   27  C   UNL     1     -10.271  11.516  65.338  1.00  0.00    -0.311 C  
ENDBRANCH   4  25
ENDBRANCH   2   4
TORSDOF 7
ENDMDL
MODEL      164
REMARK 921   NORMALIZED FREE ENERGY PREDICTED BY IDOCK:   -4.29 KCAL/MOL
REMARK 922        TOTAL FREE ENERGY PREDICTED BY IDOCK:   -7.23 KCAL/MOL
REMARK 923 INTER-LIGAND FREE ENERGY PREDICTED BY IDOCK:   -5.69 KCAL/MOL
REMARK 924 INTRA-LIGAND FREE ENERGY PREDICTED BY IDOCK:   -1.54 KCAL/MOL
REMARK 927      BINDING AFFINITY PREDICTED BY RF-SCORE:    0.00 PKD
ROOT
HETATM    1  C   UNL     1     -10.960  15.409  65.043  1.00  0.00    -0.450 C  
HETATM    2  C   UNL     1     -11.374  14.467  66.179  1.00  0.00    -0.350 C  
HETATM    3  C   UNL     1     -11.348  13.000  65.749  1.00  0.00    -0.331 C  
ENDROOT
BRANCH   2   4
HETATM    4  N   UNL     1     -10.632  14.708  67.556  1.00  0.00    -0.255 N  
HETATM    5  C   UNL     1     -10.921  13.529  68.502  1.00  0.00    -0.267 C  
BRANCH   4   6
HETATM    6  C   UNL     1      -9.074  14.724  67.295  1.00  0.00    -0.204 C  
BRANCH   6   7
HETATM    7  C   UNL     1      -8.231  13.738  68.112  1.00  0.00    -0.160 C  
BRANCH   7   8
HETATM    8  O   UNL     1      -7.642  12.765  67.231  1.00  0.00    -0.156 OA 
BRANCH   8   9
HETATM    9  C   UNL     1      -6.976  11.719  67.823  1.00  0.00    -0.094 C  
HETATM   10  O   UNL     1      -6.034  11.920  68.585  1.00  0.00    -0.049 OA 
BRANCH   9  11
HETATM   11  C   UNL     1      -7.559  10.342  67.460  1.00  0.00    -0.094 C  
HETATM   12  C   UNL     1      -8.850  10.036  68.199  1.00  0.00    -0.122 A  
HETATM   13  C   UNL     1      -8.873   9.948  69.604  1.00  0.00    -0.224 A  
HETATM   14  C   UNL     1     -10.084   9.851  70.288  1.00  0.00    -0.295 A  
HETATM   15  C   UNL     1     -11.280   9.789  69.578  1.00  0.00    -0.181 A  
HETATM   16  C   UNL     1     -11.260   9.797  68.183  1.00  0.00    -0.073 A  
HETATM   17  C   UNL     1     -10.049   9.918  67.498  1.00  0.00    -0.197 A  
HETATM   18  O   UNL     1     -10.134   9.923  66.130  1.00  0.00    -0.250 OA 
HETATM   19  C   UNL     1      -8.974   9.969  65.397  1.00  0.00    -0.180 A  
HETATM   20  C   UNL     1      -9.123   9.797  64.018  1.00  0.00    -0.280 A  
HETATM   21  C   UNL     1      -8.014   9.856  63.177  1.00  0.00    -0.145 A  
HETATM   22  C   UNL     1      -6.753  10.085  63.719  1.00  0.00    -0.128 A  
HETATM   23  C   UNL     1      -6.599  10.237  65.099  1.00  0.00    -0.121 A  
HETATM   24  C   UNL     1      -7.711  10.186  65.958  1.00  0.00    -0.120 A  
ENDBRANCH   9  11
ENDBRANCH   8   9
ENDBRANCH   7   8
ENDBRANCH   6   7
ENDBRANCH   4   6
BRANCH   4  25
HETATM   25  C   UNL     1     -10.962  16.107  68.264  1.00  0.00    -0.340 C  
HETATM   26  C   UNL     1     -11.228  16.004  69.765  1.00  0.00    -0.344 C  
HETATM   27  C   UNL     1      -9.858  17.158  68.044  1.00  0.00    -0.283 C  
ENDBRANCH   4  25
ENDBRANCH   2   4
TORSDOF 7
ENDMDL
MODEL      165
REMARK 921   NORMALIZED FREE ENERGY PREDICTED BY IDOCK:   -4.26 KCAL/MOL
REMARK 922        TOTAL FREE ENERGY PREDICTED BY IDOCK:   -7.19 KCAL/MOL
REMARK 923 INTER-LIGAND FREE ENERGY PREDICTED BY IDOCK:   -6.21 KCAL/MOL
REMARK 924 INTRA-LIGAND FREE ENERGY PREDICTED BY IDOCK:   -0.98 KCAL/MOL
REMARK 927      BINDING AFFINITY PREDICTED BY RF-SCORE:    0.00 PKD
ROOT
HETATM    1  C   UNL     1      -5.602   8.884  67.220  1.00  0.00    -0.038 C  
HETATM    2  C   UNL     1      -6.614   9.111  68.349  1.00  0.00    -0.059 C  
HETATM    3  C   UNL     1      -6.015   9.909  69.507  1.00  0.00    -0.041 C  
ENDROOT
BRANCH   2   4
HETATM    4  N   UNL     1      -8.020   9.674  67.887  1.00  0.00    -0.098 N  
HETATM    5  C   UNL     1      -8.863  10.013  69.130  1.00  0.00    -0.168 C  
BRANCH   4   6
HETATM    6  C   UNL     1      -7.789  11.024  67.100  1.00  0.00    -0.135 C  
BRANCH   6   7
HETATM    7  C   UNL     1      -8.330  12.301  67.753  1.00  0.00    -0.162 C  
BRANCH   7   8
HETATM    8  O   UNL     1      -8.770  13.213  66.732  1.00  0.00    -0.182 OA 
BRANCH   8   9
HETATM    9  C   UNL     1      -9.947  12.905  66.093  1.00  0.00    -0.272 C  
HETATM   10  O   UNL     1      -9.972  12.097  65.168  1.00  0.00    -0.257 OA 
BRANCH   9  11
HETATM   11  C   UNL     1     -11.168  13.633  66.681  1.00  0.00    -0.324 C  
HETATM   12  C   UNL     1     -11.588  13.081  68.033  1.00  0.00    -0.383 A  
HETATM   13  C   UNL     1     -12.012  11.745  68.165  1.00  0.00    -0.214 A  
HETATM   14  C   UNL     1     -12.219  11.189  69.427  1.00  0.00    -0.329 A  
HETATM   15  C   UNL     1     -12.055  11.973  70.566  1.00  0.00    -0.402 A  
HETATM   16  C   UNL     1     -11.711  13.318  70.439  1.00  0.00    -0.161 A  
HETATM   17  C   UNL     1     -11.480  13.870  69.178  1.00  0.00    -0.299 A  
HETATM   18  O   UNL     1     -11.140  15.197  69.157  1.00  0.00    -0.232 OA 
HETATM   19  C   UNL     1     -10.968  15.816  67.943  1.00  0.00    -0.324 A  
HETATM   20  C   UNL     1     -10.795  17.202  67.991  1.00  0.00    -0.317 A  
HETATM   21  C   UNL     1     -10.582  17.925  66.820  1.00  0.00    -0.253 A  
HETATM   22  C   UNL     1     -10.546  17.260  65.598  1.00  0.00    -0.173 A  
HETATM   23  C   UNL     1     -10.740  15.877  65.547  1.00  0.00    -0.386 A  
HETATM   24  C   UNL     1     -10.949  15.134  66.722  1.00  0.00    -0.321 A  
ENDBRANCH   9  11
ENDBRANCH   8   9
ENDBRANCH   7   8
ENDBRANCH   6   7
ENDBRANCH   4   6
BRANCH   4  25
HETATM   25  C   UNL     1      -8.830   8.725  66.884  1.00  0.00    -0.127 C  
HETATM   26  C   UNL     1     -10.330   8.645  67.168  1.00  0.00    -0.369 C  
HETATM   27  C   UNL     1      -8.642   9.123  65.409  1.00  0.00    -0.192 C  
ENDBRANCH   4  25
ENDBRANCH   2   4
TORSDOF 7
ENDMDL
MODEL      166
REMARK 921   NORMALIZED FREE ENERGY PREDICTED BY IDOCK:   -4.23 KCAL/MOL
REMARK 922        TOTAL FREE ENERGY PREDICTED BY IDOCK:   -7.15 KCAL/MOL
REMARK 923 INTER-LIGAND FREE ENERGY PREDICTED BY IDOCK:   -6.17 KCAL/MOL
REMARK 924 INTRA-LIGAND FREE ENERGY PREDICTED BY IDOCK:   -0.98 KCAL/MOL
REMARK 927      BINDING AFFINITY PREDICTED BY RF-SCORE:    0.00 PKD
ROOT
HETATM    1  C   UNL     1     -12.031  14.290  69.489  1.00  0.00    -0.384 C  
HETATM    2  C   UNL     1     -11.267  14.594  68.195  1.00  0.00    -0.289 C  
HETATM    3  C   UNL     1     -10.194  15.664  68.397  1.00  0.00    -0.222 C  
ENDROOT
BRANCH   2   4
HETATM    4  N   UNL     1     -10.719  13.323  67.425  1.00  0.00    -0.256 N  
HETATM    5  C   UNL     1      -9.323  13.638  66.856  1.00  0.00    -0.257 C  
BRANCH   4   6
HETATM    6  C   UNL     1     -10.544  12.142  68.459  1.00  0.00    -0.233 C  
BRANCH   6   7
HETATM    7  C   UNL     1      -9.106  11.708  68.768  1.00  0.00    -0.021 C  
BRANCH   7   8
HETATM    8  O   UNL     1      -9.118  10.397  69.359  1.00  0.00    -0.196 OA 
BRANCH   8   9
HETATM    9  C   UNL     1      -7.909   9.750  69.451  1.00  0.00    -0.114 C  
HETATM   10  O   UNL     1      -6.852  10.373  69.401  1.00  0.00    -0.062 OA 
BRANCH   9  11
HETATM   11  C   UNL     1      -8.046   8.230  69.655  1.00  0.00    -0.116 C  
HETATM   12  C   UNL     1      -8.362   7.855  71.093  1.00  0.00    -0.116 A  
HETATM   13  C   UNL     1      -7.463   8.162  72.132  1.00  0.00    -0.124 A  
HETATM   14  C   UNL     1      -7.834   7.986  73.464  1.00  0.00    -0.231 A  
HETATM   15  C   UNL     1      -9.083   7.454  73.773  1.00  0.00    -0.294 A  
HETATM   16  C   UNL     1      -9.949   7.076  72.747  1.00  0.00    -0.204 A  
HETATM   17  C   UNL     1      -9.588   7.274  71.413  1.00  0.00    -0.160 A  
HETATM   18  O   UNL     1     -10.508   6.876  70.478  1.00  0.00    -0.206 OA 
HETATM   19  C   UNL     1     -10.185   6.981  69.148  1.00  0.00    -0.187 A  
HETATM   20  C   UNL     1     -11.094   6.399  68.258  1.00  0.00    -0.359 A  
HETATM   21  C   UNL     1     -10.878   6.474  66.884  1.00  0.00    -0.427 A  
HETATM   22  C   UNL     1      -9.749   7.128  66.400  1.00  0.00    -0.139 A  
HETATM   23  C   UNL     1      -8.830   7.691  67.289  1.00  0.00    -0.122 A  
HETATM   24  C   UNL     1      -9.039   7.630  68.678  1.00  0.00    -0.135 A  
ENDBRANCH   9  11
ENDBRANCH   8   9
ENDBRANCH   7   8
ENDBRANCH   6   7
ENDBRANCH   4   6
BRANCH   4  25
HETATM   25  C   UNL     1     -11.690  12.755  66.285  1.00  0.00    -0.402 C  
HETATM   26  C   UNL     1     -12.613  13.804  65.667  1.00  0.00    -0.551 C  
HETATM   27  C   UNL     1     -10.923  12.058  65.146  1.00  0.00    -0.359 C  
ENDBRANCH   4  25
ENDBRANCH   2   4
TORSDOF 7
ENDMDL
MODEL      167
REMARK 921   NORMALIZED FREE ENERGY PREDICTED BY IDOCK:   -4.22 KCAL/MOL
REMARK 922        TOTAL FREE ENERGY PREDICTED BY IDOCK:   -7.12 KCAL/MOL
REMARK 923 INTER-LIGAND FREE ENERGY PREDICTED BY IDOCK:   -7.12 KCAL/MOL
REMARK 924 INTRA-LIGAND FREE ENERGY PREDICTED BY IDOCK:   -0.00 KCAL/MOL
REMARK 927      BINDING AFFINITY PREDICTED BY RF-SCORE:    0.00 PKD
ROOT
HETATM    1  C   UNL     1      -7.958  14.694  68.449  1.00  0.00    -0.137 C  
HETATM    2  C   UNL     1      -8.415  16.141  68.236  1.00  0.00    -0.180 C  
HETATM    3  C   UNL     1      -7.787  16.766  66.990  1.00  0.00    -0.229 C  
ENDROOT
BRANCH   2   4
HETATM    4  N   UNL     1      -9.981  16.368  68.303  1.00  0.00    -0.237 N  
HETATM    5  C   UNL     1     -10.265  17.803  68.783  1.00  0.00    -0.373 C  
BRANCH   4   6
HETATM    6  C   UNL     1     -10.573  16.240  66.844  1.00  0.00    -0.270 C  
BRANCH   6   7
HETATM    7  C   UNL     1     -10.052  15.077  65.992  1.00  0.00    -0.301 C  
BRANCH   7   8
HETATM    8  O   UNL     1     -10.407  13.830  66.613  1.00  0.00    -0.271 OA 
BRANCH   8   9
HETATM    9  C   UNL     1     -11.468  13.147  66.068  1.00  0.00    -0.335 C  
HETATM   10  O   UNL     1     -12.440  13.746  65.614  1.00  0.00    -0.455 OA 
BRANCH   9  11
HETATM   11  C   UNL     1     -11.272  11.621  66.061  1.00  0.00    -0.299 C  
HETATM   12  C   UNL     1     -10.233  11.165  65.050  1.00  0.00    -0.354 A  
HETATM   13  C   UNL     1     -10.420  11.394  63.673  1.00  0.00    -0.472 A  
HETATM   14  C   UNL     1      -9.389  11.144  62.768  1.00  0.00    -0.377 A  
HETATM   15  C   UNL     1      -8.182  10.615  63.218  1.00  0.00    -0.058 A  
HETATM   16  C   UNL     1      -8.018  10.313  64.570  1.00  0.00    -0.133 A  
HETATM   17  C   UNL     1      -9.040  10.586  65.481  1.00  0.00    -0.186 A  
HETATM   18  O   UNL     1      -8.782  10.260  66.786  1.00  0.00    -0.126 OA 
HETATM   19  C   UNL     1      -9.773  10.439  67.720  1.00  0.00    -0.160 A  
HETATM   20  C   UNL     1      -9.503   9.927  68.993  1.00  0.00    -0.185 A  
HETATM   21  C   UNL     1     -10.427  10.080  70.023  1.00  0.00    -0.337 A  
HETATM   22  C   UNL     1     -11.625  10.744  69.778  1.00  0.00    -0.393 A  
HETATM   23  C   UNL     1     -11.906  11.238  68.501  1.00  0.00    -0.355 A  
HETATM   24  C   UNL     1     -10.978  11.096  67.454  1.00  0.00    -0.347 A  
ENDBRANCH   9  11
ENDBRANCH   8   9
ENDBRANCH   7   8
ENDBRANCH   6   7
ENDBRANCH   4   6
BRANCH   4  25
HETATM   25  C   UNL     1     -10.780  15.297  69.186  1.00  0.00    -0.251 C  
HETATM   26  C   UNL     1     -10.616  15.480  70.694  1.00  0.00    -0.170 C  
HETATM   27  C   UNL     1     -12.286  15.271  68.867  1.00  0.00    -0.132 C  
ENDBRANCH   4  25
ENDBRANCH   2   4
TORSDOF 7
ENDMDL
MODEL      168
REMARK 921   NORMALIZED FREE ENERGY PREDICTED BY IDOCK:   -4.21 KCAL/MOL
REMARK 922        TOTAL FREE ENERGY PREDICTED BY IDOCK:   -7.11 KCAL/MOL
REMARK 923 INTER-LIGAND FREE ENERGY PREDICTED BY IDOCK:   -6.64 KCAL/MOL
REMARK 924 INTRA-LIGAND FREE ENERGY PREDICTED BY IDOCK:   -0.48 KCAL/MOL
REMARK 927      BINDING AFFINITY PREDICTED BY RF-SCORE:    0.00 PKD
ROOT
HETATM    1  C   UNL     1     -11.060  15.412  64.583  1.00  0.00    -0.361 C  
HETATM    2  C   UNL     1     -10.602  15.724  66.012  1.00  0.00    -0.326 C  
HETATM    3  C   UNL     1     -10.812  17.194  66.376  1.00  0.00     0.058 C  
ENDROOT
BRANCH   2   4
HETATM    4  N   UNL     1     -11.151  14.740  67.124  1.00  0.00    -0.324 N  
HETATM    5  C   UNL     1     -12.390  14.004  66.582  1.00  0.00    -0.371 C  
BRANCH   4   6
HETATM    6  C   UNL     1     -10.051  13.645  67.417  1.00  0.00    -0.241 C  
BRANCH   6   7
HETATM    7  C   UNL     1     -10.387  12.207  67.005  1.00  0.00    -0.211 C  
BRANCH   7   8
HETATM    8  O   UNL     1     -10.127  11.319  68.105  1.00  0.00    -0.172 OA 
BRANCH   8   9
HETATM    9  C   UNL     1     -11.165  10.515  68.510  1.00  0.00    -0.274 C  
HETATM   10  O   UNL     1     -12.291  10.975  68.681  1.00  0.00    -0.539 OA 
BRANCH   9  11
HETATM   11  C   UNL     1     -10.765   9.037  68.671  1.00  0.00    -0.137 C  
HETATM   12  C   UNL     1      -9.577   8.652  67.806  1.00  0.00    -0.178 A  
HETATM   13  C   UNL     1      -9.651   8.734  66.402  1.00  0.00    -0.316 A  
HETATM   14  C   UNL     1      -8.509   8.559  65.621  1.00  0.00    -0.170 A  
HETATM   15  C   UNL     1      -7.294   8.250  66.227  1.00  0.00    -0.078 A  
HETATM   16  C   UNL     1      -7.230   8.090  67.611  1.00  0.00    -0.091 A  
HETATM   17  C   UNL     1      -8.367   8.289  68.396  1.00  0.00    -0.132 A  
HETATM   18  O   UNL     1      -8.202   8.115  69.745  1.00  0.00    -0.117 OA 
HETATM   19  C   UNL     1      -9.298   8.228  70.565  1.00  0.00    -0.159 A  
HETATM   20  C   UNL     1      -9.093   7.870  71.901  1.00  0.00    -0.192 A  
HETATM   21  C   UNL     1     -10.130   7.975  72.824  1.00  0.00    -0.378 A  
HETATM   22  C   UNL     1     -11.375   8.437  72.409  1.00  0.00    -0.448 A  
HETATM   23  C   UNL     1     -11.588   8.775  71.070  1.00  0.00    -0.337 A  
HETATM   24  C   UNL     1     -10.547   8.680  70.129  1.00  0.00    -0.235 A  
ENDBRANCH   9  11
ENDBRANCH   8   9
ENDBRANCH   7   8
ENDBRANCH   6   7
ENDBRANCH   4   6
BRANCH   4  25
HETATM   25  C   UNL     1     -11.462  15.425  68.537  1.00  0.00    -0.350 C  
HETATM   26  C   UNL     1     -12.233  14.535  69.511  1.00  0.00    -0.306 C  
HETATM   27  C   UNL     1     -10.190  15.923  69.247  1.00  0.00    -0.250 C  
ENDBRANCH   4  25
ENDBRANCH   2   4
TORSDOF 7
ENDMDL
MODEL      169
REMARK 921   NORMALIZED FREE ENERGY PREDICTED BY IDOCK:   -4.19 KCAL/MOL
REMARK 922        TOTAL FREE ENERGY PREDICTED BY IDOCK:   -7.09 KCAL/MOL
REMARK 923 INTER-LIGAND FREE ENERGY PREDICTED BY IDOCK:   -6.24 KCAL/MOL
REMARK 924 INTRA-LIGAND FREE ENERGY PREDICTED BY IDOCK:   -0.85 KCAL/MOL
REMARK 927      BINDING AFFINITY PREDICTED BY RF-SCORE:    0.00 PKD
ROOT
HETATM    1  C   UNL     1      -7.475   6.321  68.999  1.00  0.00    -0.091 C  
HETATM    2  C   UNL     1      -7.063   7.797  69.021  1.00  0.00    -0.074 C  
HETATM    3  C   UNL     1      -5.552   7.976  68.870  1.00  0.00    -0.031 C  
ENDROOT
BRANCH   2   4
HETATM    4  N   UNL     1      -7.884   8.738  68.048  1.00  0.00    -0.102 N  
HETATM    5  C   UNL     1      -8.567   7.878  66.968  1.00  0.00    -0.128 C  
BRANCH   4   6
HETATM    6  C   UNL     1      -9.031   9.443  68.874  1.00  0.00    -0.136 C  
BRANCH   6   7
HETATM    7  C   UNL     1     -10.464   8.968  68.603  1.00  0.00    -0.200 C  
BRANCH   7   8
HETATM    8  O   UNL     1     -11.067   9.811  67.605  1.00  0.00    -0.244 OA 
BRANCH   8   9
HETATM    9  C   UNL     1     -11.526  11.036  68.026  1.00  0.00    -0.290 C  
HETATM   10  O   UNL     1     -12.431  11.122  68.853  1.00  0.00    -0.460 OA 
BRANCH   9  11
HETATM   11  C   UNL     1     -10.773  12.219  67.393  1.00  0.00    -0.261 C  
HETATM   12  C   UNL     1     -11.042  12.359  65.904  1.00  0.00    -0.349 A  
HETATM   13  C   UNL     1     -10.684  11.334  65.008  1.00  0.00    -0.322 A  
HETATM   14  C   UNL     1     -11.096  11.381  63.676  1.00  0.00    -0.411 A  
HETATM   15  C   UNL     1     -11.822  12.475  63.212  1.00  0.00    -0.498 A  
HETATM   16  C   UNL     1     -12.112  13.531  64.076  1.00  0.00    -0.494 A  
HETATM   17  C   UNL     1     -11.722  13.473  65.415  1.00  0.00    -0.332 A  
HETATM   18  O   UNL     1     -12.059  14.556  66.185  1.00  0.00    -0.367 OA 
HETATM   19  C   UNL     1     -11.644  14.591  67.493  1.00  0.00    -0.381 A  
HETATM   20  C   UNL     1     -11.871  15.795  68.167  1.00  0.00    -0.054 A  
HETATM   21  C   UNL     1     -11.516  15.929  69.507  1.00  0.00    -0.342 A  
HETATM   22  C   UNL     1     -10.928  14.857  70.172  1.00  0.00    -0.211 A  
HETATM   23  C   UNL     1     -10.681  13.660  69.495  1.00  0.00     0.112 A  
HETATM   24  C   UNL     1     -11.042  13.510  68.144  1.00  0.00    -0.283 A  
ENDBRANCH   9  11
ENDBRANCH   8   9
ENDBRANCH   7   8
ENDBRANCH   6   7
ENDBRANCH   4   6
BRANCH   4  25
HETATM   25  C   UNL     1      -7.039   9.927  67.387  1.00  0.00    -0.085 C  
HETATM   26  C   UNL     1      -7.253  10.088  65.882  1.00  0.00    -0.115 C  
HETATM   27  C   UNL     1      -7.305  11.287  68.058  1.00  0.00    -0.092 C  
ENDBRANCH   4  25
ENDBRANCH   2   4
TORSDOF 7
ENDMDL
MODEL      170
REMARK 921   NORMALIZED FREE ENERGY PREDICTED BY IDOCK:   -4.19 KCAL/MOL
REMARK 922        TOTAL FREE ENERGY PREDICTED BY IDOCK:   -7.09 KCAL/MOL
REMARK 923 INTER-LIGAND FREE ENERGY PREDICTED BY IDOCK:   -6.14 KCAL/MOL
REMARK 924 INTRA-LIGAND FREE ENERGY PREDICTED BY IDOCK:   -0.95 KCAL/MOL
REMARK 927      BINDING AFFINITY PREDICTED BY RF-SCORE:    0.00 PKD
ROOT
HETATM    1  C   UNL     1      -8.846  14.442  68.003  1.00  0.00    -0.178 C  
HETATM    2  C   UNL     1     -10.318  14.220  67.637  1.00  0.00    -0.248 C  
HETATM    3  C   UNL     1     -10.661  14.788  66.260  1.00  0.00    -0.313 C  
ENDROOT
BRANCH   2   4
HETATM    4  N   UNL     1     -10.842  12.738  67.828  1.00  0.00    -0.220 N  
HETATM    5  C   UNL     1     -11.960  12.459  66.808  1.00  0.00    -0.212 C  
BRANCH   4   6
HETATM    6  C   UNL     1      -9.660  11.740  67.508  1.00  0.00    -0.177 C  
BRANCH   6   7
HETATM    7  C   UNL     1      -9.023  11.024  68.705  1.00  0.00    -0.167 C  
BRANCH   7   8
HETATM    8  O   UNL     1      -9.193   9.603  68.560  1.00  0.00    -0.136 OA 
BRANCH   8   9
HETATM    9  C   UNL     1      -8.216   8.805  69.106  1.00  0.00    -0.119 C  
HETATM   10  O   UNL     1      -7.101   9.254  69.359  1.00  0.00    -0.051 OA 
BRANCH   9  11
HETATM   11  C   UNL     1      -8.688   7.367  69.381  1.00  0.00    -0.137 C  
HETATM   12  C   UNL     1      -9.832   7.303  70.379  1.00  0.00    -0.183 A  
HETATM   13  C   UNL     1      -9.662   7.762  71.699  1.00  0.00    -0.200 A  
HETATM   14  C   UNL     1     -10.757   7.875  72.556  1.00  0.00    -0.391 A  
HETATM   15  C   UNL     1     -12.021   7.483  72.123  1.00  0.00    -0.323 A  
HETATM   16  C   UNL     1     -12.182   6.955  70.843  1.00  0.00    -0.404 A  
HETATM   17  C   UNL     1     -11.092   6.864  69.976  1.00  0.00    -0.299 A  
HETATM   18  O   UNL     1     -11.353   6.337  68.738  1.00  0.00    -0.356 OA 
HETATM   19  C   UNL     1     -10.309   6.157  67.864  1.00  0.00    -0.203 A  
HETATM   20  C   UNL     1     -10.617   5.460  66.692  1.00  0.00    -0.359 A  
HETATM   21  C   UNL     1      -9.639   5.247  65.723  1.00  0.00    -0.108 A  
HETATM   22  C   UNL     1      -8.351   5.730  65.929  1.00  0.00    -0.130 A  
HETATM   23  C   UNL     1      -8.037   6.410  67.109  1.00  0.00    -0.113 A  
HETATM   24  C   UNL     1      -9.016   6.637  68.092  1.00  0.00    -0.121 A  
ENDBRANCH   9  11
ENDBRANCH   8   9
ENDBRANCH   7   8
ENDBRANCH   6   7
ENDBRANCH   4   6
BRANCH   4  25
HETATM   25  C   UNL     1     -11.317  12.377  69.315  1.00  0.00    -0.254 C  
HETATM   26  C   UNL     1     -11.984  13.534  70.058  1.00  0.00    -0.410 C  
HETATM   27  C   UNL     1     -12.268  11.168  69.357  1.00  0.00    -0.329 C  
ENDBRANCH   4  25
ENDBRANCH   2   4
TORSDOF 7
ENDMDL
MODEL      171
REMARK 921   NORMALIZED FREE ENERGY PREDICTED BY IDOCK:   -4.18 KCAL/MOL
REMARK 922        TOTAL FREE ENERGY PREDICTED BY IDOCK:   -7.08 KCAL/MOL
REMARK 923 INTER-LIGAND FREE ENERGY PREDICTED BY IDOCK:   -6.66 KCAL/MOL
REMARK 924 INTRA-LIGAND FREE ENERGY PREDICTED BY IDOCK:   -0.42 KCAL/MOL
REMARK 927      BINDING AFFINITY PREDICTED BY RF-SCORE:    0.00 PKD
ROOT
HETATM    1  C   UNL     1      -9.503   8.661  72.046  1.00  0.00    -0.370 C  
HETATM    2  C   UNL     1      -9.768   7.607  70.965  1.00  0.00    -0.163 C  
HETATM    3  C   UNL     1     -11.140   6.952  71.123  1.00  0.00    -0.297 C  
ENDROOT
BRANCH   2   4
HETATM    4  N   UNL     1      -9.491   8.084  69.481  1.00  0.00    -0.160 N  
HETATM    5  C   UNL     1      -9.958   6.991  68.502  1.00  0.00    -0.155 C  
BRANCH   4   6
HETATM    6  C   UNL     1     -10.362   9.370  69.192  1.00  0.00    -0.211 C  
BRANCH   6   7
HETATM    7  C   UNL     1      -9.661  10.525  68.469  1.00  0.00    -0.165 C  
BRANCH   7   8
HETATM    8  O   UNL     1      -9.949  11.761  69.147  1.00  0.00    -0.013 OA 
BRANCH   8   9
HETATM    9  C   UNL     1     -10.761  12.653  68.488  1.00  0.00    -0.248 C  
HETATM   10  O   UNL     1     -11.928  12.819  68.831  1.00  0.00    -0.300 OA 
BRANCH   9  11
HETATM   11  C   UNL     1     -10.044  13.405  67.353  1.00  0.00    -0.237 C  
HETATM   12  C   UNL     1     -10.719  13.219  66.004  1.00  0.00    -0.286 A  
HETATM   13  C   UNL     1     -10.825  11.942  65.422  1.00  0.00    -0.343 A  
HETATM   14  C   UNL     1     -11.603  11.746  64.281  1.00  0.00    -0.361 A  
HETATM   15  C   UNL     1     -12.239  12.829  63.680  1.00  0.00    -0.597 A  
HETATM   16  C   UNL     1     -12.074  14.110  64.207  1.00  0.00    -0.471 A  
HETATM   17  C   UNL     1     -11.316  14.303  65.363  1.00  0.00    -0.329 A  
HETATM   18  O   UNL     1     -11.219  15.597  65.806  1.00  0.00    -0.224 OA 
HETATM   19  C   UNL     1     -10.430  15.863  66.898  1.00  0.00    -0.309 A  
HETATM   20  C   UNL     1     -10.239  17.217  67.189  1.00  0.00    -0.316 A  
HETATM   21  C   UNL     1      -9.480  17.598  68.294  1.00  0.00    -0.295 A  
HETATM   22  C   UNL     1      -8.910  16.623  69.106  1.00  0.00    -0.136 A  
HETATM   23  C   UNL     1      -9.084  15.269  68.804  1.00  0.00    -0.200 A  
HETATM   24  C   UNL     1      -9.853  14.871  67.697  1.00  0.00    -0.217 A  
ENDBRANCH   9  11
ENDBRANCH   8   9
ENDBRANCH   7   8
ENDBRANCH   6   7
ENDBRANCH   4   6
BRANCH   4  25
HETATM   25  C   UNL     1      -7.978   8.515  69.182  1.00  0.00    -0.112 C  
HETATM   26  C   UNL     1      -6.964   7.990  70.198  1.00  0.00    -0.048 C  
HETATM   27  C   UNL     1      -7.509   8.100  67.776  1.00  0.00    -0.094 C  
ENDBRANCH   4  25
ENDBRANCH   2   4
TORSDOF 7
ENDMDL
MODEL      172
REMARK 921   NORMALIZED FREE ENERGY PREDICTED BY IDOCK:   -4.18 KCAL/MOL
REMARK 922        TOTAL FREE ENERGY PREDICTED BY IDOCK:   -7.08 KCAL/MOL
REMARK 923 INTER-LIGAND FREE ENERGY PREDICTED BY IDOCK:   -6.86 KCAL/MOL
REMARK 924 INTRA-LIGAND FREE ENERGY PREDICTED BY IDOCK:   -0.21 KCAL/MOL
REMARK 927      BINDING AFFINITY PREDICTED BY RF-SCORE:    0.00 PKD
ROOT
HETATM    1  C   UNL     1     -11.122   6.255  70.057  1.00  0.00    -0.455 C  
HETATM    2  C   UNL     1     -10.426   7.568  70.432  1.00  0.00    -0.223 C  
HETATM    3  C   UNL     1     -10.739   7.997  71.865  1.00  0.00    -0.311 C  
ENDROOT
BRANCH   2   4
HETATM    4  N   UNL     1      -8.878   7.625  70.107  1.00  0.00    -0.145 N  
HETATM    5  C   UNL     1      -8.384   6.212  69.743  1.00  0.00    -0.124 C  
BRANCH   4   6
HETATM    6  C   UNL     1      -8.661   8.535  68.834  1.00  0.00    -0.127 C  
BRANCH   6   7
HETATM    7  C   UNL     1      -9.898   9.254  68.286  1.00  0.00    -0.158 C  
BRANCH   7   8
HETATM    8  O   UNL     1      -9.970  10.578  68.842  1.00  0.00    -0.185 OA 
BRANCH   8   9
HETATM    9  C   UNL     1      -9.955  11.624  67.951  1.00  0.00    -0.182 C  
HETATM   10  O   UNL     1      -8.985  11.823  67.224  1.00  0.00    -0.163 OA 
BRANCH   9  11
HETATM   11  C   UNL     1     -11.257  12.445  67.953  1.00  0.00    -0.316 C  
HETATM   12  C   UNL     1     -12.013  12.346  69.267  1.00  0.00    -0.308 A  
HETATM   13  C   UNL     1     -12.503  11.108  69.725  1.00  0.00    -0.230 A  
HETATM   14  C   UNL     1     -13.030  10.987  71.011  1.00  0.00    -0.369 A  
HETATM   15  C   UNL     1     -13.123  12.107  71.832  1.00  0.00    -0.475 A  
HETATM   16  C   UNL     1     -12.711  13.352  71.356  1.00  0.00    -0.411 A  
HETATM   17  C   UNL     1     -12.161  13.470  70.078  1.00  0.00    -0.341 A  
HETATM   18  O   UNL     1     -11.781  14.733  69.704  1.00  0.00    -0.278 OA 
HETATM   19  C   UNL     1     -11.297  14.927  68.434  1.00  0.00    -0.303 A  
HETATM   20  C   UNL     1     -11.092  16.259  68.063  1.00  0.00    -0.299 A  
HETATM   21  C   UNL     1     -10.575  16.568  66.807  1.00  0.00    -0.224 A  
HETATM   22  C   UNL     1     -10.266  15.542  65.920  1.00  0.00    -0.367 A  
HETATM   23  C   UNL     1     -10.488  14.211  66.282  1.00  0.00    -0.286 A  
HETATM   24  C   UNL     1     -11.003  13.885  67.549  1.00  0.00    -0.288 A  
ENDBRANCH   9  11
ENDBRANCH   8   9
ENDBRANCH   7   8
ENDBRANCH   6   7
ENDBRANCH   4   6
BRANCH   4  25
HETATM   25  C   UNL     1      -7.971   8.272  71.257  1.00  0.00    -0.111 C  
HETATM   26  C   UNL     1      -7.114   7.265  72.023  1.00  0.00    -0.067 C  
HETATM   27  C   UNL     1      -7.046   9.384  70.728  1.00  0.00    -0.119 C  
ENDBRANCH   4  25
ENDBRANCH   2   4
TORSDOF 7
ENDMDL
MODEL      173
REMARK 921   NORMALIZED FREE ENERGY PREDICTED BY IDOCK:   -4.17 KCAL/MOL
REMARK 922        TOTAL FREE ENERGY PREDICTED BY IDOCK:   -7.06 KCAL/MOL
REMARK 923 INTER-LIGAND FREE ENERGY PREDICTED BY IDOCK:   -5.90 KCAL/MOL
REMARK 924 INTRA-LIGAND FREE ENERGY PREDICTED BY IDOCK:   -1.15 KCAL/MOL
REMARK 927      BINDING AFFINITY PREDICTED BY RF-SCORE:    0.00 PKD
ROOT
HETATM    1  C   UNL     1      -9.209   3.080  70.518  1.00  0.00    -0.210 C  
HETATM    2  C   UNL     1      -9.340   4.528  71.005  1.00  0.00    -0.150 C  
HETATM    3  C   UNL     1     -10.324   4.658  72.167  1.00  0.00    -0.244 C  
ENDROOT
BRANCH   2   4
HETATM    4  N   UNL     1      -7.969   5.268  71.287  1.00  0.00    -0.107 N  
HETATM    5  C   UNL     1      -6.973   4.937  70.160  1.00  0.00    -0.049 C  
BRANCH   4   6
HETATM    6  C   UNL     1      -8.218   6.827  71.244  1.00  0.00    -0.119 C  
BRANCH   6   7
HETATM    7  C   UNL     1      -7.540   7.599  70.107  1.00  0.00    -0.086 C  
BRANCH   7   8
HETATM    8  O   UNL     1      -8.543   8.209  69.276  1.00  0.00    -0.133 OA 
BRANCH   8   9
HETATM    9  C   UNL     1      -9.005   9.442  69.669  1.00  0.00    -0.173 C  
HETATM   10  O   UNL     1      -8.291  10.212  70.306  1.00  0.00    -0.077 OA 
BRANCH   9  11
HETATM   11  C   UNL     1     -10.441   9.733  69.198  1.00  0.00    -0.232 C  
HETATM   12  C   UNL     1     -11.486   9.395  70.248  1.00  0.00    -0.223 A  
HETATM   13  C   UNL     1     -11.642   8.073  70.709  1.00  0.00    -0.251 A  
HETATM   14  C   UNL     1     -12.467   7.796  71.799  1.00  0.00    -0.348 A  
HETATM   15  C   UNL     1     -13.183   8.824  72.406  1.00  0.00    -0.441 A  
HETATM   16  C   UNL     1     -13.093  10.123  71.906  1.00  0.00    -0.571 A  
HETATM   17  C   UNL     1     -12.249  10.405  70.830  1.00  0.00    -0.383 A  
HETATM   18  O   UNL     1     -12.224  11.711  70.415  1.00  0.00    -0.350 OA 
HETATM   19  C   UNL     1     -11.467  12.041  69.318  1.00  0.00    -0.301 A  
HETATM   20  C   UNL     1     -11.623  13.349  68.848  1.00  0.00    -0.356 A  
HETATM   21  C   UNL     1     -10.881  13.797  67.758  1.00  0.00    -0.262 A  
HETATM   22  C   UNL     1      -9.983  12.935  67.137  1.00  0.00    -0.240 A  
HETATM   23  C   UNL     1      -9.841  11.621  67.593  1.00  0.00    -0.195 A  
HETATM   24  C   UNL     1     -10.579  11.158  68.696  1.00  0.00    -0.222 A  
ENDBRANCH   9  11
ENDBRANCH   8   9
ENDBRANCH   7   8
ENDBRANCH   6   7
ENDBRANCH   4   6
BRANCH   4  25
HETATM   25  C   UNL     1      -7.328   4.975  72.725  1.00  0.00    -0.090 C  
HETATM   26  C   UNL     1      -6.177   3.970  72.707  1.00  0.00    -0.016 C  
HETATM   27  C   UNL     1      -6.837   6.254  73.427  1.00  0.00    -0.075 C  
ENDBRANCH   4  25
ENDBRANCH   2   4
TORSDOF 7
ENDMDL
MODEL      174
REMARK 921   NORMALIZED FREE ENERGY PREDICTED BY IDOCK:   -4.17 KCAL/MOL
REMARK 922        TOTAL FREE ENERGY PREDICTED BY IDOCK:   -7.06 KCAL/MOL
REMARK 923 INTER-LIGAND FREE ENERGY PREDICTED BY IDOCK:   -5.88 KCAL/MOL
REMARK 924 INTRA-LIGAND FREE ENERGY PREDICTED BY IDOCK:   -1.18 KCAL/MOL
REMARK 927      BINDING AFFINITY PREDICTED BY RF-SCORE:    0.00 PKD
ROOT
HETATM    1  C   UNL     1     -11.877  14.194  69.412  1.00  0.00    -0.378 C  
HETATM    2  C   UNL     1     -11.549  14.613  67.974  1.00  0.00    -0.340 C  
HETATM    3  C   UNL     1     -10.831  15.962  67.917  1.00  0.00    -0.327 C  
ENDROOT
BRANCH   2   4
HETATM    4  N   UNL     1     -10.830  13.507  67.099  1.00  0.00    -0.282 N  
HETATM    5  C   UNL     1      -9.471  14.046  66.616  1.00  0.00    -0.287 C  
BRANCH   4   6
HETATM    6  C   UNL     1     -10.534  12.253  68.014  1.00  0.00    -0.218 C  
BRANCH   6   7
HETATM    7  C   UNL     1     -11.519  11.082  67.913  1.00  0.00    -0.282 C  
BRANCH   7   8
HETATM    8  O   UNL     1     -10.788   9.847  67.828  1.00  0.00    -0.268 OA 
BRANCH   8   9
HETATM    9  C   UNL     1     -10.510   9.211  69.014  1.00  0.00    -0.221 C  
HETATM   10  O   UNL     1     -11.275   9.293  69.971  1.00  0.00    -0.235 OA 
BRANCH   9  11
HETATM   11  C   UNL     1      -9.206   8.394  68.976  1.00  0.00    -0.147 C  
HETATM   12  C   UNL     1      -9.265   7.237  67.993  1.00  0.00    -0.131 A  
HETATM   13  C   UNL     1     -10.200   6.198  68.158  1.00  0.00    -0.208 A  
HETATM   14  C   UNL     1     -10.377   5.239  67.162  1.00  0.00    -0.268 A  
HETATM   15  C   UNL     1      -9.589   5.276  66.014  1.00  0.00    -0.166 A  
HETATM   16  C   UNL     1      -8.607   6.258  65.879  1.00  0.00    -0.150 A  
HETATM   17  C   UNL     1      -8.445   7.232  66.865  1.00  0.00    -0.119 A  
HETATM   18  O   UNL     1      -7.459   8.156  66.638  1.00  0.00    -0.086 OA 
HETATM   19  C   UNL     1      -7.203   9.099  67.602  1.00  0.00    -0.083 A  
HETATM   20  C   UNL     1      -6.076   9.898  67.383  1.00  0.00    -0.058 A  
HETATM   21  C   UNL     1      -5.742  10.906  68.284  1.00  0.00    -0.043 A  
HETATM   22  C   UNL     1      -6.535  11.113  69.408  1.00  0.00    -0.100 A  
HETATM   23  C   UNL     1      -7.650  10.303  69.640  1.00  0.00    -0.167 A  
HETATM   24  C   UNL     1      -8.003   9.286  68.734  1.00  0.00    -0.099 A  
ENDBRANCH   9  11
ENDBRANCH   8   9
ENDBRANCH   7   8
ENDBRANCH   6   7
ENDBRANCH   4   6
BRANCH   4  25
HETATM   25  C   UNL     1     -11.696  12.948  65.873  1.00  0.00    -0.399 C  
HETATM   26  C   UNL     1     -12.854  13.855  65.459  1.00  0.00    -0.471 C  
HETATM   27  C   UNL     1     -10.841  12.661  64.625  1.00  0.00    -0.349 C  
ENDBRANCH   4  25
ENDBRANCH   2   4
TORSDOF 7
ENDMDL
MODEL      175
REMARK 921   NORMALIZED FREE ENERGY PREDICTED BY IDOCK:   -4.17 KCAL/MOL
REMARK 922        TOTAL FREE ENERGY PREDICTED BY IDOCK:   -7.06 KCAL/MOL
REMARK 923 INTER-LIGAND FREE ENERGY PREDICTED BY IDOCK:   -5.67 KCAL/MOL
REMARK 924 INTRA-LIGAND FREE ENERGY PREDICTED BY IDOCK:   -1.39 KCAL/MOL
REMARK 927      BINDING AFFINITY PREDICTED BY RF-SCORE:    0.00 PKD
ROOT
HETATM    1  C   UNL     1     -10.846  15.836  67.191  1.00  0.00    -0.289 C  
HETATM    2  C   UNL     1     -11.039  14.590  66.319  1.00  0.00    -0.332 C  
HETATM    3  C   UNL     1     -10.478  14.781  64.910  1.00  0.00    -0.398 C  
ENDROOT
BRANCH   2   4
HETATM    4  N   UNL     1     -10.570  13.230  66.979  1.00  0.00    -0.259 N  
HETATM    5  C   UNL     1     -10.044  12.288  65.880  1.00  0.00    -0.251 C  
BRANCH   4   6
HETATM    6  C   UNL     1      -9.363  13.530  67.952  1.00  0.00    -0.215 C  
BRANCH   6   7
HETATM    7  C   UNL     1      -8.185  12.549  67.908  1.00  0.00    -0.165 C  
BRANCH   7   8
HETATM    8  O   UNL     1      -8.406  11.490  68.855  1.00  0.00    -0.110 OA 
BRANCH   8   9
HETATM    9  C   UNL     1      -7.295  10.809  69.291  1.00  0.00    -0.129 C  
HETATM   10  O   UNL     1      -6.313  11.409  69.720  1.00  0.00    -0.112 OA 
BRANCH   9  11
HETATM   11  C   UNL     1      -7.449   9.280  69.215  1.00  0.00    -0.075 C  
HETATM   12  C   UNL     1      -8.611   8.763  70.048  1.00  0.00    -0.136 A  
HETATM   13  C   UNL     1      -8.632   8.943  71.444  1.00  0.00    -0.238 A  
HETATM   14  C   UNL     1      -9.775   8.636  72.181  1.00  0.00    -0.383 A  
HETATM   15  C   UNL     1     -10.890   8.100  71.541  1.00  0.00    -0.290 A  
HETATM   16  C   UNL     1     -10.848   7.847  70.170  1.00  0.00    -0.243 A  
HETATM   17  C   UNL     1      -9.713   8.176  69.428  1.00  0.00    -0.170 A  
HETATM   18  O   UNL     1      -9.770   7.895  68.088  1.00  0.00    -0.152 OA 
HETATM   19  C   UNL     1      -8.660   8.131  67.315  1.00  0.00    -0.124 A  
HETATM   20  C   UNL     1      -8.729   7.663  66.000  1.00  0.00    -0.178 A  
HETATM   21  C   UNL     1      -7.670   7.876  65.121  1.00  0.00    -0.103 A  
HETATM   22  C   UNL     1      -6.538   8.555  65.561  1.00  0.00    -0.059 A  
HETATM   23  C   UNL     1      -6.459   9.005  66.882  1.00  0.00    -0.064 A  
HETATM   24  C   UNL     1      -7.524   8.803  67.777  1.00  0.00    -0.093 A  
ENDBRANCH   9  11
ENDBRANCH   8   9
ENDBRANCH   7   8
ENDBRANCH   6   7
ENDBRANCH   4   6
BRANCH   4  25
HETATM   25  C   UNL     1     -11.677  12.501  67.879  1.00  0.00    -0.359 C  
HETATM   26  C   UNL     1     -11.521  10.983  67.958  1.00  0.00    -0.365 C  
HETATM   27  C   UNL     1     -11.730  13.053  69.315  1.00  0.00    -0.375 C  
ENDBRANCH   4  25
ENDBRANCH   2   4
TORSDOF 7
ENDMDL
MODEL      176
REMARK 921   NORMALIZED FREE ENERGY PREDICTED BY IDOCK:   -4.16 KCAL/MOL
REMARK 922        TOTAL FREE ENERGY PREDICTED BY IDOCK:   -7.05 KCAL/MOL
REMARK 923 INTER-LIGAND FREE ENERGY PREDICTED BY IDOCK:   -6.33 KCAL/MOL
REMARK 924 INTRA-LIGAND FREE ENERGY PREDICTED BY IDOCK:   -0.72 KCAL/MOL
REMARK 927      BINDING AFFINITY PREDICTED BY RF-SCORE:    0.00 PKD
ROOT
HETATM    1  C   UNL     1     -12.587  13.609  65.682  1.00  0.00    -0.531 C  
HETATM    2  C   UNL     1     -12.163  12.418  64.814  1.00  0.00    -0.423 C  
HETATM    3  C   UNL     1     -12.096  12.782  63.330  1.00  0.00    -0.619 C  
ENDROOT
BRANCH   2   4
HETATM    4  N   UNL     1     -10.868  11.654  65.309  1.00  0.00    -0.292 N  
HETATM    5  C   UNL     1      -9.890  12.665  65.934  1.00  0.00    -0.244 C  
BRANCH   4   6
HETATM    6  C   UNL     1     -11.284  10.643  66.450  1.00  0.00     0.263 C  
BRANCH   6   7
HETATM    7  C   UNL     1     -11.488  11.234  67.849  1.00  0.00    -0.288 C  
BRANCH   7   8
HETATM    8  O   UNL     1     -11.517  10.172  68.819  1.00  0.00    -0.167 OA 
BRANCH   8   9
HETATM    9  C   UNL     1     -11.087  10.481  70.087  1.00  0.00    -0.298 C  
HETATM   10  O   UNL     1     -11.667  11.326  70.764  1.00  0.00    -0.276 OA 
BRANCH   9  11
HETATM   11  C   UNL     1      -9.876   9.645  70.539  1.00  0.00    -0.294 C  
HETATM   12  C   UNL     1     -10.258   8.238  70.966  1.00  0.00    -0.230 A  
HETATM   13  C   UNL     1     -11.123   8.025  72.056  1.00  0.00    -0.353 A  
HETATM   14  C   UNL     1     -11.617   6.750  72.330  1.00  0.00    -0.311 A  
HETATM   15  C   UNL     1     -11.214   5.667  71.553  1.00  0.00    -0.182 A  
HETATM   16  C   UNL     1     -10.297   5.858  70.520  1.00  0.00    -0.297 A  
HETATM   17  C   UNL     1      -9.820   7.138  70.229  1.00  0.00    -0.176 A  
HETATM   18  O   UNL     1      -8.928   7.224  69.193  1.00  0.00    -0.136 OA 
HETATM   19  C   UNL     1      -8.369   8.444  68.902  1.00  0.00    -0.119 A  
HETATM   20  C   UNL     1      -7.343   8.428  67.952  1.00  0.00    -0.096 A  
HETATM   21  C   UNL     1      -6.727   9.615  67.561  1.00  0.00    -0.070 A  
HETATM   22  C   UNL     1      -7.137  10.819  68.125  1.00  0.00    -0.078 A  
HETATM   23  C   UNL     1      -8.148  10.835  69.090  1.00  0.00    -0.133 A  
HETATM   24  C   UNL     1      -8.782   9.645  69.488  1.00  0.00    -0.191 A  
ENDBRANCH   9  11
ENDBRANCH   8   9
ENDBRANCH   7   8
ENDBRANCH   6   7
ENDBRANCH   4   6
BRANCH   4  25
HETATM   25  C   UNL     1     -10.142  10.765  64.192  1.00  0.00    -0.353 C  
HETATM   26  C   UNL     1      -9.216  11.553  63.267  1.00  0.00    -0.150 C  
HETATM   27  C   UNL     1      -9.339   9.597  64.794  1.00  0.00    -0.286 C  
ENDBRANCH   4  25
ENDBRANCH   2   4
TORSDOF 7
ENDMDL
MODEL      177
REMARK 921   NORMALIZED FREE ENERGY PREDICTED BY IDOCK:   -4.16 KCAL/MOL
REMARK 922        TOTAL FREE ENERGY PREDICTED BY IDOCK:   -7.04 KCAL/MOL
REMARK 923 INTER-LIGAND FREE ENERGY PREDICTED BY IDOCK:   -6.29 KCAL/MOL
REMARK 924 INTRA-LIGAND FREE ENERGY PREDICTED BY IDOCK:   -0.75 KCAL/MOL
REMARK 927      BINDING AFFINITY PREDICTED BY RF-SCORE:    0.00 PKD
ROOT
HETATM    1  C   UNL     1     -12.735   8.429  72.574  1.00  0.00    -0.286 C  
HETATM    2  C   UNL     1     -11.562   8.496  71.590  1.00  0.00    -0.299 C  
HETATM    3  C   UNL     1     -11.188   9.935  71.235  1.00  0.00    -0.356 C  
ENDROOT
BRANCH   2   4
HETATM    4  N   UNL     1     -10.302   7.623  71.987  1.00  0.00    -0.200 N  
HETATM    5  C   UNL     1     -10.663   6.728  73.187  1.00  0.00    -0.296 C  
BRANCH   4   6
HETATM    6  C   UNL     1      -9.949   6.666  70.782  1.00  0.00    -0.184 C  
BRANCH   6   7
HETATM    7  C   UNL     1     -10.930   6.655  69.604  1.00  0.00    -0.313 C  
BRANCH   7   8
HETATM    8  O   UNL     1     -10.727   7.830  68.800  1.00  0.00    -0.170 OA 
BRANCH   8   9
HETATM    9  C   UNL     1     -10.443   7.627  67.470  1.00  0.00    -0.266 C  
HETATM   10  O   UNL     1     -11.088   6.824  66.801  1.00  0.00    -0.338 OA 
BRANCH   9  11
HETATM   11  C   UNL     1      -9.303   8.520  66.947  1.00  0.00    -0.219 C  
HETATM   12  C   UNL     1      -8.281   7.749  66.128  1.00  0.00    -0.123 A  
HETATM   13  C   UNL     1      -7.532   6.707  66.707  1.00  0.00    -0.079 A  
HETATM   14  C   UNL     1      -6.733   5.884  65.913  1.00  0.00    -0.055 A  
HETATM   15  C   UNL     1      -6.634   6.122  64.545  1.00  0.00    -0.038 A  
HETATM   16  C   UNL     1      -7.313   7.200  63.978  1.00  0.00    -0.081 A  
HETATM   17  C   UNL     1      -8.131   8.011  64.767  1.00  0.00    -0.143 A  
HETATM   18  O   UNL     1      -8.761   9.040  64.117  1.00  0.00    -0.181 OA 
HETATM   19  C   UNL     1      -9.524   9.915  64.850  1.00  0.00    -0.291 A  
HETATM   20  C   UNL     1      -9.994  11.034  64.156  1.00  0.00    -0.385 A  
HETATM   21  C   UNL     1     -10.803  11.970  64.797  1.00  0.00    -0.354 A  
HETATM   22  C   UNL     1     -11.140  11.787  66.134  1.00  0.00    -0.358 A  
HETATM   23  C   UNL     1     -10.655  10.679  66.834  1.00  0.00    -0.311 A  
HETATM   24  C   UNL     1      -9.843   9.723  66.198  1.00  0.00    -0.329 A  
ENDBRANCH   9  11
ENDBRANCH   8   9
ENDBRANCH   7   8
ENDBRANCH   6   7
ENDBRANCH   4   6
BRANCH   4  25
HETATM   25  C   UNL     1      -8.967   8.460  72.275  1.00  0.00    -0.233 C  
HETATM   26  C   UNL     1      -8.279   8.110  73.595  1.00  0.00    -0.292 C  
HETATM   27  C   UNL     1      -7.930   8.330  71.145  1.00  0.00    -0.112 C  
ENDBRANCH   4  25
ENDBRANCH   2   4
TORSDOF 7
ENDMDL
MODEL      178
REMARK 921   NORMALIZED FREE ENERGY PREDICTED BY IDOCK:   -4.15 KCAL/MOL
REMARK 922        TOTAL FREE ENERGY PREDICTED BY IDOCK:   -7.03 KCAL/MOL
REMARK 923 INTER-LIGAND FREE ENERGY PREDICTED BY IDOCK:   -5.58 KCAL/MOL
REMARK 924 INTRA-LIGAND FREE ENERGY PREDICTED BY IDOCK:   -1.46 KCAL/MOL
REMARK 927      BINDING AFFINITY PREDICTED BY RF-SCORE:    0.00 PKD
ROOT
HETATM    1  C   UNL     1      -9.379  14.206  66.562  1.00  0.00    -0.285 C  
HETATM    2  C   UNL     1      -9.591  13.860  68.041  1.00  0.00    -0.219 C  
HETATM    3  C   UNL     1      -8.836  14.813  68.969  1.00  0.00    -0.136 C  
ENDROOT
BRANCH   2   4
HETATM    4  N   UNL     1     -11.101  13.662  68.474  1.00  0.00    -0.262 N  
HETATM    5  C   UNL     1     -12.022  14.121  67.329  1.00  0.00    -0.414 C  
BRANCH   4   6
HETATM    6  C   UNL     1     -11.365  12.120  68.694  1.00  0.00    -0.280 C  
BRANCH   6   7
HETATM    7  C   UNL     1     -10.130  11.230  68.865  1.00  0.00    -0.170 C  
BRANCH   7   8
HETATM    8  O   UNL     1     -10.509   9.850  68.718  1.00  0.00    -0.196 OA 
BRANCH   8   9
HETATM    9  C   UNL     1     -10.175   9.240  67.532  1.00  0.00    -0.242 C  
HETATM   10  O   UNL     1     -10.734   8.207  67.173  1.00  0.00    -0.316 OA 
BRANCH   9  11
HETATM   11  C   UNL     1      -9.099  10.001  66.738  1.00  0.00    -0.159 C  
HETATM   12  C   UNL     1      -7.772   9.261  66.686  1.00  0.00    -0.093 A  
HETATM   13  C   UNL     1      -7.056   8.985  67.866  1.00  0.00    -0.079 A  
HETATM   14  C   UNL     1      -5.939   8.150  67.838  1.00  0.00    -0.043 A  
HETATM   15  C   UNL     1      -5.495   7.625  66.627  1.00  0.00    -0.025 A  
HETATM   16  C   UNL     1      -6.154   7.958  65.443  1.00  0.00    -0.038 A  
HETATM   17  C   UNL     1      -7.287   8.774  65.474  1.00  0.00    -0.085 A  
HETATM   18  O   UNL     1      -7.867   9.039  64.261  1.00  0.00    -0.117 OA 
HETATM   19  C   UNL     1      -8.942   9.891  64.216  1.00  0.00    -0.243 A  
HETATM   20  C   UNL     1      -9.375  10.252  62.936  1.00  0.00    -0.336 A  
HETATM   21  C   UNL     1     -10.477  11.088  62.775  1.00  0.00     0.188 A  
HETATM   22  C   UNL     1     -11.145  11.567  63.897  1.00  0.00    -0.458 A  
HETATM   23  C   UNL     1     -10.702  11.225  65.178  1.00  0.00    -0.312 A  
HETATM   24  C   UNL     1      -9.595  10.375  65.354  1.00  0.00    -0.303 A  
ENDBRANCH   9  11
ENDBRANCH   8   9
ENDBRANCH   7   8
ENDBRANCH   6   7
ENDBRANCH   4   6
BRANCH   4  25
HETATM   25  C   UNL     1     -11.504  14.368  69.855  1.00  0.00    -0.260 C  
HETATM   26  C   UNL     1     -12.266  15.682  69.688  1.00  0.00    -0.264 C  
HETATM   27  C   UNL     1     -12.329  13.447  70.772  1.00  0.00    -0.433 C  
ENDBRANCH   4  25
ENDBRANCH   2   4
TORSDOF 7
ENDMDL
MODEL      179
REMARK 921   NORMALIZED FREE ENERGY PREDICTED BY IDOCK:   -4.14 KCAL/MOL
REMARK 922        TOTAL FREE ENERGY PREDICTED BY IDOCK:   -7.02 KCAL/MOL
REMARK 923 INTER-LIGAND FREE ENERGY PREDICTED BY IDOCK:   -5.69 KCAL/MOL
REMARK 924 INTRA-LIGAND FREE ENERGY PREDICTED BY IDOCK:   -1.33 KCAL/MOL
REMARK 927      BINDING AFFINITY PREDICTED BY RF-SCORE:    0.00 PKD
ROOT
HETATM    1  C   UNL     1     -12.998   7.191  71.197  1.00  0.00    -0.316 C  
HETATM    2  C   UNL     1     -11.756   8.084  71.099  1.00  0.00    -0.284 C  
HETATM    3  C   UNL     1     -12.036   9.512  71.568  1.00  0.00    -0.475 C  
ENDROOT
BRANCH   2   4
HETATM    4  N   UNL     1     -10.443   7.481  71.746  1.00  0.00    -0.193 N  
HETATM    5  C   UNL     1     -10.834   6.455  72.826  1.00  0.00    -0.248 C  
BRANCH   4   6
HETATM    6  C   UNL     1      -9.643   6.699  70.630  1.00  0.00    -0.169 C  
BRANCH   6   7
HETATM    7  C   UNL     1     -10.314   6.587  69.256  1.00  0.00    -0.202 C  
BRANCH   7   8
HETATM    8  O   UNL     1      -9.616   7.419  68.313  1.00  0.00    -0.148 OA 
BRANCH   8   9
HETATM    9  C   UNL     1     -10.128   7.471  67.039  1.00  0.00    -0.261 C  
HETATM   10  O   UNL     1     -10.859   6.581  66.613  1.00  0.00    -0.275 OA 
BRANCH   9  11
HETATM   11  C   UNL     1      -9.722   8.742  66.271  1.00  0.00    -0.342 C  
HETATM   12  C   UNL     1      -9.955  10.013  67.071  1.00  0.00    -0.257 A  
HETATM   13  C   UNL     1     -11.251  10.378  67.480  1.00  0.00    -0.254 A  
HETATM   14  C   UNL     1     -11.441  11.439  68.366  1.00  0.00    -0.367 A  
HETATM   15  C   UNL     1     -10.348  12.177  68.811  1.00  0.00    -0.168 A  
HETATM   16  C   UNL     1      -9.068  11.869  68.347  1.00  0.00    -0.167 A  
HETATM   17  C   UNL     1      -8.874  10.792  67.480  1.00  0.00    -0.128 A  
HETATM   18  O   UNL     1      -7.581  10.566  67.086  1.00  0.00    -0.094 OA 
HETATM   19  C   UNL     1      -7.333   9.566  66.179  1.00  0.00    -0.093 A  
HETATM   20  C   UNL     1      -6.023   9.503  65.692  1.00  0.00    -0.060 A  
HETATM   21  C   UNL     1      -5.655   8.508  64.790  1.00  0.00    -0.047 A  
HETATM   22  C   UNL     1      -6.600   7.576  64.372  1.00  0.00    -0.048 A  
HETATM   23  C   UNL     1      -7.914   7.649  64.842  1.00  0.00    -0.135 A  
HETATM   24  C   UNL     1      -8.297   8.645  65.758  1.00  0.00    -0.148 A  
ENDBRANCH   9  11
ENDBRANCH   8   9
ENDBRANCH   7   8
ENDBRANCH   6   7
ENDBRANCH   4   6
BRANCH   4  25
HETATM   25  C   UNL     1      -9.418   8.566  72.327  1.00  0.00    -0.295 C  
HETATM   26  C   UNL     1      -8.624   8.090  73.544  1.00  0.00    -0.318 C  
HETATM   27  C   UNL     1      -8.419   9.065  71.268  1.00  0.00    -0.196 C  
ENDBRANCH   4  25
ENDBRANCH   2   4
TORSDOF 7
ENDMDL
MODEL      180
REMARK 921   NORMALIZED FREE ENERGY PREDICTED BY IDOCK:   -4.13 KCAL/MOL
REMARK 922        TOTAL FREE ENERGY PREDICTED BY IDOCK:   -7.00 KCAL/MOL
REMARK 923 INTER-LIGAND FREE ENERGY PREDICTED BY IDOCK:   -6.04 KCAL/MOL
REMARK 924 INTRA-LIGAND FREE ENERGY PREDICTED BY IDOCK:   -0.97 KCAL/MOL
REMARK 927      BINDING AFFINITY PREDICTED BY RF-SCORE:    0.00 PKD
ROOT
HETATM    1  C   UNL     1      -8.970   9.660  63.806  1.00  0.00    -0.251 C  
HETATM    2  C   UNL     1      -8.141   8.371  63.760  1.00  0.00    -0.142 C  
HETATM    3  C   UNL     1      -6.946   8.489  62.814  1.00  0.00    -0.090 C  
ENDROOT
BRANCH   2   4
HETATM    4  N   UNL     1      -7.740   7.780  65.173  1.00  0.00    -0.094 N  
HETATM    5  C   UNL     1      -6.206   7.774  65.302  1.00  0.00    -0.038 C  
BRANCH   4   6
HETATM    6  C   UNL     1      -8.298   8.737  66.298  1.00  0.00    -0.118 C  
BRANCH   6   7
HETATM    7  C   UNL     1      -7.261   9.520  67.110  1.00  0.00    -0.087 C  
BRANCH   7   8
HETATM    8  O   UNL     1      -7.768   9.759  68.434  1.00  0.00    -0.080 OA 
BRANCH   8   9
HETATM    9  C   UNL     1      -8.519  10.896  68.613  1.00  0.00    -0.152 C  
HETATM   10  O   UNL     1      -8.013  11.925  69.054  1.00  0.00    -0.015 OA 
BRANCH   9  11
HETATM   11  C   UNL     1      -9.985  10.733  68.175  1.00  0.00    -0.176 C  
HETATM   12  C   UNL     1     -10.909  10.379  69.328  1.00  0.00    -0.280 A  
HETATM   13  C   UNL     1     -10.735   9.182  70.049  1.00  0.00    -0.254 A  
HETATM   14  C   UNL     1     -11.460   8.947  71.216  1.00  0.00    -0.368 A  
HETATM   15  C   UNL     1     -12.402   9.876  71.648  1.00  0.00    -0.496 A  
HETATM   16  C   UNL     1     -12.636  11.028  70.896  1.00  0.00    -0.488 A  
HETATM   17  C   UNL     1     -11.893  11.276  69.740  1.00  0.00    -0.364 A  
HETATM   18  O   UNL     1     -12.191  12.437  69.075  1.00  0.00    -0.190 OA 
HETATM   19  C   UNL     1     -11.544  12.705  67.894  1.00  0.00    -0.349 A  
HETATM   20  C   UNL     1     -12.018  13.812  67.183  1.00  0.00    -0.442 A  
HETATM   21  C   UNL     1     -11.413  14.191  65.987  1.00  0.00    -0.343 A  
HETATM   22  C   UNL     1     -10.336  13.459  65.499  1.00  0.00    -0.302 A  
HETATM   23  C   UNL     1      -9.874  12.340  66.197  1.00  0.00    -0.257 A  
HETATM   24  C   UNL     1     -10.470  11.950  67.410  1.00  0.00    -0.242 A  
ENDBRANCH   9  11
ENDBRANCH   8   9
ENDBRANCH   7   8
ENDBRANCH   6   7
ENDBRANCH   4   6
BRANCH   4  25
HETATM   25  C   UNL     1      -8.350   6.335  65.497  1.00  0.00    -0.147 C  
HETATM   26  C   UNL     1      -7.332   5.332  66.039  1.00  0.00    -0.081 C  
HETATM   27  C   UNL     1      -9.533   6.397  66.479  1.00  0.00    -0.189 C  
ENDBRANCH   4  25
ENDBRANCH   2   4
TORSDOF 7
ENDMDL
MODEL      181
REMARK 921   NORMALIZED FREE ENERGY PREDICTED BY IDOCK:   -4.12 KCAL/MOL
REMARK 922        TOTAL FREE ENERGY PREDICTED BY IDOCK:   -7.00 KCAL/MOL
REMARK 923 INTER-LIGAND FREE ENERGY PREDICTED BY IDOCK:   -5.93 KCAL/MOL
REMARK 924 INTRA-LIGAND FREE ENERGY PREDICTED BY IDOCK:   -1.07 KCAL/MOL
REMARK 927      BINDING AFFINITY PREDICTED BY RF-SCORE:    0.00 PKD
ROOT
HETATM    1  C   UNL     1      -9.599  13.959  65.952  1.00  0.00    -0.171 C  
HETATM    2  C   UNL     1      -9.662  13.404  67.380  1.00  0.00    -0.221 C  
HETATM    3  C   UNL     1      -8.622  14.050  68.295  1.00  0.00    -0.180 C  
ENDROOT
BRANCH   2   4
HETATM    4  N   UNL     1     -11.107  13.380  68.027  1.00  0.00    -0.246 N  
HETATM    5  C   UNL     1     -12.128  13.920  67.008  1.00  0.00    -0.415 C  
BRANCH   4   6
HETATM    6  C   UNL     1     -11.501  11.881  68.330  1.00  0.00    -0.311 C  
BRANCH   6   7
HETATM    7  C   UNL     1     -10.400  10.831  68.139  1.00  0.00    -0.171 C  
BRANCH   7   8
HETATM    8  O   UNL     1     -10.929   9.524  68.426  1.00  0.00    -0.172 OA 
BRANCH   8   9
HETATM    9  C   UNL     1     -10.222   8.451  67.940  1.00  0.00    -0.217 C  
HETATM   10  O   UNL     1     -10.387   8.053  66.789  1.00  0.00    -0.311 OA 
BRANCH   9  11
HETATM   11  C   UNL     1      -9.221   7.870  68.955  1.00  0.00    -0.144 C  
HETATM   12  C   UNL     1      -7.854   8.529  68.877  1.00  0.00    -0.109 A  
HETATM   13  C   UNL     1      -7.083   8.451  67.701  1.00  0.00    -0.083 A  
HETATM   14  C   UNL     1      -5.919   9.206  67.567  1.00  0.00    -0.050 A  
HETATM   15  C   UNL     1      -5.484  10.006  68.620  1.00  0.00    -0.039 A  
HETATM   16  C   UNL     1      -6.201  10.027  69.817  1.00  0.00    -0.054 A  
HETATM   17  C   UNL     1      -7.380   9.291  69.944  1.00  0.00    -0.074 A  
HETATM   18  O   UNL     1      -8.016   9.382  71.154  1.00  0.00    -0.322 OA 
HETATM   19  C   UNL     1      -9.143   8.627  71.367  1.00  0.00    -0.229 A  
HETATM   20  C   UNL     1      -9.639   8.636  72.674  1.00  0.00    -0.196 A  
HETATM   21  C   UNL     1     -10.795   7.928  72.993  1.00  0.00    -0.408 A  
HETATM   22  C   UNL     1     -11.454   7.207  72.002  1.00  0.00    -0.310 A  
HETATM   23  C   UNL     1     -10.949   7.180  70.699  1.00  0.00    -0.283 A  
HETATM   24  C   UNL     1      -9.786   7.896  70.363  1.00  0.00    -0.183 A  
ENDBRANCH   9  11
ENDBRANCH   8   9
ENDBRANCH   7   8
ENDBRANCH   6   7
ENDBRANCH   4   6
BRANCH   4  25
HETATM   25  C   UNL     1     -11.231  14.148  69.427  1.00  0.00    -0.255 C  
HETATM   26  C   UNL     1     -11.833  15.549  69.324  1.00  0.00    -0.372 C  
HETATM   27  C   UNL     1     -12.040  13.354  70.469  1.00  0.00    -0.399 C  
ENDBRANCH   4  25
ENDBRANCH   2   4
TORSDOF 7
ENDMDL
MODEL      182
REMARK 921   NORMALIZED FREE ENERGY PREDICTED BY IDOCK:   -4.08 KCAL/MOL
REMARK 922        TOTAL FREE ENERGY PREDICTED BY IDOCK:   -6.94 KCAL/MOL
REMARK 923 INTER-LIGAND FREE ENERGY PREDICTED BY IDOCK:   -6.26 KCAL/MOL
REMARK 924 INTRA-LIGAND FREE ENERGY PREDICTED BY IDOCK:   -0.68 KCAL/MOL
REMARK 927      BINDING AFFINITY PREDICTED BY RF-SCORE:    0.00 PKD
ROOT
HETATM    1  C   UNL     1      -5.191   7.122  71.075  1.00  0.00    -0.027 C  
HETATM    2  C   UNL     1      -5.385   7.008  69.559  1.00  0.00    -0.015 C  
HETATM    3  C   UNL     1      -5.132   5.588  69.051  1.00  0.00     0.000 C  
ENDROOT
BRANCH   2   4
HETATM    4  N   UNL     1      -6.738   7.617  69.007  1.00  0.00    -0.048 N  
HETATM    5  C   UNL     1      -7.914   6.733  69.461  1.00  0.00    -0.125 C  
BRANCH   4   6
HETATM    6  C   UNL     1      -6.951   9.043  69.653  1.00  0.00    -0.054 C  
BRANCH   6   7
HETATM    7  C   UNL     1      -8.220   9.234  70.492  1.00  0.00    -0.191 C  
BRANCH   7   8
HETATM    8  O   UNL     1      -9.278   9.731  69.654  1.00  0.00    -0.193 OA 
BRANCH   8   9
HETATM    9  C   UNL     1     -10.538   9.762  70.203  1.00  0.00    -0.285 C  
HETATM   10  O   UNL     1     -10.779   9.196  71.266  1.00  0.00    -0.275 OA 
BRANCH   9  11
HETATM   11  C   UNL     1     -11.541  10.588  69.378  1.00  0.00    -0.318 C  
HETATM   12  C   UNL     1     -12.117  11.760  70.154  1.00  0.00    -0.398 A  
HETATM   13  C   UNL     1     -12.876  11.548  71.321  1.00  0.00    -0.463 A  
HETATM   14  C   UNL     1     -13.246  12.622  72.131  1.00  0.00    -0.527 A  
HETATM   15  C   UNL     1     -12.908  13.920  71.759  1.00  0.00    -0.421 A  
HETATM   16  C   UNL     1     -12.225  14.144  70.564  1.00  0.00    -0.431 A  
HETATM   17  C   UNL     1     -11.833  13.068  69.765  1.00  0.00    -0.311 A  
HETATM   18  O   UNL     1     -11.161  13.390  68.615  1.00  0.00    -0.242 OA 
HETATM   19  C   UNL     1     -10.809  12.381  67.752  1.00  0.00    -0.225 A  
HETATM   20  C   UNL     1     -10.284  12.793  66.523  1.00  0.00    -0.261 A  
HETATM   21  C   UNL     1      -9.867  11.852  65.585  1.00  0.00    -0.266 A  
HETATM   22  C   UNL     1      -9.979  10.496  65.876  1.00  0.00    -0.313 A  
HETATM   23  C   UNL     1     -10.523  10.082  67.095  1.00  0.00    -0.305 A  
HETATM   24  C   UNL     1     -10.941  11.022  68.054  1.00  0.00    -0.312 A  
ENDBRANCH   9  11
ENDBRANCH   8   9
ENDBRANCH   7   8
ENDBRANCH   6   7
ENDBRANCH   4   6
BRANCH   4  25
HETATM   25  C   UNL     1      -6.774   7.854  67.424  1.00  0.00    -0.069 C  
HETATM   26  C   UNL     1      -8.029   7.315  66.737  1.00  0.00    -0.118 C  
HETATM   27  C   UNL     1      -6.619   9.337  67.042  1.00  0.00    -0.068 C  
ENDBRANCH   4  25
ENDBRANCH   2   4
TORSDOF 7
ENDMDL
MODEL      183
REMARK 921   NORMALIZED FREE ENERGY PREDICTED BY IDOCK:   -4.07 KCAL/MOL
REMARK 922        TOTAL FREE ENERGY PREDICTED BY IDOCK:   -6.92 KCAL/MOL
REMARK 923 INTER-LIGAND FREE ENERGY PREDICTED BY IDOCK:   -5.49 KCAL/MOL
REMARK 924 INTRA-LIGAND FREE ENERGY PREDICTED BY IDOCK:   -1.44 KCAL/MOL
REMARK 927      BINDING AFFINITY PREDICTED BY RF-SCORE:    0.00 PKD
ROOT
HETATM    1  C   UNL     1      -6.318   5.458  65.749  1.00  0.00    -0.035 C  
HETATM    2  C   UNL     1      -7.692   5.686  65.110  1.00  0.00    -0.090 C  
HETATM    3  C   UNL     1      -7.597   5.890  63.598  1.00  0.00    -0.082 C  
ENDROOT
BRANCH   2   4
HETATM    4  N   UNL     1      -8.802   4.631  65.510  1.00  0.00    -0.129 N  
HETATM    5  C   UNL     1      -8.322   3.828  66.733  1.00  0.00    -0.103 C  
BRANCH   4   6
HETATM    6  C   UNL     1     -10.106   5.409  65.947  1.00  0.00    -0.002 C  
BRANCH   6   7
HETATM    7  C   UNL     1     -10.311   5.613  67.453  1.00  0.00    -0.230 C  
BRANCH   7   8
HETATM    8  O   UNL     1     -10.327   7.020  67.749  1.00  0.00    -0.172 OA 
BRANCH   8   9
HETATM    9  C   UNL     1      -9.149   7.572  68.191  1.00  0.00    -0.128 C  
HETATM   10  O   UNL     1      -8.180   6.866  68.456  1.00  0.00    -0.119 OA 
BRANCH   9  11
HETATM   11  C   UNL     1      -9.187   9.109  68.265  1.00  0.00    -0.135 C  
HETATM   12  C   UNL     1      -9.331   9.761  66.901  1.00  0.00    -0.184 A  
HETATM   13  C   UNL     1      -8.344   9.589  65.912  1.00  0.00    -0.124 A  
HETATM   14  C   UNL     1      -8.563  10.031  64.608  1.00  0.00    -0.191 A  
HETATM   15  C   UNL     1      -9.744  10.694  64.288  1.00  0.00    -0.372 A  
HETATM   16  C   UNL     1     -10.694  10.938  65.281  1.00  0.00    -0.194 A  
HETATM   17  C   UNL     1     -10.486  10.474  66.582  1.00  0.00    -0.228 A  
HETATM   18  O   UNL     1     -11.478  10.757  67.484  1.00  0.00    -0.475 OA 
HETATM   19  C   UNL     1     -11.303  10.390  68.795  1.00  0.00    -0.214 A  
HETATM   20  C   UNL     1     -12.270  10.860  69.689  1.00  0.00    -0.354 A  
HETATM   21  C   UNL     1     -12.204  10.521  71.038  1.00  0.00    -0.505 A  
HETATM   22  C   UNL     1     -11.167   9.713  71.494  1.00  0.00    -0.377 A  
HETATM   23  C   UNL     1     -10.188   9.259  70.606  1.00  0.00    -0.335 A  
HETATM   24  C   UNL     1     -10.247   9.588  69.240  1.00  0.00    -0.212 A  
ENDBRANCH   9  11
ENDBRANCH   8   9
ENDBRANCH   7   8
ENDBRANCH   6   7
ENDBRANCH   4   6
BRANCH   4  25
HETATM   25  C   UNL     1      -9.263   3.654  64.327  1.00  0.00    -0.134 C  
HETATM   26  C   UNL     1      -8.911   2.185  64.553  1.00  0.00    -0.109 C  
HETATM   27  C   UNL     1     -10.771   3.747  64.034  1.00  0.00    -0.256 C  
ENDBRANCH   4  25
ENDBRANCH   2   4
TORSDOF 7
ENDMDL
MODEL      184
REMARK 921   NORMALIZED FREE ENERGY PREDICTED BY IDOCK:   -4.07 KCAL/MOL
REMARK 922        TOTAL FREE ENERGY PREDICTED BY IDOCK:   -6.92 KCAL/MOL
REMARK 923 INTER-LIGAND FREE ENERGY PREDICTED BY IDOCK:   -6.17 KCAL/MOL
REMARK 924 INTRA-LIGAND FREE ENERGY PREDICTED BY IDOCK:   -0.75 KCAL/MOL
REMARK 927      BINDING AFFINITY PREDICTED BY RF-SCORE:    0.00 PKD
ROOT
HETATM    1  C   UNL     1     -12.230  13.760  69.487  1.00  0.00    -0.344 C  
HETATM    2  C   UNL     1     -11.305  14.311  68.396  1.00  0.00    -0.283 C  
HETATM    3  C   UNL     1     -10.117  15.075  68.982  1.00  0.00    -0.241 C  
ENDROOT
BRANCH   2   4
HETATM    4  N   UNL     1     -10.867  13.263  67.293  1.00  0.00    -0.262 N  
HETATM    5  C   UNL     1      -9.364  12.967  67.443  1.00  0.00    -0.209 C  
BRANCH   4   6
HETATM    6  C   UNL     1     -11.636  11.908  67.550  1.00  0.00    -0.304 C  
BRANCH   6   7
HETATM    7  C   UNL     1     -10.882  10.616  67.216  1.00  0.00    -0.287 C  
BRANCH   7   8
HETATM    8  O   UNL     1     -10.986   9.700  68.319  1.00  0.00    -0.206 OA 
BRANCH   8   9
HETATM    9  C   UNL     1     -10.510   8.427  68.113  1.00  0.00    -0.174 C  
HETATM   10  O   UNL     1     -10.863   7.770  67.137  1.00  0.00    -0.313 OA 
BRANCH   9  11
HETATM   11  C   UNL     1      -9.500   7.974  69.182  1.00  0.00    -0.155 C  
HETATM   12  C   UNL     1     -10.161   7.264  70.352  1.00  0.00    -0.196 A  
HETATM   13  C   UNL     1     -11.095   7.933  71.165  1.00  0.00    -0.278 A  
HETATM   14  C   UNL     1     -11.835   7.232  72.118  1.00  0.00    -0.324 A  
HETATM   15  C   UNL     1     -11.613   5.870  72.305  1.00  0.00    -0.338 A  
HETATM   16  C   UNL     1     -10.633   5.218  71.556  1.00  0.00    -0.254 A  
HETATM   17  C   UNL     1      -9.910   5.913  70.586  1.00  0.00    -0.183 A  
HETATM   18  O   UNL     1      -8.974   5.184  69.899  1.00  0.00    -0.104 OA 
HETATM   19  C   UNL     1      -8.182   5.826  68.980  1.00  0.00    -0.101 A  
HETATM   20  C   UNL     1      -7.139   5.064  68.445  1.00  0.00    -0.062 A  
HETATM   21  C   UNL     1      -6.292   5.608  67.481  1.00  0.00    -0.042 A  
HETATM   22  C   UNL     1      -6.488   6.918  67.055  1.00  0.00    -0.046 A  
HETATM   23  C   UNL     1      -7.518   7.688  67.604  1.00  0.00    -0.104 A  
HETATM   24  C   UNL     1      -8.383   7.148  68.572  1.00  0.00    -0.125 A  
ENDBRANCH   9  11
ENDBRANCH   8   9
ENDBRANCH   7   8
ENDBRANCH   6   7
ENDBRANCH   4   6
BRANCH   4  25
HETATM   25  C   UNL     1     -11.224  13.680  65.788  1.00  0.00    -0.295 C  
HETATM   26  C   UNL     1     -12.719  13.853  65.523  1.00  0.00    -0.536 C  
HETATM   27  C   UNL     1     -10.506  14.966  65.343  1.00  0.00    -0.406 C  
ENDBRANCH   4  25
ENDBRANCH   2   4
TORSDOF 7
ENDMDL
MODEL      185
REMARK 921   NORMALIZED FREE ENERGY PREDICTED BY IDOCK:   -4.06 KCAL/MOL
REMARK 922        TOTAL FREE ENERGY PREDICTED BY IDOCK:   -6.91 KCAL/MOL
REMARK 923 INTER-LIGAND FREE ENERGY PREDICTED BY IDOCK:   -5.73 KCAL/MOL
REMARK 924 INTRA-LIGAND FREE ENERGY PREDICTED BY IDOCK:   -1.18 KCAL/MOL
REMARK 927      BINDING AFFINITY PREDICTED BY RF-SCORE:    0.00 PKD
ROOT
HETATM    1  C   UNL     1      -7.281  10.230  67.050  1.00  0.00    -0.091 C  
HETATM    2  C   UNL     1      -8.495   9.298  66.953  1.00  0.00    -0.127 C  
HETATM    3  C   UNL     1      -9.436   9.696  65.816  1.00  0.00    -0.308 C  
ENDROOT
BRANCH   2   4
HETATM    4  N   UNL     1      -8.155   7.752  66.946  1.00  0.00    -0.114 N  
HETATM    5  C   UNL     1      -6.809   7.525  67.658  1.00  0.00    -0.071 C  
BRANCH   4   6
HETATM    6  C   UNL     1      -9.257   6.988  67.780  1.00  0.00    -0.124 C  
BRANCH   6   7
HETATM    7  C   UNL     1      -9.932   7.775  68.909  1.00  0.00    -0.182 C  
BRANCH   7   8
HETATM    8  O   UNL     1      -9.497   7.260  70.179  1.00  0.00    -0.165 OA 
BRANCH   8   9
HETATM    9  C   UNL     1      -9.315   8.175  71.188  1.00  0.00    -0.154 C  
HETATM   10  O   UNL     1      -8.495   9.083  71.078  1.00  0.00    -0.185 OA 
BRANCH   9  11
HETATM   11  C   UNL     1     -10.250   7.952  72.390  1.00  0.00    -0.327 C  
HETATM   12  C   UNL     1     -11.690   8.340  72.096  1.00  0.00    -0.429 A  
HETATM   13  C   UNL     1     -12.025   9.667  71.768  1.00  0.00    -0.421 A  
HETATM   14  C   UNL     1     -13.308   9.983  71.321  1.00  0.00    -0.410 A  
HETATM   15  C   UNL     1     -14.281   8.991  71.245  1.00  0.00    -0.113 A  
HETATM   16  C   UNL     1     -13.977   7.689  71.642  1.00  0.00    -0.510 A  
HETATM   17  C   UNL     1     -12.687   7.366  72.067  1.00  0.00    -0.208 A  
HETATM   18  O   UNL     1     -12.485   6.060  72.430  1.00  0.00    -0.177 OA 
HETATM   19  C   UNL     1     -11.257   5.694  72.923  1.00  0.00    -0.290 A  
HETATM   20  C   UNL     1     -11.174   4.395  73.433  1.00  0.00    -0.386 A  
HETATM   21  C   UNL     1      -9.966   3.911  73.931  1.00  0.00    -0.172 A  
HETATM   22  C   UNL     1      -8.842   4.730  73.921  1.00  0.00    -0.104 A  
HETATM   23  C   UNL     1      -8.928   6.036  73.431  1.00  0.00    -0.129 A  
HETATM   24  C   UNL     1     -10.139   6.534  72.919  1.00  0.00    -0.197 A  
ENDBRANCH   9  11
ENDBRANCH   8   9
ENDBRANCH   7   8
ENDBRANCH   6   7
ENDBRANCH   4   6
BRANCH   4  25
HETATM   25  C   UNL     1      -8.161   7.067  65.498  1.00  0.00    -0.135 C  
HETATM   26  C   UNL     1      -6.833   7.170  64.749  1.00  0.00    -0.050 C  
HETATM   27  C   UNL     1      -8.572   5.584  65.545  1.00  0.00    -0.150 C  
ENDBRANCH   4  25
ENDBRANCH   2   4
TORSDOF 7
ENDMDL
MODEL      186
REMARK 921   NORMALIZED FREE ENERGY PREDICTED BY IDOCK:   -4.06 KCAL/MOL
REMARK 922        TOTAL FREE ENERGY PREDICTED BY IDOCK:   -6.91 KCAL/MOL
REMARK 923 INTER-LIGAND FREE ENERGY PREDICTED BY IDOCK:   -6.19 KCAL/MOL
REMARK 924 INTRA-LIGAND FREE ENERGY PREDICTED BY IDOCK:   -0.72 KCAL/MOL
REMARK 927      BINDING AFFINITY PREDICTED BY RF-SCORE:    0.00 PKD
ROOT
HETATM    1  C   UNL     1      -9.336   8.840  71.947  1.00  0.00    -0.343 C  
HETATM    2  C   UNL     1     -10.127   8.019  70.921  1.00  0.00    -0.191 C  
HETATM    3  C   UNL     1     -11.634   8.092  71.165  1.00  0.00    -0.306 C  
ENDROOT
BRANCH   2   4
HETATM    4  N   UNL     1      -9.744   8.287  69.409  1.00  0.00    -0.175 N  
HETATM    5  C   UNL     1     -10.825   7.677  68.497  1.00  0.00     0.040 C  
BRANCH   4   6
HETATM    6  C   UNL     1      -9.746   9.846  69.155  1.00  0.00    -0.198 C  
BRANCH   6   7
HETATM    7  C   UNL     1      -8.476  10.442  68.538  1.00  0.00    -0.129 C  
BRANCH   7   8
HETATM    8  O   UNL     1      -8.428  11.853  68.808  1.00  0.00    -0.087 OA 
BRANCH   8   9
HETATM    9  C   UNL     1      -8.535  12.694  67.727  1.00  0.00    -0.172 C  
HETATM   10  O   UNL     1      -7.544  13.025  67.082  1.00  0.00    -0.122 OA 
BRANCH   9  11
HETATM   11  C   UNL     1      -9.985  13.111  67.421  1.00  0.00    -0.229 C  
HETATM   12  C   UNL     1     -10.259  14.570  67.749  1.00  0.00    -0.226 A  
HETATM   13  C   UNL     1     -10.140  15.046  69.068  1.00  0.00    -0.241 A  
HETATM   14  C   UNL     1     -10.211  16.413  69.336  1.00  0.00    -0.273 A  
HETATM   15  C   UNL     1     -10.452  17.313  68.301  1.00  0.00    -0.385 A  
HETATM   16  C   UNL     1     -10.648  16.840  67.004  1.00  0.00    -0.234 A  
HETATM   17  C   UNL     1     -10.554  15.475  66.730  1.00  0.00    -0.307 A  
HETATM   18  O   UNL     1     -10.756  15.110  65.424  1.00  0.00    -0.327 OA 
HETATM   19  C   UNL     1     -10.746  13.775  65.103  1.00  0.00    -0.358 A  
HETATM   20  C   UNL     1     -11.128  13.466  63.794  1.00  0.00    -0.066 A  
HETATM   21  C   UNL     1     -11.124  12.145  63.353  1.00  0.00    -0.495 A  
HETATM   22  C   UNL     1     -10.740  11.131  64.225  1.00  0.00    -0.403 A  
HETATM   23  C   UNL     1     -10.376  11.436  65.539  1.00  0.00    -0.317 A  
HETATM   24  C   UNL     1     -10.369  12.766  65.995  1.00  0.00    -0.291 A  
ENDBRANCH   9  11
ENDBRANCH   8   9
ENDBRANCH   7   8
ENDBRANCH   6   7
ENDBRANCH   4   6
BRANCH   4  25
HETATM   25  C   UNL     1      -8.284   7.785  68.984  1.00  0.00    -0.126 C  
HETATM   26  C   UNL     1      -7.675   6.751  69.931  1.00  0.00    -0.109 C  
HETATM   27  C   UNL     1      -8.246   7.208  67.557  1.00  0.00    -0.117 C  
ENDBRANCH   4  25
ENDBRANCH   2   4
TORSDOF 7
ENDMDL
MODEL      187
REMARK 921   NORMALIZED FREE ENERGY PREDICTED BY IDOCK:   -4.02 KCAL/MOL
REMARK 922        TOTAL FREE ENERGY PREDICTED BY IDOCK:   -6.85 KCAL/MOL
REMARK 923 INTER-LIGAND FREE ENERGY PREDICTED BY IDOCK:   -5.73 KCAL/MOL
REMARK 924 INTRA-LIGAND FREE ENERGY PREDICTED BY IDOCK:   -1.12 KCAL/MOL
REMARK 927      BINDING AFFINITY PREDICTED BY RF-SCORE:    0.00 PKD
ROOT
HETATM    1  C   UNL     1     -11.892  11.388  68.797  1.00  0.00    -0.388 C  
HETATM    2  C   UNL     1     -11.750  12.493  67.744  1.00  0.00    -0.359 C  
HETATM    3  C   UNL     1     -11.869  13.889  68.354  1.00  0.00    -0.409 C  
ENDROOT
BRANCH   2   4
HETATM    4  N   UNL     1     -10.494  12.353  66.790  1.00  0.00    -0.220 N  
HETATM    5  C   UNL     1      -9.355  13.245  67.318  1.00  0.00    -0.226 C  
BRANCH   4   6
HETATM    6  C   UNL     1      -9.980  10.861  66.845  1.00  0.00    -0.194 C  
BRANCH   6   7
HETATM    7  C   UNL     1      -8.747  10.527  65.998  1.00  0.00    -0.164 C  
BRANCH   7   8
HETATM    8  O   UNL     1      -8.881   9.202  65.457  1.00  0.00    -0.167 OA 
BRANCH   8   9
HETATM    9  C   UNL     1      -8.337   8.176  66.192  1.00  0.00    -0.126 C  
HETATM   10  O   UNL     1      -7.325   8.349  66.867  1.00  0.00    -0.081 OA 
BRANCH   9  11
HETATM   11  C   UNL     1      -9.141   6.867  66.099  1.00  0.00    -0.144 C  
HETATM   12  C   UNL     1      -8.371   5.752  65.410  1.00  0.00    -0.142 A  
HETATM   13  C   UNL     1      -7.959   5.883  64.070  1.00  0.00    -0.121 A  
HETATM   14  C   UNL     1      -7.099   4.945  63.499  1.00  0.00    -0.048 A  
HETATM   15  C   UNL     1      -6.683   3.842  64.240  1.00  0.00    -0.044 A  
HETATM   16  C   UNL     1      -7.150   3.665  65.542  1.00  0.00    -0.066 A  
HETATM   17  C   UNL     1      -7.992   4.616  66.123  1.00  0.00    -0.103 A  
HETATM   18  O   UNL     1      -8.391   4.357  67.408  1.00  0.00    -0.100 OA 
HETATM   19  C   UNL     1      -9.275   5.217  68.011  1.00  0.00    -0.113 A  
HETATM   20  C   UNL     1      -9.772   4.803  69.251  1.00  0.00    -0.266 A  
HETATM   21  C   UNL     1     -10.652   5.614  69.963  1.00  0.00    -0.388 A  
HETATM   22  C   UNL     1     -11.037   6.841  69.432  1.00  0.00    -0.310 A  
HETATM   23  C   UNL     1     -10.558   7.248  68.184  1.00  0.00    -0.228 A  
HETATM   24  C   UNL     1      -9.664   6.442  67.458  1.00  0.00    -0.137 A  
ENDBRANCH   9  11
ENDBRANCH   8   9
ENDBRANCH   7   8
ENDBRANCH   6   7
ENDBRANCH   4   6
BRANCH   4  25
HETATM   25  C   UNL     1     -10.786  12.650  65.243  1.00  0.00    -0.289 C  
HETATM   26  C   UNL     1     -12.239  12.429  64.826  1.00  0.00    -0.493 C  
HETATM   27  C   UNL     1     -10.376  14.073  64.824  1.00  0.00    -0.407 C  
ENDBRANCH   4  25
ENDBRANCH   2   4
TORSDOF 7
ENDMDL
MODEL      188
REMARK 921   NORMALIZED FREE ENERGY PREDICTED BY IDOCK:   -4.02 KCAL/MOL
REMARK 922        TOTAL FREE ENERGY PREDICTED BY IDOCK:   -6.85 KCAL/MOL
REMARK 923 INTER-LIGAND FREE ENERGY PREDICTED BY IDOCK:   -5.95 KCAL/MOL
REMARK 924 INTRA-LIGAND FREE ENERGY PREDICTED BY IDOCK:   -0.89 KCAL/MOL
REMARK 927      BINDING AFFINITY PREDICTED BY RF-SCORE:    0.00 PKD
ROOT
HETATM    1  C   UNL     1     -10.616  17.465  68.041  1.00  0.00    -0.389 C  
HETATM    2  C   UNL     1     -10.100  16.034  67.851  1.00  0.00    -0.241 C  
HETATM    3  C   UNL     1      -8.614  15.908  68.191  1.00  0.00    -0.169 C  
ENDROOT
BRANCH   2   4
HETATM    4  N   UNL     1     -10.976  14.908  68.537  1.00  0.00    -0.246 N  
HETATM    5  C   UNL     1     -11.932  14.303  67.492  1.00  0.00    -0.376 C  
BRANCH   4   6
HETATM    6  C   UNL     1     -10.020  13.747  69.019  1.00  0.00     0.066 C  
BRANCH   6   7
HETATM    7  C   UNL     1     -10.139  12.409  68.282  1.00  0.00    -0.227 C  
BRANCH   7   8
HETATM    8  O   UNL     1      -8.891  11.700  68.370  1.00  0.00    -0.162 OA 
BRANCH   8   9
HETATM    9  C   UNL     1      -8.935  10.432  68.898  1.00  0.00    -0.169 C  
HETATM   10  O   UNL     1      -8.176  10.097  69.803  1.00  0.00    -0.172 OA 
BRANCH   9  11
HETATM   11  C   UNL     1     -10.029   9.549  68.271  1.00  0.00    -0.184 C  
HETATM   12  C   UNL     1      -9.501   8.656  67.161  1.00  0.00    -0.207 A  
HETATM   13  C   UNL     1      -8.938   9.212  65.996  1.00  0.00    -0.221 A  
HETATM   14  C   UNL     1      -8.289   8.400  65.066  1.00  0.00    -0.169 A  
HETATM   15  C   UNL     1      -8.241   7.023  65.261  1.00  0.00    -0.128 A  
HETATM   16  C   UNL     1      -8.864   6.457  66.373  1.00  0.00    -0.146 A  
HETATM   17  C   UNL     1      -9.493   7.271  67.318  1.00  0.00    -0.138 A  
HETATM   18  O   UNL     1     -10.071   6.623  68.378  1.00  0.00    -0.144 OA 
HETATM   19  C   UNL     1     -10.765   7.361  69.304  1.00  0.00    -0.185 A  
HETATM   20  C   UNL     1     -11.471   6.623  70.259  1.00  0.00    -0.449 A  
HETATM   21  C   UNL     1     -12.185   7.272  71.263  1.00  0.00    -0.389 A  
HETATM   22  C   UNL     1     -12.194   8.663  71.311  1.00  0.00    -0.320 A  
HETATM   23  C   UNL     1     -11.505   9.403  70.345  1.00  0.00    -0.272 A  
HETATM   24  C   UNL     1     -10.775   8.759  69.330  1.00  0.00    -0.180 A  
ENDBRANCH   9  11
ENDBRANCH   8   9
ENDBRANCH   7   8
ENDBRANCH   6   7
ENDBRANCH   4   6
BRANCH   4  25
HETATM   25  C   UNL     1     -11.775  15.377  69.843  1.00  0.00    -0.336 C  
HETATM   26  C   UNL     1     -12.829  14.381  70.325  1.00  0.00    -0.230 C  
HETATM   27  C   UNL     1     -10.842  15.698  71.025  1.00  0.00    -0.168 C  
ENDBRANCH   4  25
ENDBRANCH   2   4
TORSDOF 7
ENDMDL
MODEL      189
REMARK 921   NORMALIZED FREE ENERGY PREDICTED BY IDOCK:   -4.01 KCAL/MOL
REMARK 922        TOTAL FREE ENERGY PREDICTED BY IDOCK:   -6.84 KCAL/MOL
REMARK 923 INTER-LIGAND FREE ENERGY PREDICTED BY IDOCK:   -5.84 KCAL/MOL
REMARK 924 INTRA-LIGAND FREE ENERGY PREDICTED BY IDOCK:   -1.00 KCAL/MOL
REMARK 927      BINDING AFFINITY PREDICTED BY RF-SCORE:    0.00 PKD
ROOT
HETATM    1  C   UNL     1     -11.753  12.830  65.008  1.00  0.00    -0.391 C  
HETATM    2  C   UNL     1     -10.847  13.241  66.175  1.00  0.00    -0.280 C  
HETATM    3  C   UNL     1     -11.488  14.319  67.049  1.00  0.00    -0.377 C  
ENDROOT
BRANCH   2   4
HETATM    4  N   UNL     1     -10.261  12.041  67.025  1.00  0.00    -0.203 N  
HETATM    5  C   UNL     1     -10.982  11.982  68.384  1.00  0.00    -0.237 C  
BRANCH   4   6
HETATM    6  C   UNL     1     -10.574  10.688  66.273  1.00  0.00    -0.161 C  
BRANCH   6   7
HETATM    7  C   UNL     1     -11.010   9.504  67.143  1.00  0.00     0.051 C  
BRANCH   7   8
HETATM    8  O   UNL     1      -9.955   8.528  67.189  1.00  0.00    -0.192 OA 
BRANCH   8   9
HETATM    9  C   UNL     1     -10.284   7.283  67.669  1.00  0.00    -0.200 C  
HETATM   10  O   UNL     1     -11.147   6.602  67.122  1.00  0.00    -0.392 OA 
BRANCH   9  11
HETATM   11  C   UNL     1      -9.448   6.861  68.891  1.00  0.00    -0.136 C  
HETATM   12  C   UNL     1     -10.074   7.287  70.208  1.00  0.00    -0.196 A  
HETATM   13  C   UNL     1     -10.271   8.649  70.505  1.00  0.00    -0.229 A  
HETATM   14  C   UNL     1     -11.009   9.029  71.626  1.00  0.00    -0.435 A  
HETATM   15  C   UNL     1     -11.513   8.060  72.488  1.00  0.00    -0.471 A  
HETATM   16  C   UNL     1     -11.255   6.711  72.242  1.00  0.00    -0.303 A  
HETATM   17  C   UNL     1     -10.537   6.328  71.107  1.00  0.00    -0.239 A  
HETATM   18  O   UNL     1     -10.341   4.980  70.950  1.00  0.00    -0.230 OA 
HETATM   19  C   UNL     1      -9.583   4.543  69.892  1.00  0.00    -0.199 A  
HETATM   20  C   UNL     1      -9.280   3.178  69.889  1.00  0.00    -0.222 A  
HETATM   21  C   UNL     1      -8.542   2.623  68.846  1.00  0.00    -0.114 A  
HETATM   22  C   UNL     1      -8.104   3.437  67.806  1.00  0.00    -0.081 A  
HETATM   23  C   UNL     1      -8.388   4.805  67.818  1.00  0.00    -0.103 A  
HETATM   24  C   UNL     1      -9.138   5.376  68.861  1.00  0.00    -0.138 A  
ENDBRANCH   9  11
ENDBRANCH   8   9
ENDBRANCH   7   8
ENDBRANCH   6   7
ENDBRANCH   4   6
BRANCH   4  25
HETATM   25  C   UNL     1      -8.671  12.066  67.218  1.00  0.00    -0.175 C  
HETATM   26  C   UNL     1      -8.195  11.552  68.576  1.00  0.00    -0.148 C  
HETATM   27  C   UNL     1      -7.928  11.281  66.121  1.00  0.00    -0.038 C  
ENDBRANCH   4  25
ENDBRANCH   2   4
TORSDOF 7
ENDMDL
MODEL      190
REMARK 921   NORMALIZED FREE ENERGY PREDICTED BY IDOCK:   -3.99 KCAL/MOL
REMARK 922        TOTAL FREE ENERGY PREDICTED BY IDOCK:   -6.81 KCAL/MOL
REMARK 923 INTER-LIGAND FREE ENERGY PREDICTED BY IDOCK:   -6.59 KCAL/MOL
REMARK 924 INTRA-LIGAND FREE ENERGY PREDICTED BY IDOCK:   -0.22 KCAL/MOL
REMARK 927      BINDING AFFINITY PREDICTED BY RF-SCORE:    0.00 PKD
ROOT
HETATM    1  C   UNL     1      -6.697  19.735  65.032  1.00  0.00    -0.232 C  
HETATM    2  C   UNL     1      -7.588  20.090  66.228  1.00  0.00    -0.303 C  
HETATM    3  C   UNL     1      -9.064  20.176  65.841  1.00  0.00    -0.131 C  
ENDROOT
BRANCH   2   4
HETATM    4  N   UNL     1      -7.351  19.214  67.525  1.00  0.00    -0.225 N  
HETATM    5  C   UNL     1      -8.661  19.137  68.331  1.00  0.00    -0.352 C  
BRANCH   4   6
HETATM    6  C   UNL     1      -6.991  17.741  67.081  1.00  0.00    -0.172 C  
BRANCH   6   7
HETATM    7  C   UNL     1      -7.993  17.039  66.157  1.00  0.00    -0.264 C  
BRANCH   7   8
HETATM    8  O   UNL     1      -8.883  16.227  66.943  1.00  0.00    -0.189 OA 
BRANCH   8   9
HETATM    9  C   UNL     1      -8.492  14.931  67.178  1.00  0.00    -0.220 C  
HETATM   10  O   UNL     1      -7.307  14.609  67.135  1.00  0.00    -0.152 OA 
BRANCH   9  11
HETATM   11  C   UNL     1      -9.664  13.995  67.525  1.00  0.00    -0.232 C  
HETATM   12  C   UNL     1     -10.514  14.517  68.671  1.00  0.00    -0.247 A  
HETATM   13  C   UNL     1      -9.961  14.701  69.953  1.00  0.00     0.301 A  
HETATM   14  C   UNL     1     -10.687  15.350  70.951  1.00  0.00    -0.156 A  
HETATM   15  C   UNL     1     -11.989  15.774  70.698  1.00  0.00    -0.426 A  
HETATM   16  C   UNL     1     -12.571  15.525  69.455  1.00  0.00     0.037 A  
HETATM   17  C   UNL     1     -11.836  14.897  68.448  1.00  0.00    -0.278 A  
HETATM   18  O   UNL     1     -12.493  14.702  67.260  1.00  0.00    -0.082 OA 
HETATM   19  C   UNL     1     -11.849  14.028  66.253  1.00  0.00    -0.411 A  
HETATM   20  C   UNL     1     -12.633  13.714  65.138  1.00  0.00    -0.474 A  
HETATM   21  C   UNL     1     -12.071  13.057  64.046  1.00  0.00    -0.519 A  
HETATM   22  C   UNL     1     -10.724  12.711  64.070  1.00  0.00    -0.457 A  
HETATM   23  C   UNL     1      -9.944  13.006  65.191  1.00  0.00    -0.170 A  
HETATM   24  C   UNL     1     -10.496  13.675  66.298  1.00  0.00    -0.291 A  
ENDBRANCH   9  11
ENDBRANCH   8   9
ENDBRANCH   7   8
ENDBRANCH   6   7
ENDBRANCH   4   6
BRANCH   4  25
HETATM   25  C   UNL     1      -6.134  19.693  68.450  1.00  0.00    -0.235 C  
HETATM   26  C   UNL     1      -5.647  21.112  68.160  1.00  0.00    -0.377 C  
HETATM   27  C   UNL     1      -6.456  19.593  69.952  1.00  0.00    -0.331 C  
ENDBRANCH   4  25
ENDBRANCH   2   4
TORSDOF 7
ENDMDL
MODEL      191
REMARK 921   NORMALIZED FREE ENERGY PREDICTED BY IDOCK:   -3.98 KCAL/MOL
REMARK 922        TOTAL FREE ENERGY PREDICTED BY IDOCK:   -6.79 KCAL/MOL
REMARK 923 INTER-LIGAND FREE ENERGY PREDICTED BY IDOCK:   -6.02 KCAL/MOL
REMARK 924 INTRA-LIGAND FREE ENERGY PREDICTED BY IDOCK:   -0.77 KCAL/MOL
REMARK 927      BINDING AFFINITY PREDICTED BY RF-SCORE:    0.00 PKD
ROOT
HETATM    1  C   UNL     1      -7.763   7.252  68.673  1.00  0.00    -0.120 C  
HETATM    2  C   UNL     1      -7.451   8.743  68.845  1.00  0.00    -0.083 C  
HETATM    3  C   UNL     1      -5.961   8.996  69.074  1.00  0.00    -0.043 C  
ENDROOT
BRANCH   2   4
HETATM    4  N   UNL     1      -8.063   9.689  67.732  1.00  0.00    -0.112 N  
HETATM    5  C   UNL     1      -9.577   9.836  67.968  1.00  0.00    -0.142 C  
BRANCH   4   6
HETATM    6  C   UNL     1      -7.426  11.127  67.886  1.00  0.00    -0.094 C  
BRANCH   6   7
HETATM    7  C   UNL     1      -8.360  12.242  68.369  1.00  0.00    -0.144 C  
BRANCH   7   8
HETATM    8  O   UNL     1      -8.242  13.378  67.495  1.00  0.00    -0.162 OA 
BRANCH   8   9
HETATM    9  C   UNL     1      -8.535  14.607  68.035  1.00  0.00    -0.154 C  
HETATM   10  O   UNL     1      -7.672  15.271  68.603  1.00  0.00    -0.122 OA 
BRANCH   9  11
HETATM   11  C   UNL     1      -9.996  15.038  67.812  1.00  0.00    -0.229 C  
HETATM   12  C   UNL     1     -10.632  14.359  66.610  1.00  0.00    -0.282 A  
HETATM   13  C   UNL     1     -10.117  14.557  65.315  1.00  0.00    -0.389 A  
HETATM   14  C   UNL     1     -10.582  13.794  64.244  1.00  0.00    -0.172 A  
HETATM   15  C   UNL     1     -11.599  12.865  64.443  1.00  0.00    -0.415 A  
HETATM   16  C   UNL     1     -12.168  12.719  65.708  1.00  0.00    -0.469 A  
HETATM   17  C   UNL     1     -11.687  13.464  66.786  1.00  0.00    -0.385 A  
HETATM   18  O   UNL     1     -12.305  13.246  67.989  1.00  0.00    -0.168 OA 
HETATM   19  C   UNL     1     -11.925  13.998  69.073  1.00  0.00    -0.357 A  
HETATM   20  C   UNL     1     -12.711  13.846  70.220  1.00  0.00    -0.244 A  
HETATM   21  C   UNL     1     -12.396  14.540  71.386  1.00  0.00    -0.425 A  
HETATM   22  C   UNL     1     -11.295  15.389  71.403  1.00  0.00    -0.449 A  
HETATM   23  C   UNL     1     -10.520  15.558  70.252  1.00  0.00    -0.282 A  
HETATM   24  C   UNL     1     -10.823  14.859  69.071  1.00  0.00    -0.248 A  
ENDBRANCH   9  11
ENDBRANCH   8   9
ENDBRANCH   7   8
ENDBRANCH   6   7
ENDBRANCH   4   6
BRANCH   4  25
HETATM   25  C   UNL     1      -7.756   9.243  66.225  1.00  0.00    -0.096 C  
HETATM   26  C   UNL     1      -8.646   9.913  65.179  1.00  0.00    -0.166 C  
HETATM   27  C   UNL     1      -6.287   9.475  65.825  1.00  0.00    -0.069 C  
ENDBRANCH   4  25
ENDBRANCH   2   4
TORSDOF 7
ENDMDL
MODEL      192
REMARK 921   NORMALIZED FREE ENERGY PREDICTED BY IDOCK:   -3.97 KCAL/MOL
REMARK 922        TOTAL FREE ENERGY PREDICTED BY IDOCK:   -6.79 KCAL/MOL
REMARK 923 INTER-LIGAND FREE ENERGY PREDICTED BY IDOCK:   -5.51 KCAL/MOL
REMARK 924 INTRA-LIGAND FREE ENERGY PREDICTED BY IDOCK:   -1.27 KCAL/MOL
REMARK 927      BINDING AFFINITY PREDICTED BY RF-SCORE:    0.00 PKD
ROOT
HETATM    1  C   UNL     1     -11.148  13.272  68.852  1.00  0.00    -0.304 C  
HETATM    2  C   UNL     1     -10.597  11.845  68.752  1.00  0.00    -0.206 C  
HETATM    3  C   UNL     1     -11.682  10.792  68.975  1.00  0.00    -0.357 C  
ENDROOT
BRANCH   2   4
HETATM    4  N   UNL     1      -9.723  11.552  67.465  1.00  0.00    -0.178 N  
HETATM    5  C   UNL     1      -8.482  12.463  67.476  1.00  0.00    -0.175 C  
BRANCH   4   6
HETATM    6  C   UNL     1      -9.205  10.061  67.535  1.00  0.00    -0.137 C  
BRANCH   6   7
HETATM    7  C   UNL     1      -8.085   9.770  68.539  1.00  0.00    -0.104 C  
BRANCH   7   8
HETATM    8  O   UNL     1      -8.606   8.986  69.626  1.00  0.00    -0.126 OA 
BRANCH   8   9
HETATM    9  C   UNL     1      -8.143   7.696  69.736  1.00  0.00    -0.125 C  
HETATM   10  O   UNL     1      -7.359   7.233  68.912  1.00  0.00    -0.090 OA 
BRANCH   9  11
HETATM   11  C   UNL     1      -8.675   6.962  70.980  1.00  0.00    -0.136 C  
HETATM   12  C   UNL     1      -7.897   7.302  72.241  1.00  0.00    -0.097 A  
HETATM   13  C   UNL     1      -6.526   7.000  72.345  1.00  0.00    -0.053 A  
HETATM   14  C   UNL     1      -5.776   7.475  73.420  1.00  0.00    -0.048 A  
HETATM   15  C   UNL     1      -6.393   8.211  74.427  1.00  0.00    -0.130 A  
HETATM   16  C   UNL     1      -7.767   8.448  74.370  1.00  0.00    -0.263 A  
HETATM   17  C   UNL     1      -8.515   7.994  73.282  1.00  0.00    -0.224 A  
HETATM   18  O   UNL     1      -9.854   8.281  73.314  1.00  0.00    -0.220 OA 
HETATM   19  C   UNL     1     -10.657   7.802  72.308  1.00  0.00    -0.259 A  
HETATM   20  C   UNL     1     -12.031   7.984  72.492  1.00  0.00    -0.384 A  
HETATM   21  C   UNL     1     -12.933   7.562  71.519  1.00  0.00    -0.400 A  
HETATM   22  C   UNL     1     -12.460   6.954  70.360  1.00  0.00     0.017 A  
HETATM   23  C   UNL     1     -11.088   6.753  70.183  1.00  0.00    -0.365 A  
HETATM   24  C   UNL     1     -10.166   7.181  71.155  1.00  0.00    -0.200 A  
ENDBRANCH   9  11
ENDBRANCH   8   9
ENDBRANCH   7   8
ENDBRANCH   6   7
ENDBRANCH   4   6
BRANCH   4  25
HETATM   25  C   UNL     1     -10.510  11.668  66.075  1.00  0.00    -0.251 C  
HETATM   26  C   UNL     1     -10.314  13.000  65.352  1.00  0.00    -0.313 C  
HETATM   27  C   UNL     1     -10.155  10.534  65.096  1.00  0.00    -0.383 C  
ENDBRANCH   4  25
ENDBRANCH   2   4
TORSDOF 7
ENDMDL
MODEL      193
REMARK 921   NORMALIZED FREE ENERGY PREDICTED BY IDOCK:   -3.96 KCAL/MOL
REMARK 922        TOTAL FREE ENERGY PREDICTED BY IDOCK:   -6.76 KCAL/MOL
REMARK 923 INTER-LIGAND FREE ENERGY PREDICTED BY IDOCK:   -5.64 KCAL/MOL
REMARK 924 INTRA-LIGAND FREE ENERGY PREDICTED BY IDOCK:   -1.12 KCAL/MOL
REMARK 927      BINDING AFFINITY PREDICTED BY RF-SCORE:    0.00 PKD
ROOT
HETATM    1  C   UNL     1      -9.755  15.137  66.325  1.00  0.00    -0.315 C  
HETATM    2  C   UNL     1      -9.799  13.738  66.950  1.00  0.00    -0.264 C  
HETATM    3  C   UNL     1     -10.672  13.696  68.205  1.00  0.00    -0.260 C  
ENDROOT
BRANCH   2   4
HETATM    4  N   UNL     1     -10.128  12.562  65.943  1.00  0.00    -0.252 N  
HETATM    5  C   UNL     1      -8.815  11.887  65.506  1.00  0.00     0.276 C  
BRANCH   4   6
HETATM    6  C   UNL     1     -10.982  11.471  66.701  1.00  0.00    -0.296 C  
BRANCH   6   7
HETATM    7  C   UNL     1     -10.410  10.049  66.730  1.00  0.00    -0.217 C  
BRANCH   7   8
HETATM    8  O   UNL     1     -10.996   9.318  67.821  1.00  0.00    -0.186 OA 
BRANCH   8   9
HETATM    9  C   UNL     1     -10.151   8.527  68.560  1.00  0.00    -0.194 C  
HETATM   10  O   UNL     1      -9.888   7.380  68.208  1.00  0.00    -0.153 OA 
BRANCH   9  11
HETATM   11  C   UNL     1      -9.575   9.240  69.797  1.00  0.00    -0.203 C  
HETATM   12  C   UNL     1     -10.012   8.598  71.103  1.00  0.00    -0.289 A  
HETATM   13  C   UNL     1     -11.372   8.548  71.461  1.00  0.00    -0.348 A  
HETATM   14  C   UNL     1     -11.788   7.800  72.563  1.00  0.00    -0.354 A  
HETATM   15  C   UNL     1     -10.848   7.139  73.348  1.00  0.00    -0.360 A  
HETATM   16  C   UNL     1      -9.490   7.249  73.044  1.00  0.00    -0.212 A  
HETATM   17  C   UNL     1      -9.075   7.977  71.928  1.00  0.00    -0.156 A  
HETATM   18  O   UNL     1      -7.723   8.020  71.710  1.00  0.00    -0.080 OA 
HETATM   19  C   UNL     1      -7.246   8.777  70.668  1.00  0.00    -0.066 A  
HETATM   20  C   UNL     1      -5.856   8.916  70.609  1.00  0.00    -0.033 A  
HETATM   21  C   UNL     1      -5.265   9.639  69.575  1.00  0.00    -0.035 A  
HETATM   22  C   UNL     1      -6.066  10.226  68.602  1.00  0.00    -0.047 A  
HETATM   23  C   UNL     1      -7.457  10.106  68.671  1.00  0.00    -0.084 A  
HETATM   24  C   UNL     1      -8.066   9.373  69.705  1.00  0.00    -0.123 A  
ENDBRANCH   9  11
ENDBRANCH   8   9
ENDBRANCH   7   8
ENDBRANCH   6   7
ENDBRANCH   4   6
BRANCH   4  25
HETATM   25  C   UNL     1     -11.006  12.988  64.673  1.00  0.00    -0.342 C  
HETATM   26  C   UNL     1     -10.839  12.074  63.460  1.00  0.00    -0.509 C  
HETATM   27  C   UNL     1     -12.508  13.087  64.997  1.00  0.00    -0.534 C  
ENDBRANCH   4  25
ENDBRANCH   2   4
TORSDOF 7
ENDMDL
MODEL      194
REMARK 921   NORMALIZED FREE ENERGY PREDICTED BY IDOCK:   -3.95 KCAL/MOL
REMARK 922        TOTAL FREE ENERGY PREDICTED BY IDOCK:   -6.76 KCAL/MOL
REMARK 923 INTER-LIGAND FREE ENERGY PREDICTED BY IDOCK:   -5.93 KCAL/MOL
REMARK 924 INTRA-LIGAND FREE ENERGY PREDICTED BY IDOCK:   -0.82 KCAL/MOL
REMARK 927      BINDING AFFINITY PREDICTED BY RF-SCORE:    0.00 PKD
ROOT
HETATM    1  C   UNL     1     -11.798  13.811  68.728  1.00  0.00    -0.398 C  
HETATM    2  C   UNL     1     -11.120  15.086  68.214  1.00  0.00    -0.286 C  
HETATM    3  C   UNL     1     -11.338  16.273  69.153  1.00  0.00    -0.291 C  
ENDROOT
BRANCH   2   4
HETATM    4  N   UNL     1      -9.603  14.917  67.793  1.00  0.00    -0.206 N  
HETATM    5  C   UNL     1      -8.709  15.643  68.815  1.00  0.00    -0.197 C  
BRANCH   4   6
HETATM    6  C   UNL     1      -9.229  13.384  67.856  1.00  0.00    -0.216 C  
BRANCH   6   7
HETATM    7  C   UNL     1      -9.161  12.639  66.518  1.00  0.00    -0.162 C  
BRANCH   7   8
HETATM    8  O   UNL     1     -10.342  11.833  66.357  1.00  0.00    -0.212 OA 
BRANCH   8   9
HETATM    9  C   UNL     1     -10.234  10.735  65.538  1.00  0.00    -0.266 C  
HETATM   10  O   UNL     1     -10.334  10.842  64.319  1.00  0.00    -0.344 OA 
BRANCH   9  11
HETATM   11  C   UNL     1      -9.945   9.431  66.304  1.00  0.00    -0.353 C  
HETATM   12  C   UNL     1      -8.578   8.851  65.983  1.00  0.00    -0.162 A  
HETATM   13  C   UNL     1      -8.257   8.442  64.674  1.00  0.00    -0.157 A  
HETATM   14  C   UNL     1      -6.951   8.085  64.344  1.00  0.00    -0.072 A  
HETATM   15  C   UNL     1      -5.962   8.081  65.324  1.00  0.00    -0.045 A  
HETATM   16  C   UNL     1      -6.290   8.409  66.640  1.00  0.00    -0.055 A  
HETATM   17  C   UNL     1      -7.592   8.791  66.967  1.00  0.00    -0.088 A  
HETATM   18  O   UNL     1      -7.813   9.100  68.284  1.00  0.00    -0.100 OA 
HETATM   19  C   UNL     1      -9.088   9.416  68.683  1.00  0.00    -0.132 A  
HETATM   20  C   UNL     1      -9.274   9.551  70.062  1.00  0.00    -0.264 A  
HETATM   21  C   UNL     1     -10.522   9.899  70.573  1.00  0.00    -0.330 A  
HETATM   22  C   UNL     1     -11.587  10.108  69.703  1.00  0.00    -0.216 A  
HETATM   23  C   UNL     1     -11.408   9.954  68.325  1.00  0.00    -0.045 A  
HETATM   24  C   UNL     1     -10.152   9.610  67.796  1.00  0.00    -0.232 A  
ENDBRANCH   9  11
ENDBRANCH   8   9
ENDBRANCH   7   8
ENDBRANCH   6   7
ENDBRANCH   4   6
BRANCH   4  25
HETATM   25  C   UNL     1      -9.262  15.381  66.299  1.00  0.00    -0.319 C  
HETATM   26  C   UNL     1     -10.470  15.876  65.505  1.00  0.00    -0.425 C  
HETATM   27  C   UNL     1      -8.175  16.470  66.249  1.00  0.00    -0.360 C  
ENDBRANCH   4  25
ENDBRANCH   2   4
TORSDOF 7
ENDMDL
MODEL      195
REMARK 921   NORMALIZED FREE ENERGY PREDICTED BY IDOCK:   -3.94 KCAL/MOL
REMARK 922        TOTAL FREE ENERGY PREDICTED BY IDOCK:   -6.73 KCAL/MOL
REMARK 923 INTER-LIGAND FREE ENERGY PREDICTED BY IDOCK:   -5.69 KCAL/MOL
REMARK 924 INTRA-LIGAND FREE ENERGY PREDICTED BY IDOCK:   -1.04 KCAL/MOL
REMARK 927      BINDING AFFINITY PREDICTED BY RF-SCORE:    0.00 PKD
ROOT
HETATM    1  C   UNL     1     -11.182   5.349  72.890  1.00  0.00    -0.372 C  
HETATM    2  C   UNL     1     -11.158   6.882  72.847  1.00  0.00    -0.261 C  
HETATM    3  C   UNL     1      -9.916   7.458  73.525  1.00  0.00    -0.377 C  
ENDROOT
BRANCH   2   4
HETATM    4  N   UNL     1     -11.419   7.517  71.420  1.00  0.00    -0.258 N  
HETATM    5  C   UNL     1     -10.125   8.180  70.916  1.00  0.00    -0.188 C  
BRANCH   4   6
HETATM    6  C   UNL     1     -11.773   6.357  70.408  1.00  0.00    -0.321 C  
BRANCH   6   7
HETATM    7  C   UNL     1     -10.738   6.059  69.317  1.00  0.00    -0.332 C  
BRANCH   7   8
HETATM    8  O   UNL     1     -11.227   6.533  68.050  1.00  0.00    -0.281 OA 
BRANCH   8   9
HETATM    9  C   UNL     1     -10.301   7.084  67.197  1.00  0.00    -0.281 C  
HETATM   10  O   UNL     1     -10.463   8.207  66.727  1.00  0.00    -0.326 OA 
BRANCH   9  11
HETATM   11  C   UNL     1      -9.080   6.178  66.955  1.00  0.00    -0.129 C  
HETATM   12  C   UNL     1      -9.208   5.344  65.691  1.00  0.00    -0.125 A  
HETATM   13  C   UNL     1     -10.245   4.401  65.552  1.00  0.00    -0.260 A  
HETATM   14  C   UNL     1     -10.471   3.773  64.328  1.00  0.00    -0.252 A  
HETATM   15  C   UNL     1      -9.636   4.038  63.247  1.00  0.00    -0.149 A  
HETATM   16  C   UNL     1      -8.560   4.912  63.399  1.00  0.00    -0.128 A  
HETATM   17  C   UNL     1      -8.347   5.560  64.617  1.00  0.00    -0.131 A  
HETATM   18  O   UNL     1      -7.268   6.404  64.666  1.00  0.00    -0.058 OA 
HETATM   19  C   UNL     1      -6.963   7.018  65.856  1.00  0.00    -0.064 A  
HETATM   20  C   UNL     1      -5.757   7.724  65.880  1.00  0.00    -0.037 A  
HETATM   21  C   UNL     1      -5.366   8.410  67.028  1.00  0.00    -0.037 A  
HETATM   22  C   UNL     1      -6.182   8.385  68.154  1.00  0.00    -0.051 A  
HETATM   23  C   UNL     1      -7.378   7.663  68.138  1.00  0.00    -0.099 A  
HETATM   24  C   UNL     1      -7.788   6.972  66.984  1.00  0.00    -0.108 A  
ENDBRANCH   9  11
ENDBRANCH   8   9
ENDBRANCH   7   8
ENDBRANCH   6   7
ENDBRANCH   4   6
BRANCH   4  25
HETATM   25  C   UNL     1     -12.653   8.537  71.352  1.00  0.00    -0.283 C  
HETATM   26  C   UNL     1     -13.990   7.934  71.781  1.00  0.00    -0.483 C  
HETATM   27  C   UNL     1     -12.413   9.813  72.179  1.00  0.00    -0.303 C  
ENDBRANCH   4  25
ENDBRANCH   2   4
TORSDOF 7
ENDMDL
MODEL      196
REMARK 921   NORMALIZED FREE ENERGY PREDICTED BY IDOCK:   -3.91 KCAL/MOL
REMARK 922        TOTAL FREE ENERGY PREDICTED BY IDOCK:   -6.70 KCAL/MOL
REMARK 923 INTER-LIGAND FREE ENERGY PREDICTED BY IDOCK:   -5.72 KCAL/MOL
REMARK 924 INTRA-LIGAND FREE ENERGY PREDICTED BY IDOCK:   -0.97 KCAL/MOL
REMARK 927      BINDING AFFINITY PREDICTED BY RF-SCORE:    0.00 PKD
ROOT
HETATM    1  C   UNL     1     -10.916  15.278  70.843  1.00  0.00    -0.290 C  
HETATM    2  C   UNL     1     -11.847  14.072  70.669  1.00  0.00    -0.239 C  
HETATM    3  C   UNL     1     -13.311  14.490  70.534  1.00  0.00    -0.026 C  
ENDROOT
BRANCH   2   4
HETATM    4  N   UNL     1     -11.406  13.040  69.552  1.00  0.00    -0.200 N  
HETATM    5  C   UNL     1     -12.261  13.261  68.291  1.00  0.00    -0.059 C  
BRANCH   4   6
HETATM    6  C   UNL     1      -9.906  13.334  69.155  1.00  0.00     0.409 C  
BRANCH   6   7
HETATM    7  C   UNL     1      -9.642  13.694  67.689  1.00  0.00    -0.221 C  
BRANCH   7   8
HETATM    8  O   UNL     1      -9.676  15.123  67.531  1.00  0.00    -0.205 OA 
BRANCH   8   9
HETATM    9  C   UNL     1      -9.127  15.631  66.378  1.00  0.00    -0.320 C  
HETATM   10  O   UNL     1      -9.435  15.178  65.278  1.00  0.00    -0.128 OA 
BRANCH   9  11
HETATM   11  C   UNL     1      -8.162  16.803  66.628  1.00  0.00    -0.296 C  
HETATM   12  C   UNL     1      -8.883  18.102  66.945  1.00  0.00    -0.273 A  
HETATM   13  C   UNL     1      -9.747  18.694  66.004  1.00  0.00    -0.140 A  
HETATM   14  C   UNL     1     -10.546  19.779  66.362  1.00  0.00    -0.575 A  
HETATM   15  C   UNL     1     -10.454  20.318  67.642  1.00  0.00    -0.327 A  
HETATM   16  C   UNL     1      -9.543  19.786  68.554  1.00  0.00    -0.434 A  
HETATM   17  C   UNL     1      -8.760  18.684  68.206  1.00  0.00    -0.323 A  
HETATM   18  O   UNL     1      -7.900  18.230  69.171  1.00  0.00    -0.163 OA 
HETATM   19  C   UNL     1      -7.053  17.193  68.867  1.00  0.00    -0.242 A  
HETATM   20  C   UNL     1      -6.088  16.897  69.835  1.00  0.00    -0.190 A  
HETATM   21  C   UNL     1      -5.197  15.844  69.641  1.00  0.00    -0.112 A  
HETATM   22  C   UNL     1      -5.270  15.089  68.474  1.00  0.00    -0.101 A  
HETATM   23  C   UNL     1      -6.220  15.396  67.497  1.00  0.00    -0.120 A  
HETATM   24  C   UNL     1      -7.130  16.452  67.683  1.00  0.00    -0.157 A  
ENDBRANCH   9  11
ENDBRANCH   8   9
ENDBRANCH   7   8
ENDBRANCH   6   7
ENDBRANCH   4   6
BRANCH   4  25
HETATM   25  C   UNL     1     -11.437  11.504  70.005  1.00  0.00    -0.220 C  
HETATM   26  C   UNL     1     -12.610  11.141  70.914  1.00  0.00    -0.483 C  
HETATM   27  C   UNL     1     -11.438  10.533  68.810  1.00  0.00    -0.291 C  
ENDBRANCH   4  25
ENDBRANCH   2   4
TORSDOF 7
ENDMDL
MODEL      197
REMARK 921   NORMALIZED FREE ENERGY PREDICTED BY IDOCK:   -3.89 KCAL/MOL
REMARK 922        TOTAL FREE ENERGY PREDICTED BY IDOCK:   -6.67 KCAL/MOL
REMARK 923 INTER-LIGAND FREE ENERGY PREDICTED BY IDOCK:   -6.39 KCAL/MOL
REMARK 924 INTRA-LIGAND FREE ENERGY PREDICTED BY IDOCK:   -0.28 KCAL/MOL
REMARK 927      BINDING AFFINITY PREDICTED BY RF-SCORE:    0.00 PKD
ROOT
HETATM    1  C   UNL     1     -10.224  12.971  65.703  1.00  0.00    -0.296 C  
HETATM    2  C   UNL     1     -10.630  11.494  65.774  1.00  0.00    -0.263 C  
HETATM    3  C   UNL     1     -10.217  10.723  64.520  1.00  0.00    -0.428 C  
ENDROOT
BRANCH   2   4
HETATM    4  N   UNL     1     -10.217  10.747  67.108  1.00  0.00    -0.204 N  
HETATM    5  C   UNL     1     -11.197  11.135  68.230  1.00  0.00    -0.279 C  
BRANCH   4   6
HETATM    6  C   UNL     1     -10.362   9.191  66.881  1.00  0.00    -0.251 C  
BRANCH   6   7
HETATM    7  C   UNL     1      -9.884   8.284  68.020  1.00  0.00    -0.169 C  
BRANCH   7   8
HETATM    8  O   UNL     1     -11.018   7.657  68.643  1.00  0.00    -0.040 OA 
BRANCH   8   9
HETATM    9  C   UNL     1     -10.824   6.395  69.153  1.00  0.00    -0.322 C  
HETATM   10  O   UNL     1     -10.654   5.432  68.410  1.00  0.00    -0.163 OA 
BRANCH   9  11
HETATM   11  C   UNL     1     -10.808   6.356  70.692  1.00  0.00    -0.331 C  
HETATM   12  C   UNL     1      -9.459   6.740  71.276  1.00  0.00    -0.166 A  
HETATM   13  C   UNL     1      -8.310   5.975  71.000  1.00  0.00    -0.124 A  
HETATM   14  C   UNL     1      -7.048   6.429  71.382  1.00  0.00    -0.077 A  
HETATM   15  C   UNL     1      -6.924   7.623  72.088  1.00  0.00    -0.065 A  
HETATM   16  C   UNL     1      -8.065   8.347  72.433  1.00  0.00    -0.185 A  
HETATM   17  C   UNL     1      -9.327   7.905  72.030  1.00  0.00    -0.162 A  
HETATM   18  O   UNL     1     -10.386   8.687  72.412  1.00  0.00    -0.319 OA 
HETATM   19  C   UNL     1     -11.658   8.271  72.107  1.00  0.00    -0.364 A  
HETATM   20  C   UNL     1     -12.692   9.023  72.674  1.00  0.00    -0.279 A  
HETATM   21  C   UNL     1     -14.021   8.706  72.405  1.00  0.00    -0.435 A  
HETATM   22  C   UNL     1     -14.316   7.633  71.570  1.00  0.00    -0.589 A  
HETATM   23  C   UNL     1     -13.285   6.868  71.019  1.00  0.00    -0.054 A  
HETATM   24  C   UNL     1     -11.938   7.182  71.277  1.00  0.00    -0.374 A  
ENDBRANCH   9  11
ENDBRANCH   8   9
ENDBRANCH   7   8
ENDBRANCH   6   7
ENDBRANCH   4   6
BRANCH   4  25
HETATM   25  C   UNL     1      -8.699  10.974  67.565  1.00  0.00    -0.128 C  
HETATM   26  C   UNL     1      -7.671  10.762  66.455  1.00  0.00    -0.145 C  
HETATM   27  C   UNL     1      -8.466  12.368  68.176  1.00  0.00    -0.180 C  
ENDBRANCH   4  25
ENDBRANCH   2   4
TORSDOF 7
ENDMDL
MODEL      198
REMARK 921   NORMALIZED FREE ENERGY PREDICTED BY IDOCK:   -3.89 KCAL/MOL
REMARK 922        TOTAL FREE ENERGY PREDICTED BY IDOCK:   -6.66 KCAL/MOL
REMARK 923 INTER-LIGAND FREE ENERGY PREDICTED BY IDOCK:   -5.59 KCAL/MOL
REMARK 924 INTRA-LIGAND FREE ENERGY PREDICTED BY IDOCK:   -1.07 KCAL/MOL
REMARK 927      BINDING AFFINITY PREDICTED BY RF-SCORE:    0.00 PKD
ROOT
HETATM    1  C   UNL     1      -9.084  15.441  69.261  1.00  0.00    -0.260 C  
HETATM    2  C   UNL     1     -10.593  15.472  68.992  1.00  0.00    -0.246 C  
HETATM    3  C   UNL     1     -10.975  16.550  67.978  1.00  0.00    -0.320 C  
ENDROOT
BRANCH   2   4
HETATM    4  N   UNL     1     -11.244  14.068  68.658  1.00  0.00    -0.253 N  
HETATM    5  C   UNL     1     -11.945  14.147  67.290  1.00  0.00    -0.414 C  
BRANCH   4   6
HETATM    6  C   UNL     1     -10.093  12.994  68.530  1.00  0.00    -0.192 C  
BRANCH   6   7
HETATM    7  C   UNL     1      -9.872  12.388  67.139  1.00  0.00    -0.205 C  
BRANCH   7   8
HETATM    8  O   UNL     1      -8.467  12.394  66.831  1.00  0.00    -0.190 OA 
BRANCH   8   9
HETATM    9  C   UNL     1      -7.626  11.848  67.771  1.00  0.00    -0.130 C  
HETATM   10  O   UNL     1      -7.104  12.547  68.635  1.00  0.00    -0.091 OA 
BRANCH   9  11
HETATM   11  C   UNL     1      -7.465  10.323  67.633  1.00  0.00    -0.089 C  
HETATM   12  C   UNL     1      -8.505   9.548  68.425  1.00  0.00    -0.119 A  
HETATM   13  C   UNL     1      -8.573   9.661  69.827  1.00  0.00    -0.211 A  
HETATM   14  C   UNL     1      -9.636   9.098  70.531  1.00  0.00    -0.293 A  
HETATM   15  C   UNL     1     -10.613   8.374  69.853  1.00  0.00    -0.228 A  
HETATM   16  C   UNL     1     -10.510   8.192  68.474  1.00  0.00    -0.199 A  
HETATM   17  C   UNL     1      -9.459   8.776  67.764  1.00  0.00    -0.142 A  
HETATM   18  O   UNL     1      -9.447   8.545  66.414  1.00  0.00    -0.197 OA 
HETATM   19  C   UNL     1      -8.402   9.033  65.669  1.00  0.00    -0.132 A  
HETATM   20  C   UNL     1      -8.363   8.616  64.335  1.00  0.00    -0.148 A  
HETATM   21  C   UNL     1      -7.362   9.076  63.483  1.00  0.00    -0.097 A  
HETATM   22  C   UNL     1      -6.395   9.952  63.968  1.00  0.00    -0.126 A  
HETATM   23  C   UNL     1      -6.420  10.353  65.307  1.00  0.00    -0.105 A  
HETATM   24  C   UNL     1      -7.430   9.902  66.176  1.00  0.00    -0.104 A  
ENDBRANCH   9  11
ENDBRANCH   8   9
ENDBRANCH   7   8
ENDBRANCH   6   7
ENDBRANCH   4   6
BRANCH   4  25
HETATM   25  C   UNL     1     -12.236  13.501  69.781  1.00  0.00    -0.269 C  
HETATM   26  C   UNL     1     -11.989  12.040  70.157  1.00  0.00    -0.401 C  
HETATM   27  C   UNL     1     -12.211  14.339  71.072  1.00  0.00    -0.428 C  
ENDBRANCH   4  25
ENDBRANCH   2   4
TORSDOF 7
ENDMDL
MODEL      199
REMARK 921   NORMALIZED FREE ENERGY PREDICTED BY IDOCK:   -3.88 KCAL/MOL
REMARK 922        TOTAL FREE ENERGY PREDICTED BY IDOCK:   -6.65 KCAL/MOL
REMARK 923 INTER-LIGAND FREE ENERGY PREDICTED BY IDOCK:   -5.54 KCAL/MOL
REMARK 924 INTRA-LIGAND FREE ENERGY PREDICTED BY IDOCK:   -1.11 KCAL/MOL
REMARK 927      BINDING AFFINITY PREDICTED BY RF-SCORE:    0.00 PKD
ROOT
HETATM    1  C   UNL     1      -6.639  10.064  69.511  1.00  0.00    -0.055 C  
HETATM    2  C   UNL     1      -7.419   9.297  68.436  1.00  0.00    -0.078 C  
HETATM    3  C   UNL     1      -7.094   7.803  68.445  1.00  0.00    -0.077 C  
ENDROOT
BRANCH   2   4
HETATM    4  N   UNL     1      -8.976   9.578  68.409  1.00  0.00    -0.127 N  
HETATM    5  C   UNL     1      -9.734   8.264  68.670  1.00  0.00    -0.156 C  
BRANCH   4   6
HETATM    6  C   UNL     1      -9.333  10.563  69.591  1.00  0.00     0.023 C  
BRANCH   6   7
HETATM    7  C   UNL     1     -10.797  10.589  70.044  1.00  0.00    -0.259 C  
BRANCH   7   8
HETATM    8  O   UNL     1     -11.183  11.941  70.345  1.00  0.00     0.195 OA 
BRANCH   8   9
HETATM    9  C   UNL     1     -12.499  12.149  70.681  1.00  0.00    -0.242 C  
HETATM   10  O   UNL     1     -13.146  11.285  71.267  1.00  0.00    -0.348 OA 
BRANCH   9  11
HETATM   11  C   UNL     1     -13.017  13.543  70.285  1.00  0.00     0.131 C  
HETATM   12  C   UNL     1     -12.833  14.574  71.387  1.00  0.00    -0.406 A  
HETATM   13  C   UNL     1     -13.474  14.419  72.631  1.00  0.00    -0.605 A  
HETATM   14  C   UNL     1     -13.161  15.261  73.698  1.00  0.00    -0.446 A  
HETATM   15  C   UNL     1     -12.247  16.296  73.522  1.00  0.00    -0.612 A  
HETATM   16  C   UNL     1     -11.667  16.503  72.270  1.00  0.00    -0.348 A  
HETATM   17  C   UNL     1     -11.961  15.646  71.208  1.00  0.00    -0.415 A  
HETATM   18  O   UNL     1     -11.337  15.928  70.020  1.00  0.00    -0.305 OA 
HETATM   19  C   UNL     1     -11.638  15.165  68.919  1.00  0.00    -0.341 A  
HETATM   20  C   UNL     1     -11.100  15.613  67.709  1.00  0.00    -0.311 A  
HETATM   21  C   UNL     1     -11.318  14.896  66.534  1.00  0.00    -0.319 A  
HETATM   22  C   UNL     1     -12.078  13.731  66.571  1.00  0.00    -0.483 A  
HETATM   23  C   UNL     1     -12.633  13.292  67.777  1.00  0.00     0.643 A  
HETATM   24  C   UNL     1     -12.415  14.003  68.971  1.00  0.00     0.065 A  
ENDBRANCH   9  11
ENDBRANCH   8   9
ENDBRANCH   7   8
ENDBRANCH   6   7
ENDBRANCH   4   6
BRANCH   4  25
HETATM   25  C   UNL     1      -9.509  10.294  67.078  1.00  0.00    -0.163 C  
HETATM   26  C   UNL     1      -8.731  11.550  66.688  1.00  0.00    -0.182 C  
HETATM   27  C   UNL     1      -9.532   9.348  65.864  1.00  0.00    -0.315 C  
ENDBRANCH   4  25
ENDBRANCH   2   4
TORSDOF 7
ENDMDL
MODEL      200
REMARK 921   NORMALIZED FREE ENERGY PREDICTED BY IDOCK:   -3.87 KCAL/MOL
REMARK 922        TOTAL FREE ENERGY PREDICTED BY IDOCK:   -6.64 KCAL/MOL
REMARK 923 INTER-LIGAND FREE ENERGY PREDICTED BY IDOCK:   -5.68 KCAL/MOL
REMARK 924 INTRA-LIGAND FREE ENERGY PREDICTED BY IDOCK:   -0.96 KCAL/MOL
REMARK 927      BINDING AFFINITY PREDICTED BY RF-SCORE:    0.00 PKD
ROOT
HETATM    1  C   UNL     1      -7.948   4.413  65.513  1.00  0.00    -0.094 C  
HETATM    2  C   UNL     1      -9.126   5.380  65.681  1.00  0.00    -0.140 C  
HETATM    3  C   UNL     1     -10.472   4.655  65.677  1.00  0.00    -0.260 C  
ENDROOT
BRANCH   2   4
HETATM    4  N   UNL     1      -8.991   6.400  66.884  1.00  0.00    -0.121 N  
HETATM    5  C   UNL     1      -7.856   7.395  66.580  1.00  0.00    -0.109 C  
BRANCH   4   6
HETATM    6  C   UNL     1     -10.327   7.237  66.990  1.00  0.00    -0.306 C  
BRANCH   6   7
HETATM    7  C   UNL     1     -10.189   8.697  67.436  1.00  0.00    -0.262 C  
BRANCH   7   8
HETATM    8  O   UNL     1     -10.622   8.824  68.801  1.00  0.00    -0.211 OA 
BRANCH   8   9
HETATM    9  C   UNL     1      -9.801   9.530  69.648  1.00  0.00    -0.205 C  
HETATM   10  O   UNL     1      -9.026  10.378  69.214  1.00  0.00    -0.176 OA 
BRANCH   9  11
HETATM   11  C   UNL     1      -9.999   9.169  71.131  1.00  0.00    -0.377 C  
HETATM   12  C   UNL     1     -11.458   9.203  71.555  1.00  0.00    -0.437 A  
HETATM   13  C   UNL     1     -12.198  10.398  71.493  1.00  0.00    -0.418 A  
HETATM   14  C   UNL     1     -13.577  10.390  71.705  1.00  0.00    -0.246 A  
HETATM   15  C   UNL     1     -14.222   9.200  72.031  1.00  0.00    -0.319 A  
HETATM   16  C   UNL     1     -13.482   8.025  72.170  1.00  0.00    -0.209 A  
HETATM   17  C   UNL     1     -12.106   8.028  71.935  1.00  0.00    -0.317 A  
HETATM   18  O   UNL     1     -11.469   6.825  72.091  1.00  0.00    -0.262 OA 
HETATM   19  C   UNL     1     -10.105   6.776  71.942  1.00  0.00    -0.180 A  
HETATM   20  C   UNL     1      -9.503   5.561  72.283  1.00  0.00    -0.163 A  
HETATM   21  C   UNL     1      -8.128   5.393  72.141  1.00  0.00    -0.111 A  
HETATM   22  C   UNL     1      -7.353   6.443  71.659  1.00  0.00    -0.088 A  
HETATM   23  C   UNL     1      -7.950   7.665  71.337  1.00  0.00    -0.094 A  
HETATM   24  C   UNL     1      -9.338   7.846  71.469  1.00  0.00    -0.179 A  
ENDBRANCH   9  11
ENDBRANCH   8   9
ENDBRANCH   7   8
ENDBRANCH   6   7
ENDBRANCH   4   6
BRANCH   4  25
HETATM   25  C   UNL     1      -8.793   5.724  68.322  1.00  0.00    -0.109 C  
HETATM   26  C   UNL     1      -9.883   4.721  68.699  1.00  0.00    -0.208 C  
HETATM   27  C   UNL     1      -7.429   5.027  68.468  1.00  0.00    -0.074 C  
ENDBRANCH   4  25
ENDBRANCH   2   4
TORSDOF 7
ENDMDL
MODEL      201
REMARK 921   NORMALIZED FREE ENERGY PREDICTED BY IDOCK:   -3.86 KCAL/MOL
REMARK 922        TOTAL FREE ENERGY PREDICTED BY IDOCK:   -6.63 KCAL/MOL
REMARK 923 INTER-LIGAND FREE ENERGY PREDICTED BY IDOCK:   -6.20 KCAL/MOL
REMARK 924 INTRA-LIGAND FREE ENERGY PREDICTED BY IDOCK:   -0.43 KCAL/MOL
REMARK 927      BINDING AFFINITY PREDICTED BY RF-SCORE:    0.00 PKD
ROOT
HETATM    1  C   UNL     1      -8.719  13.549  66.754  1.00  0.00    -0.100 C  
HETATM    2  C   UNL     1     -10.018  13.779  65.973  1.00  0.00    -0.306 C  
HETATM    3  C   UNL     1      -9.952  15.035  65.104  1.00  0.00    -0.269 C  
ENDROOT
BRANCH   2   4
HETATM    4  N   UNL     1     -10.556  12.520  65.179  1.00  0.00    -0.285 N  
HETATM    5  C   UNL     1      -9.965  12.526  63.757  1.00  0.00    -0.128 C  
BRANCH   4   6
HETATM    6  C   UNL     1     -10.034  11.211  65.894  1.00  0.00    -0.239 C  
BRANCH   6   7
HETATM    7  C   UNL     1     -10.991  10.014  65.917  1.00  0.00     0.601 C  
BRANCH   7   8
HETATM    8  O   UNL     1     -11.220   9.609  67.278  1.00  0.00    -0.035 OA 
BRANCH   8   9
HETATM    9  C   UNL     1     -10.226   8.875  67.880  1.00  0.00    -0.222 C  
HETATM   10  O   UNL     1      -9.560   8.067  67.239  1.00  0.00    -0.146 OA 
BRANCH   9  11
HETATM   11  C   UNL     1     -10.038   9.211  69.371  1.00  0.00    -0.198 C  
HETATM   12  C   UNL     1     -10.788  10.464  69.791  1.00  0.00    -0.342 A  
HETATM   13  C   UNL     1     -10.481  11.713  69.218  1.00  0.00    -0.025 A  
HETATM   14  C   UNL     1     -11.288  12.823  69.465  1.00  0.00    -0.223 A  
HETATM   15  C   UNL     1     -12.377  12.713  70.326  1.00  0.00    -0.269 A  
HETATM   16  C   UNL     1     -12.641  11.498  70.958  1.00  0.00    -0.457 A  
HETATM   17  C   UNL     1     -11.848  10.379  70.692  1.00  0.00    -0.350 A  
HETATM   18  O   UNL     1     -12.191   9.231  71.356  1.00  0.00    -0.311 OA 
HETATM   19  C   UNL     1     -11.409   8.114  71.191  1.00  0.00    -0.269 A  
HETATM   20  C   UNL     1     -11.713   7.035  72.027  1.00  0.00    -0.332 A  
HETATM   21  C   UNL     1     -11.000   5.843  71.922  1.00  0.00    -0.321 A  
HETATM   22  C   UNL     1      -9.981   5.731  70.982  1.00  0.00    -0.243 A  
HETATM   23  C   UNL     1      -9.662   6.816  70.161  1.00  0.00    -0.175 A  
HETATM   24  C   UNL     1     -10.378   8.023  70.251  1.00  0.00    -0.212 A  
ENDBRANCH   9  11
ENDBRANCH   8   9
ENDBRANCH   7   8
ENDBRANCH   6   7
ENDBRANCH   4   6
BRANCH   4  25
HETATM   25  C   UNL     1     -12.151  12.379  65.139  1.00  0.00    -0.405 C  
HETATM   26  C   UNL     1     -12.902  13.601  65.665  1.00  0.00    -0.425 C  
HETATM   27  C   UNL     1     -12.683  12.059  63.730  1.00  0.00    -0.516 C  
ENDBRANCH   4  25
ENDBRANCH   2   4
TORSDOF 7
ENDMDL
MODEL      202
REMARK 921   NORMALIZED FREE ENERGY PREDICTED BY IDOCK:   -3.84 KCAL/MOL
REMARK 922        TOTAL FREE ENERGY PREDICTED BY IDOCK:   -6.60 KCAL/MOL
REMARK 923 INTER-LIGAND FREE ENERGY PREDICTED BY IDOCK:   -5.29 KCAL/MOL
REMARK 924 INTRA-LIGAND FREE ENERGY PREDICTED BY IDOCK:   -1.31 KCAL/MOL
REMARK 927      BINDING AFFINITY PREDICTED BY RF-SCORE:    0.00 PKD
ROOT
HETATM    1  C   UNL     1     -10.162  19.740  65.496  1.00  0.00    -0.189 C  
HETATM    2  C   UNL     1      -9.596  19.440  66.888  1.00  0.00    -0.339 C  
HETATM    3  C   UNL     1     -10.299  20.245  67.981  1.00  0.00    -0.382 C  
ENDROOT
BRANCH   2   4
HETATM    4  N   UNL     1      -9.480  17.902  67.249  1.00  0.00    -0.259 N  
HETATM    5  C   UNL     1     -10.469  17.570  68.380  1.00  0.00    -0.372 C  
BRANCH   4   6
HETATM    6  C   UNL     1      -9.911  17.053  65.989  1.00  0.00    -0.269 C  
BRANCH   6   7
HETATM    7  C   UNL     1     -11.225  16.272  66.105  1.00  0.00     0.284 C  
BRANCH   7   8
HETATM    8  O   UNL     1     -11.063  14.970  65.516  1.00  0.00    -0.336 OA 
BRANCH   8   9
HETATM    9  C   UNL     1     -12.116  14.097  65.647  1.00  0.00    -0.415 C  
HETATM   10  O   UNL     1     -13.109  14.191  64.931  1.00  0.00    -0.677 OA 
BRANCH   9  11
HETATM   11  C   UNL     1     -11.884  13.020  66.722  1.00  0.00    -0.451 C  
HETATM   12  C   UNL     1     -10.765  12.058  66.359  1.00  0.00    -0.294 A  
HETATM   13  C   UNL     1     -10.859  11.244  65.214  1.00  0.00    -0.261 A  
HETATM   14  C   UNL     1      -9.761  10.501  64.782  1.00  0.00    -0.365 A  
HETATM   15  C   UNL     1      -8.577  10.521  65.514  1.00  0.00    -0.187 A  
HETATM   16  C   UNL     1      -8.503  11.263  66.692  1.00  0.00    -0.168 A  
HETATM   17  C   UNL     1      -9.593  12.027  67.113  1.00  0.00    -0.192 A  
HETATM   18  O   UNL     1      -9.421  12.727  68.279  1.00  0.00    -0.214 OA 
HETATM   19  C   UNL     1     -10.479  13.441  68.783  1.00  0.00    -0.186 A  
HETATM   20  C   UNL     1     -10.288  13.987  70.056  1.00  0.00     0.810 A  
HETATM   21  C   UNL     1     -11.287  14.755  70.649  1.00  0.00    -0.234 A  
HETATM   22  C   UNL     1     -12.480  14.976  69.968  1.00  0.00    -0.317 A  
HETATM   23  C   UNL     1     -12.680  14.414  68.704  1.00  0.00     0.722 A  
HETATM   24  C   UNL     1     -11.677  13.642  68.091  1.00  0.00    -0.392 A  
ENDBRANCH   9  11
ENDBRANCH   8   9
ENDBRANCH   7   8
ENDBRANCH   6   7
ENDBRANCH   4   6
BRANCH   4  25
HETATM   25  C   UNL     1      -8.001  17.406  67.614  1.00  0.00    -0.193 C  
HETATM   26  C   UNL     1      -7.893  15.907  67.893  1.00  0.00    -0.148 C  
HETATM   27  C   UNL     1      -6.970  17.767  66.530  1.00  0.00    -0.265 C  
ENDBRANCH   4  25
ENDBRANCH   2   4
TORSDOF 7
ENDMDL
MODEL      203
REMARK 921   NORMALIZED FREE ENERGY PREDICTED BY IDOCK:   -3.84 KCAL/MOL
REMARK 922        TOTAL FREE ENERGY PREDICTED BY IDOCK:   -6.60 KCAL/MOL
REMARK 923 INTER-LIGAND FREE ENERGY PREDICTED BY IDOCK:   -5.30 KCAL/MOL
REMARK 924 INTRA-LIGAND FREE ENERGY PREDICTED BY IDOCK:   -1.30 KCAL/MOL
REMARK 927      BINDING AFFINITY PREDICTED BY RF-SCORE:    0.00 PKD
ROOT
HETATM    1  C   UNL     1     -13.042   8.482  72.450  1.00  0.00    -0.338 C  
HETATM    2  C   UNL     1     -11.873   8.477  71.457  1.00  0.00    -0.299 C  
HETATM    3  C   UNL     1     -11.434   9.891  71.077  1.00  0.00    -0.466 C  
ENDROOT
BRANCH   2   4
HETATM    4  N   UNL     1     -10.654   7.551  71.860  1.00  0.00    -0.209 N  
HETATM    5  C   UNL     1     -10.980   6.828  73.179  1.00  0.00    -0.246 C  
BRANCH   4   6
HETATM    6  C   UNL     1     -10.475   6.439  70.752  1.00  0.00    -0.222 C  
BRANCH   6   7
HETATM    7  C   UNL     1     -11.414   6.518  69.543  1.00  0.00    -0.319 C  
BRANCH   7   8
HETATM    8  O   UNL     1     -10.832   7.366  68.538  1.00  0.00    -0.143 OA 
BRANCH   8   9
HETATM    9  C   UNL     1     -10.387   6.751  67.393  1.00  0.00    -0.223 C  
HETATM   10  O   UNL     1     -11.134   6.040  66.725  1.00  0.00    -0.291 OA 
BRANCH   9  11
HETATM   11  C   UNL     1      -8.924   7.084  67.051  1.00  0.00    -0.130 C  
HETATM   12  C   UNL     1      -8.049   5.847  66.939  1.00  0.00    -0.102 A  
HETATM   13  C   UNL     1      -7.855   4.999  68.045  1.00  0.00    -0.087 A  
HETATM   14  C   UNL     1      -7.208   3.773  67.893  1.00  0.00    -0.059 A  
HETATM   15  C   UNL     1      -6.703   3.404  66.650  1.00  0.00    -0.049 A  
HETATM   16  C   UNL     1      -6.823   4.274  65.566  1.00  0.00    -0.057 A  
HETATM   17  C   UNL     1      -7.492   5.491  65.712  1.00  0.00    -0.081 A  
HETATM   18  O   UNL     1      -7.563   6.273  64.589  1.00  0.00    -0.084 OA 
HETATM   19  C   UNL     1      -8.147   7.512  64.683  1.00  0.00    -0.101 A  
HETATM   20  C   UNL     1      -8.031   8.323  63.550  1.00  0.00    -0.154 A  
HETATM   21  C   UNL     1      -8.613   9.588  63.527  1.00  0.00    -0.221 A  
HETATM   22  C   UNL     1      -9.309  10.044  64.642  1.00  0.00    -0.338 A  
HETATM   23  C   UNL     1      -9.408   9.243  65.784  1.00  0.00    -0.306 A  
HETATM   24  C   UNL     1      -8.831   7.961  65.817  1.00  0.00    -0.155 A  
ENDBRANCH   9  11
ENDBRANCH   8   9
ENDBRANCH   7   8
ENDBRANCH   6   7
ENDBRANCH   4   6
BRANCH   4  25
HETATM   25  C   UNL     1      -9.240   8.299  71.949  1.00  0.00    -0.208 C  
HETATM   26  C   UNL     1      -8.542   8.163  73.301  1.00  0.00    -0.308 C  
HETATM   27  C   UNL     1      -8.259   7.843  70.854  1.00  0.00    -0.103 C  
ENDBRANCH   4  25
ENDBRANCH   2   4
TORSDOF 7
ENDMDL
MODEL      204
REMARK 921   NORMALIZED FREE ENERGY PREDICTED BY IDOCK:   -3.84 KCAL/MOL
REMARK 922        TOTAL FREE ENERGY PREDICTED BY IDOCK:   -6.59 KCAL/MOL
REMARK 923 INTER-LIGAND FREE ENERGY PREDICTED BY IDOCK:   -5.82 KCAL/MOL
REMARK 924 INTRA-LIGAND FREE ENERGY PREDICTED BY IDOCK:   -0.78 KCAL/MOL
REMARK 927      BINDING AFFINITY PREDICTED BY RF-SCORE:    0.00 PKD
ROOT
HETATM    1  C   UNL     1     -10.113   9.470  65.397  1.00  0.00     0.025 C  
HETATM    2  C   UNL     1      -8.841   8.819  65.952  1.00  0.00    -0.186 C  
HETATM    3  C   UNL     1      -7.623   9.092  65.069  1.00  0.00    -0.103 C  
ENDROOT
BRANCH   2   4
HETATM    4  N   UNL     1      -8.555   9.103  67.483  1.00  0.00    -0.116 N  
HETATM    5  C   UNL     1      -7.035   9.178  67.710  1.00  0.00    -0.078 C  
BRANCH   4   6
HETATM    6  C   UNL     1      -9.152  10.517  67.855  1.00  0.00    -0.136 C  
BRANCH   6   7
HETATM    7  C   UNL     1      -8.148  11.666  68.011  1.00  0.00    -0.139 C  
BRANCH   7   8
HETATM    8  O   UNL     1      -8.849  12.921  67.993  1.00  0.00    -0.180 OA 
BRANCH   8   9
HETATM    9  C   UNL     1      -9.716  13.130  66.948  1.00  0.00    -0.243 C  
HETATM   10  O   UNL     1      -9.486  12.668  65.833  1.00  0.00    -0.202 OA 
BRANCH   9  11
HETATM   11  C   UNL     1     -10.964  13.939  67.344  1.00  0.00    -0.299 C  
HETATM   12  C   UNL     1     -11.579  13.469  68.652  1.00  0.00    -0.365 A  
HETATM   13  C   UNL     1     -12.083  12.161  68.782  1.00  0.00    -0.166 A  
HETATM   14  C   UNL     1     -12.476  11.674  70.028  1.00  0.00    -0.166 A  
HETATM   15  C   UNL     1     -12.419  12.501  71.147  1.00  0.00    -0.322 A  
HETATM   16  C   UNL     1     -11.994  13.822  71.011  1.00  0.00    -0.206 A  
HETATM   17  C   UNL     1     -11.578  14.304  69.768  1.00  0.00    -0.293 A  
HETATM   18  O   UNL     1     -11.172  15.613  69.738  1.00  0.00    -0.268 OA 
HETATM   19  C   UNL     1     -10.817  16.166  68.533  1.00  0.00    -0.313 A  
HETATM   20  C   UNL     1     -10.581  17.544  68.547  1.00  0.00    -0.312 A  
HETATM   21  C   UNL     1     -10.186  18.202  67.384  1.00  0.00    -0.383 A  
HETATM   22  C   UNL     1     -10.029  17.480  66.206  1.00  0.00    -0.316 A  
HETATM   23  C   UNL     1     -10.284  16.106  66.185  1.00  0.00    -0.351 A  
HETATM   24  C   UNL     1     -10.677  15.428  67.353  1.00  0.00    -0.296 A  
ENDBRANCH   9  11
ENDBRANCH   8   9
ENDBRANCH   7   8
ENDBRANCH   6   7
ENDBRANCH   4   6
BRANCH   4  25
HETATM   25  C   UNL     1      -9.238   8.069  68.499  1.00  0.00    -0.135 C  
HETATM   26  C   UNL     1      -8.692   6.645  68.406  1.00  0.00    -0.122 C  
HETATM   27  C   UNL     1      -9.139   8.526  69.965  1.00  0.00    -0.147 C  
ENDBRANCH   4  25
ENDBRANCH   2   4
TORSDOF 7
ENDMDL
MODEL      205
REMARK 921   NORMALIZED FREE ENERGY PREDICTED BY IDOCK:   -3.83 KCAL/MOL
REMARK 922        TOTAL FREE ENERGY PREDICTED BY IDOCK:   -6.59 KCAL/MOL
REMARK 923 INTER-LIGAND FREE ENERGY PREDICTED BY IDOCK:   -5.69 KCAL/MOL
REMARK 924 INTRA-LIGAND FREE ENERGY PREDICTED BY IDOCK:   -0.90 KCAL/MOL
REMARK 927      BINDING AFFINITY PREDICTED BY RF-SCORE:    0.00 PKD
ROOT
HETATM    1  C   UNL     1     -10.621  17.499  66.929  1.00  0.00    -0.219 C  
HETATM    2  C   UNL     1     -10.254  16.086  66.462  1.00  0.00    -0.293 C  
HETATM    3  C   UNL     1      -8.753  15.933  66.214  1.00  0.00    -0.372 C  
ENDROOT
BRANCH   2   4
HETATM    4  N   UNL     1     -10.845  14.912  67.345  1.00  0.00    -0.296 N  
HETATM    5  C   UNL     1     -12.148  14.402  66.704  1.00  0.00    -0.367 C  
BRANCH   4   6
HETATM    6  C   UNL     1      -9.821  13.709  67.337  1.00  0.00    -0.234 C  
BRANCH   6   7
HETATM    7  C   UNL     1     -10.264  12.436  66.607  1.00  0.00    -0.224 C  
BRANCH   7   8
HETATM    8  O   UNL     1      -9.118  11.798  66.016  1.00  0.00    -0.212 OA 
BRANCH   8   9
HETATM    9  C   UNL     1      -9.328  10.578  65.420  1.00  0.00    -0.211 C  
HETATM   10  O   UNL     1     -10.163  10.446  64.528  1.00  0.00    -0.342 OA 
BRANCH   9  11
HETATM   11  C   UNL     1      -8.404   9.470  65.955  1.00  0.00    -0.123 C  
HETATM   12  C   UNL     1      -9.144   8.441  66.793  1.00  0.00    -0.192 A  
HETATM   13  C   UNL     1      -9.795   8.814  67.984  1.00  0.00    -0.201 A  
HETATM   14  C   UNL     1     -10.624   7.913  68.651  1.00  0.00    -0.145 A  
HETATM   15  C   UNL     1     -10.771   6.616  68.167  1.00  0.00    -0.320 A  
HETATM   16  C   UNL     1     -10.068   6.216  67.030  1.00  0.00    -0.222 A  
HETATM   17  C   UNL     1      -9.257   7.124  66.348  1.00  0.00    -0.157 A  
HETATM   18  O   UNL     1      -8.613   6.638  65.240  1.00  0.00    -0.119 OA 
HETATM   19  C   UNL     1      -7.747   7.462  64.566  1.00  0.00    -0.126 A  
HETATM   20  C   UNL     1      -6.997   6.853  63.555  1.00  0.00    -0.057 A  
HETATM   21  C   UNL     1      -6.109   7.604  62.788  1.00  0.00    -0.063 A  
HETATM   22  C   UNL     1      -5.969   8.966  63.035  1.00  0.00    -0.089 A  
HETATM   23  C   UNL     1      -6.702   9.572  64.059  1.00  0.00    -0.102 A  
HETATM   24  C   UNL     1      -7.607   8.827  64.836  1.00  0.00    -0.099 A  
ENDBRANCH   9  11
ENDBRANCH   8   9
ENDBRANCH   7   8
ENDBRANCH   6   7
ENDBRANCH   4   6
BRANCH   4  25
HETATM   25  C   UNL     1     -11.067  15.276  68.889  1.00  0.00    -0.266 C  
HETATM   26  C   UNL     1     -12.009  14.326  69.628  1.00  0.00    -0.387 C  
HETATM   27  C   UNL     1      -9.746  15.352  69.676  1.00  0.00    -0.251 C  
ENDBRANCH   4  25
ENDBRANCH   2   4
TORSDOF 7
ENDMDL
MODEL      206
REMARK 921   NORMALIZED FREE ENERGY PREDICTED BY IDOCK:   -3.82 KCAL/MOL
REMARK 922        TOTAL FREE ENERGY PREDICTED BY IDOCK:   -6.56 KCAL/MOL
REMARK 923 INTER-LIGAND FREE ENERGY PREDICTED BY IDOCK:   -4.97 KCAL/MOL
REMARK 924 INTRA-LIGAND FREE ENERGY PREDICTED BY IDOCK:   -1.59 KCAL/MOL
REMARK 927      BINDING AFFINITY PREDICTED BY RF-SCORE:    0.00 PKD
ROOT
HETATM    1  C   UNL     1      -5.486   9.700  67.336  1.00  0.00    -0.036 C  
HETATM    2  C   UNL     1      -6.508   9.096  66.365  1.00  0.00    -0.066 C  
HETATM    3  C   UNL     1      -6.331   7.585  66.210  1.00  0.00    -0.042 C  
ENDROOT
BRANCH   2   4
HETATM    4  N   UNL     1      -8.013   9.506  66.634  1.00  0.00    -0.108 N  
HETATM    5  C   UNL     1      -8.800   9.443  65.312  1.00  0.00    -0.190 C  
BRANCH   4   6
HETATM    6  C   UNL     1      -8.659   8.445  67.610  1.00  0.00    -0.130 C  
BRANCH   6   7
HETATM    7  C   UNL     1     -10.034   7.895  67.214  1.00  0.00    -0.215 C  
BRANCH   7   8
HETATM    8  O   UNL     1     -10.856   7.768  68.387  1.00  0.00    -0.085 OA 
BRANCH   8   9
HETATM    9  C   UNL     1     -10.884   6.535  68.992  1.00  0.00    -0.306 C  
HETATM   10  O   UNL     1     -10.933   5.504  68.326  1.00  0.00    -0.096 OA 
BRANCH   9  11
HETATM   11  C   UNL     1     -10.807   6.608  70.528  1.00  0.00    -0.310 C  
HETATM   12  C   UNL     1      -9.494   7.188  71.025  1.00  0.00    -0.159 A  
HETATM   13  C   UNL     1      -8.272   6.544  70.749  1.00  0.00    -0.125 A  
HETATM   14  C   UNL     1      -7.061   7.168  71.043  1.00  0.00    -0.069 A  
HETATM   15  C   UNL     1      -7.054   8.415  71.662  1.00  0.00    -0.093 A  
HETATM   16  C   UNL     1      -8.260   9.024  72.008  1.00  0.00     0.222 A  
HETATM   17  C   UNL     1      -9.474   8.411  71.692  1.00  0.00    -0.214 A  
HETATM   18  O   UNL     1     -10.604   9.090  72.068  1.00  0.00    -0.345 OA 
HETATM   19  C   UNL     1     -11.828   8.508  71.848  1.00  0.00    -0.341 A  
HETATM   20  C   UNL     1     -12.922   9.173  72.409  1.00  0.00    -0.468 A  
HETATM   21  C   UNL     1     -14.213   8.685  72.221  1.00  0.00    -0.497 A  
HETATM   22  C   UNL     1     -14.409   7.528  71.474  1.00  0.00    -0.603 A  
HETATM   23  C   UNL     1     -13.314   6.850  70.930  1.00  0.00     0.148 A  
HETATM   24  C   UNL     1     -12.006   7.336  71.106  1.00  0.00    -0.363 A  
ENDBRANCH   9  11
ENDBRANCH   8   9
ENDBRANCH   7   8
ENDBRANCH   6   7
ENDBRANCH   4   6
BRANCH   4  25
HETATM   25  C   UNL     1      -8.208  10.924  67.352  1.00  0.00    -0.117 C  
HETATM   26  C   UNL     1      -9.160  11.871  66.624  1.00  0.00    -0.203 C  
HETATM   27  C   UNL     1      -8.686  10.790  68.810  1.00  0.00    -0.163 C  
ENDBRANCH   4  25
ENDBRANCH   2   4
TORSDOF 7
ENDMDL
MODEL      207
REMARK 921   NORMALIZED FREE ENERGY PREDICTED BY IDOCK:   -3.81 KCAL/MOL
REMARK 922        TOTAL FREE ENERGY PREDICTED BY IDOCK:   -6.56 KCAL/MOL
REMARK 923 INTER-LIGAND FREE ENERGY PREDICTED BY IDOCK:   -5.17 KCAL/MOL
REMARK 924 INTRA-LIGAND FREE ENERGY PREDICTED BY IDOCK:   -1.39 KCAL/MOL
REMARK 927      BINDING AFFINITY PREDICTED BY RF-SCORE:    0.00 PKD
ROOT
HETATM    1  C   UNL     1     -10.477  12.866  65.897  1.00  0.00    -0.294 C  
HETATM    2  C   UNL     1      -9.477  12.718  67.049  1.00  0.00    -0.233 C  
HETATM    3  C   UNL     1      -9.706  13.756  68.148  1.00  0.00    -0.227 C  
ENDROOT
BRANCH   2   4
HETATM    4  N   UNL     1      -9.328  11.250  67.624  1.00  0.00    -0.158 N  
HETATM    5  C   UNL     1     -10.213  11.103  68.875  1.00  0.00    -0.194 C  
BRANCH   4   6
HETATM    6  C   UNL     1      -9.870  10.228  66.548  1.00  0.00    -0.212 C  
BRANCH   6   7
HETATM    7  C   UNL     1     -10.760   9.093  67.067  1.00  0.00    -0.118 C  
BRANCH   7   8
HETATM    8  O   UNL     1      -9.935   8.048  67.612  1.00  0.00    -0.157 OA 
BRANCH   8   9
HETATM    9  C   UNL     1     -10.562   6.867  67.929  1.00  0.00    -0.231 C  
HETATM   10  O   UNL     1     -11.373   6.356  67.161  1.00  0.00    -0.308 OA 
BRANCH   9  11
HETATM   11  C   UNL     1     -10.111   6.280  69.278  1.00  0.00    -0.213 C  
HETATM   12  C   UNL     1      -8.598   6.218  69.416  1.00  0.00    -0.125 A  
HETATM   13  C   UNL     1      -7.827   5.435  68.537  1.00  0.00    -0.088 A  
HETATM   14  C   UNL     1      -6.435   5.523  68.547  1.00  0.00    -0.043 A  
HETATM   15  C   UNL     1      -5.798   6.352  69.466  1.00  0.00    -0.018 A  
HETATM   16  C   UNL     1      -6.554   7.072  70.392  1.00  0.00    -0.051 A  
HETATM   17  C   UNL     1      -7.948   7.003  70.367  1.00  0.00    -0.113 A  
HETATM   18  O   UNL     1      -8.601   7.750  71.311  1.00  0.00    -0.116 OA 
HETATM   19  C   UNL     1      -9.970   7.672  71.385  1.00  0.00    -0.181 A  
HETATM   20  C   UNL     1     -10.555   8.322  72.476  1.00  0.00    -0.407 A  
HETATM   21  C   UNL     1     -11.940   8.330  72.630  1.00  0.00    -0.360 A  
HETATM   22  C   UNL     1     -12.739   7.684  71.692  1.00  0.00    -0.368 A  
HETATM   23  C   UNL     1     -12.155   7.017  70.612  1.00  0.00    -0.332 A  
HETATM   24  C   UNL     1     -10.759   7.006  70.441  1.00  0.00    -0.259 A  
ENDBRANCH   9  11
ENDBRANCH   8   9
ENDBRANCH   7   8
ENDBRANCH   6   7
ENDBRANCH   4   6
BRANCH   4  25
HETATM   25  C   UNL     1      -7.823  10.794  67.927  1.00  0.00    -0.109 C  
HETATM   26  C   UNL     1      -6.757  11.742  67.377  1.00  0.00    -0.120 C  
HETATM   27  C   UNL     1      -7.555  10.593  69.430  1.00  0.00    -0.135 C  
ENDBRANCH   4  25
ENDBRANCH   2   4
TORSDOF 7
ENDMDL
MODEL      208
REMARK 921   NORMALIZED FREE ENERGY PREDICTED BY IDOCK:   -3.81 KCAL/MOL
REMARK 922        TOTAL FREE ENERGY PREDICTED BY IDOCK:   -6.56 KCAL/MOL
REMARK 923 INTER-LIGAND FREE ENERGY PREDICTED BY IDOCK:   -6.18 KCAL/MOL
REMARK 924 INTRA-LIGAND FREE ENERGY PREDICTED BY IDOCK:   -0.37 KCAL/MOL
REMARK 927      BINDING AFFINITY PREDICTED BY RF-SCORE:    0.00 PKD
ROOT
HETATM    1  C   UNL     1      -7.520   8.672  71.548  1.00  0.00    -0.124 C  
HETATM    2  C   UNL     1      -8.442   7.507  71.170  1.00  0.00    -0.117 C  
HETATM    3  C   UNL     1      -7.934   6.171  71.714  1.00  0.00    -0.103 C  
ENDROOT
BRANCH   2   4
HETATM    4  N   UNL     1      -9.978   7.740  71.473  1.00  0.00    -0.170 N  
HETATM    5  C   UNL     1     -10.220   7.618  72.989  1.00  0.00    -0.320 C  
BRANCH   4   6
HETATM    6  C   UNL     1     -10.356   9.217  71.059  1.00  0.00    -0.293 C  
BRANCH   6   7
HETATM    7  C   UNL     1     -10.224   9.568  69.573  1.00  0.00    -0.213 C  
BRANCH   7   8
HETATM    8  O   UNL     1     -10.396  10.985  69.398  1.00  0.00    -0.196 OA 
BRANCH   8   9
HETATM    9  C   UNL     1     -11.064  11.392  68.268  1.00  0.00    -0.244 C  
HETATM   10  O   UNL     1     -12.154  10.910  67.970  1.00  0.00    -0.563 OA 
BRANCH   9  11
HETATM   11  C   UNL     1     -10.329  12.499  67.491  1.00  0.00    -0.225 C  
HETATM   12  C   UNL     1     -10.492  13.870  68.124  1.00  0.00    -0.246 A  
HETATM   13  C   UNL     1     -11.765  14.460  68.246  1.00  0.00    -0.376 A  
HETATM   14  C   UNL     1     -11.935  15.628  68.989  1.00  0.00    -0.323 A  
HETATM   15  C   UNL     1     -10.834  16.247  69.573  1.00  0.00    -0.342 A  
HETATM   16  C   UNL     1      -9.559  15.711  69.390  1.00  0.00    -0.287 A  
HETATM   17  C   UNL     1      -9.390  14.528  68.668  1.00  0.00    -0.199 A  
HETATM   18  O   UNL     1      -8.101  14.077  68.549  1.00  0.00    -0.139 OA 
HETATM   19  C   UNL     1      -7.861  12.958  67.792  1.00  0.00    -0.158 A  
HETATM   20  C   UNL     1      -6.513  12.655  67.572  1.00  0.00    -0.158 A  
HETATM   21  C   UNL     1      -6.157  11.524  66.842  1.00  0.00    -0.146 A  
HETATM   22  C   UNL     1      -7.150  10.696  66.328  1.00  0.00    -0.137 A  
HETATM   23  C   UNL     1      -8.497  11.008  66.530  1.00  0.00    -0.161 A  
HETATM   24  C   UNL     1      -8.871  12.143  67.271  1.00  0.00    -0.186 A  
ENDBRANCH   9  11
ENDBRANCH   8   9
ENDBRANCH   7   8
ENDBRANCH   6   7
ENDBRANCH   4   6
BRANCH   4  25
HETATM   25  C   UNL     1     -10.978   6.795  70.653  1.00  0.00    -0.267 C  
HETATM   26  C   UNL     1     -10.768   5.301  70.894  1.00  0.00    -0.189 C  
HETATM   27  C   UNL     1     -12.458   7.122  70.924  1.00  0.00    -0.302 C  
ENDBRANCH   4  25
ENDBRANCH   2   4
TORSDOF 7
ENDMDL
MODEL      209
REMARK 921   NORMALIZED FREE ENERGY PREDICTED BY IDOCK:   -3.81 KCAL/MOL
REMARK 922        TOTAL FREE ENERGY PREDICTED BY IDOCK:   -6.55 KCAL/MOL
REMARK 923 INTER-LIGAND FREE ENERGY PREDICTED BY IDOCK:   -5.76 KCAL/MOL
REMARK 924 INTRA-LIGAND FREE ENERGY PREDICTED BY IDOCK:   -0.79 KCAL/MOL
REMARK 927      BINDING AFFINITY PREDICTED BY RF-SCORE:    0.00 PKD
ROOT
HETATM    1  C   UNL     1     -12.489  12.276  64.335  1.00  0.00    -0.484 C  
HETATM    2  C   UNL     1     -11.795  13.374  65.149  1.00  0.00    -0.350 C  
HETATM    3  C   UNL     1     -12.780  14.431  65.647  1.00  0.00    -0.302 C  
ENDROOT
BRANCH   2   4
HETATM    4  N   UNL     1     -10.833  12.855  66.294  1.00  0.00    -0.272 N  
HETATM    5  C   UNL     1     -11.569  12.924  67.645  1.00  0.00    -0.355 C  
BRANCH   4   6
HETATM    6  C   UNL     1     -10.500  11.334  66.024  1.00  0.00    -0.257 C  
BRANCH   6   7
HETATM    7  C   UNL     1     -10.650  10.377  67.211  1.00  0.00    -0.267 C  
BRANCH   7   8
HETATM    8  O   UNL     1      -9.476   9.552  67.314  1.00  0.00    -0.132 OA 
BRANCH   8   9
HETATM    9  C   UNL     1      -8.988   9.326  68.579  1.00  0.00    -0.129 C  
HETATM   10  O   UNL     1      -8.423  10.218  69.208  1.00  0.00    -0.147 OA 
BRANCH   9  11
HETATM   11  C   UNL     1      -9.263   7.902  69.093  1.00  0.00    -0.144 C  
HETATM   12  C   UNL     1      -8.012   7.041  69.140  1.00  0.00    -0.119 A  
HETATM   13  C   UNL     1      -7.298   6.744  67.964  1.00  0.00    -0.097 A  
HETATM   14  C   UNL     1      -6.055   6.113  68.031  1.00  0.00    -0.024 A  
HETATM   15  C   UNL     1      -5.537   5.727  69.264  1.00  0.00    -0.008 A  
HETATM   16  C   UNL     1      -6.276   5.949  70.426  1.00  0.00    -0.031 A  
HETATM   17  C   UNL     1      -7.508   6.602  70.364  1.00  0.00    -0.090 A  
HETATM   18  O   UNL     1      -8.154   6.779  71.559  1.00  0.00    -0.108 OA 
HETATM   19  C   UNL     1      -9.402   7.352  71.557  1.00  0.00    -0.144 A  
HETATM   20  C   UNL     1     -10.072   7.344  72.784  1.00  0.00    -0.272 A  
HETATM   21  C   UNL     1     -11.332   7.926  72.901  1.00  0.00    -0.399 A  
HETATM   22  C   UNL     1     -11.923   8.514  71.787  1.00  0.00    -0.393 A  
HETATM   23  C   UNL     1     -11.264   8.504  70.555  1.00  0.00    -0.262 A  
HETATM   24  C   UNL     1      -9.988   7.926  70.425  1.00  0.00    -0.192 A  
ENDBRANCH   9  11
ENDBRANCH   8   9
ENDBRANCH   7   8
ENDBRANCH   6   7
ENDBRANCH   4   6
BRANCH   4  25
HETATM   25  C   UNL     1      -9.416  13.597  66.373  1.00  0.00    -0.234 C  
HETATM   26  C   UNL     1      -9.491  15.113  66.194  1.00  0.00    -0.354 C  
HETATM   27  C   UNL     1      -8.666  13.306  67.686  1.00  0.00    -0.195 C  
ENDBRANCH   4  25
ENDBRANCH   2   4
TORSDOF 7
ENDMDL
MODEL      210
REMARK 921   NORMALIZED FREE ENERGY PREDICTED BY IDOCK:   -3.81 KCAL/MOL
REMARK 922        TOTAL FREE ENERGY PREDICTED BY IDOCK:   -6.55 KCAL/MOL
REMARK 923 INTER-LIGAND FREE ENERGY PREDICTED BY IDOCK:   -5.52 KCAL/MOL
REMARK 924 INTRA-LIGAND FREE ENERGY PREDICTED BY IDOCK:   -1.03 KCAL/MOL
REMARK 927      BINDING AFFINITY PREDICTED BY RF-SCORE:    0.00 PKD
ROOT
HETATM    1  C   UNL     1      -6.851   7.903  72.344  1.00  0.00    -0.076 C  
HETATM    2  C   UNL     1      -8.160   7.239  72.787  1.00  0.00    -0.106 C  
HETATM    3  C   UNL     1      -8.654   7.780  74.130  1.00  0.00    -0.307 C  
ENDROOT
BRANCH   2   4
HETATM    4  N   UNL     1      -9.301   7.206  71.691  1.00  0.00    -0.152 N  
HETATM    5  C   UNL     1     -10.230   8.418  71.888  1.00  0.00    -0.270 C  
BRANCH   4   6
HETATM    6  C   UNL     1      -8.637   7.357  70.265  1.00  0.00    -0.145 C  
BRANCH   6   7
HETATM    7  C   UNL     1      -9.314   8.329  69.292  1.00  0.00    -0.155 C  
BRANCH   7   8
HETATM    8  O   UNL     1      -9.055   7.912  67.940  1.00  0.00    -0.132 OA 
BRANCH   8   9
HETATM    9  C   UNL     1     -10.083   8.058  67.040  1.00  0.00    -0.279 C  
HETATM   10  O   UNL     1     -11.031   7.277  67.030  1.00  0.00    -0.358 OA 
BRANCH   9  11
HETATM   11  C   UNL     1      -9.922   9.285  66.125  1.00  0.00    -0.348 C  
HETATM   12  C   UNL     1     -10.146  10.598  66.856  1.00  0.00    -0.260 A  
HETATM   13  C   UNL     1     -11.391  10.893  67.443  1.00  0.00    -0.273 A  
HETATM   14  C   UNL     1     -11.540  12.008  68.267  1.00  0.00    -0.394 A  
HETATM   15  C   UNL     1     -10.465  12.868  68.473  1.00  0.00    -0.260 A  
HETATM   16  C   UNL     1      -9.250  12.625  67.832  1.00  0.00    -0.201 A  
HETATM   17  C   UNL     1      -9.093  11.496  67.026  1.00  0.00    -0.175 A  
HETATM   18  O   UNL     1      -7.861  11.341  66.446  1.00  0.00    -0.158 OA 
HETATM   19  C   UNL     1      -7.664  10.289  65.587  1.00  0.00    -0.148 A  
HETATM   20  C   UNL     1      -6.446  10.289  64.900  1.00  0.00    -0.113 A  
HETATM   21  C   UNL     1      -6.130   9.252  64.026  1.00  0.00    -0.084 A  
HETATM   22  C   UNL     1      -7.037   8.214  63.836  1.00  0.00    -0.084 A  
HETATM   23  C   UNL     1      -8.263   8.222  64.506  1.00  0.00    -0.138 A  
HETATM   24  C   UNL     1      -8.591   9.259  65.397  1.00  0.00    -0.178 A  
ENDBRANCH   9  11
ENDBRANCH   8   9
ENDBRANCH   7   8
ENDBRANCH   6   7
ENDBRANCH   4   6
BRANCH   4  25
HETATM   25  C   UNL     1     -10.139   5.843  71.631  1.00  0.00    -0.190 C  
HETATM   26  C   UNL     1      -9.440   4.648  72.278  1.00  0.00    -0.182 C  
HETATM   27  C   UNL     1     -11.538   5.978  72.259  1.00  0.00    -0.359 C  
ENDBRANCH   4  25
ENDBRANCH   2   4
TORSDOF 7
ENDMDL
MODEL      211
REMARK 921   NORMALIZED FREE ENERGY PREDICTED BY IDOCK:   -3.80 KCAL/MOL
REMARK 922        TOTAL FREE ENERGY PREDICTED BY IDOCK:   -6.54 KCAL/MOL
REMARK 923 INTER-LIGAND FREE ENERGY PREDICTED BY IDOCK:   -5.76 KCAL/MOL
REMARK 924 INTRA-LIGAND FREE ENERGY PREDICTED BY IDOCK:   -0.78 KCAL/MOL
REMARK 927      BINDING AFFINITY PREDICTED BY RF-SCORE:    0.00 PKD
ROOT
HETATM    1  C   UNL     1     -10.785  17.407  67.111  1.00  0.00    -0.188 C  
HETATM    2  C   UNL     1      -9.464  16.632  67.050  1.00  0.00    -0.230 C  
HETATM    3  C   UNL     1      -8.669  16.950  65.784  1.00  0.00     0.147 C  
ENDROOT
BRANCH   2   4
HETATM    4  N   UNL     1      -8.577  16.711  68.359  1.00  0.00    -0.212 N  
HETATM    5  C   UNL     1      -8.297  18.187  68.693  1.00  0.00    -0.275 C  
BRANCH   4   6
HETATM    6  C   UNL     1      -9.401  16.110  69.565  1.00  0.00    -0.096 C  
BRANCH   6   7
HETATM    7  C   UNL     1      -9.837  14.646  69.436  1.00  0.00     0.005 C  
BRANCH   7   8
HETATM    8  O   UNL     1     -11.209  14.589  69.006  1.00  0.00    -0.243 OA 
BRANCH   8   9
HETATM    9  C   UNL     1     -11.880  13.412  69.235  1.00  0.00    -0.334 C  
HETATM   10  O   UNL     1     -12.563  13.259  70.244  1.00  0.00    -0.211 OA 
BRANCH   9  11
HETATM   11  C   UNL     1     -11.708  12.383  68.103  1.00  0.00    -0.408 C  
HETATM   12  C   UNL     1     -11.647  13.026  66.727  1.00  0.00    -0.420 A  
HETATM   13  C   UNL     1     -12.738  13.760  66.226  1.00  0.00    -0.258 A  
HETATM   14  C   UNL     1     -12.615  14.500  65.051  1.00  0.00    -0.250 A  
HETATM   15  C   UNL     1     -11.420  14.474  64.336  1.00  0.00    -0.282 A  
HETATM   16  C   UNL     1     -10.360  13.687  64.786  1.00  0.00    -0.414 A  
HETATM   17  C   UNL     1     -10.474  12.965  65.975  1.00  0.00    -0.276 A  
HETATM   18  O   UNL     1      -9.377  12.227  66.336  1.00  0.00    -0.223 OA 
HETATM   19  C   UNL     1      -9.451  11.440  67.459  1.00  0.00    -0.167 A  
HETATM   20  C   UNL     1      -8.364  10.587  67.671  1.00  0.00    -0.114 A  
HETATM   21  C   UNL     1      -8.323   9.767  68.796  1.00  0.00    -0.113 A  
HETATM   22  C   UNL     1      -9.373   9.799  69.709  1.00  0.00    -0.249 A  
HETATM   23  C   UNL     1     -10.469  10.637  69.488  1.00  0.00    -0.236 A  
HETATM   24  C   UNL     1     -10.520  11.474  68.360  1.00  0.00    -0.226 A  
ENDBRANCH   9  11
ENDBRANCH   8   9
ENDBRANCH   7   8
ENDBRANCH   6   7
ENDBRANCH   4   6
BRANCH   4  25
HETATM   25  C   UNL     1      -7.218  15.866  68.304  1.00  0.00    -0.116 C  
HETATM   26  C   UNL     1      -6.129  16.483  67.428  1.00  0.00    -0.192 C  
HETATM   27  C   UNL     1      -6.622  15.610  69.701  1.00  0.00    -0.181 C  
ENDBRANCH   4  25
ENDBRANCH   2   4
TORSDOF 7
ENDMDL
MODEL      212
REMARK 921   NORMALIZED FREE ENERGY PREDICTED BY IDOCK:   -3.79 KCAL/MOL
REMARK 922        TOTAL FREE ENERGY PREDICTED BY IDOCK:   -6.53 KCAL/MOL
REMARK 923 INTER-LIGAND FREE ENERGY PREDICTED BY IDOCK:   -5.53 KCAL/MOL
REMARK 924 INTRA-LIGAND FREE ENERGY PREDICTED BY IDOCK:   -1.00 KCAL/MOL
REMARK 927      BINDING AFFINITY PREDICTED BY RF-SCORE:    0.00 PKD
ROOT
HETATM    1  C   UNL     1     -10.099  11.654  63.414  1.00  0.00    -0.468 C  
HETATM    2  C   UNL     1     -11.031  12.609  64.169  1.00  0.00    -0.387 C  
HETATM    3  C   UNL     1     -12.503  12.235  63.994  1.00  0.00    -0.556 C  
ENDROOT
BRANCH   2   4
HETATM    4  N   UNL     1     -10.646  12.863  65.684  1.00  0.00    -0.273 N  
HETATM    5  C   UNL     1     -11.882  12.618  66.569  1.00  0.00    -0.396 C  
BRANCH   4   6
HETATM    6  C   UNL     1      -9.551  11.808  66.112  1.00  0.00    -0.232 C  
BRANCH   6   7
HETATM    7  C   UNL     1     -10.005  10.696  67.064  1.00  0.00    -0.202 C  
BRANCH   7   8
HETATM    8  O   UNL     1     -10.447   9.561  66.300  1.00  0.00    -0.192 OA 
BRANCH   8   9
HETATM    9  C   UNL     1     -10.034   8.324  66.736  1.00  0.00    -0.285 C  
HETATM   10  O   UNL     1     -10.847   7.476  67.094  1.00  0.00    -0.324 OA 
BRANCH   9  11
HETATM   11  C   UNL     1      -8.508   8.136  66.679  1.00  0.00    -0.129 C  
HETATM   12  C   UNL     1      -7.992   7.186  67.746  1.00  0.00    -0.114 A  
HETATM   13  C   UNL     1      -8.152   7.483  69.113  1.00  0.00    -0.123 A  
HETATM   14  C   UNL     1      -7.846   6.530  70.085  1.00  0.00    -0.107 A  
HETATM   15  C   UNL     1      -7.331   5.293  69.708  1.00  0.00    -0.064 A  
HETATM   16  C   UNL     1      -7.097   5.021  68.360  1.00  0.00    -0.062 A  
HETATM   17  C   UNL     1      -7.425   5.965  67.384  1.00  0.00    -0.078 A  
HETATM   18  O   UNL     1      -7.163   5.603  66.088  1.00  0.00    -0.073 OA 
HETATM   19  C   UNL     1      -7.399   6.513  65.088  1.00  0.00    -0.078 A  
HETATM   20  C   UNL     1      -6.950   6.143  63.817  1.00  0.00    -0.046 A  
HETATM   21  C   UNL     1      -7.164   6.980  62.724  1.00  0.00    -0.067 A  
HETATM   22  C   UNL     1      -7.825   8.191  62.905  1.00  0.00    -0.144 A  
HETATM   23  C   UNL     1      -8.256   8.572  64.179  1.00  0.00    -0.141 A  
HETATM   24  C   UNL     1      -8.053   7.733  65.289  1.00  0.00    -0.133 A  
ENDBRANCH   9  11
ENDBRANCH   8   9
ENDBRANCH   7   8
ENDBRANCH   6   7
ENDBRANCH   4   6
BRANCH   4  25
HETATM   25  C   UNL     1     -10.000  14.298  65.983  1.00  0.00    -0.319 C  
HETATM   26  C   UNL     1     -10.995  15.341  66.491  1.00  0.00    -0.295 C  
HETATM   27  C   UNL     1      -8.830  14.225  66.981  1.00  0.00    -0.243 C  
ENDBRANCH   4  25
ENDBRANCH   2   4
TORSDOF 7
ENDMDL
MODEL      213
REMARK 921   NORMALIZED FREE ENERGY PREDICTED BY IDOCK:   -3.78 KCAL/MOL
REMARK 922        TOTAL FREE ENERGY PREDICTED BY IDOCK:   -6.52 KCAL/MOL
REMARK 923 INTER-LIGAND FREE ENERGY PREDICTED BY IDOCK:   -5.70 KCAL/MOL
REMARK 924 INTRA-LIGAND FREE ENERGY PREDICTED BY IDOCK:   -0.82 KCAL/MOL
REMARK 927      BINDING AFFINITY PREDICTED BY RF-SCORE:    0.00 PKD
ROOT
HETATM    1  C   UNL     1     -10.293  14.165  65.034  1.00  0.00    -0.443 C  
HETATM    2  C   UNL     1     -10.135  13.414  66.361  1.00  0.00    -0.292 C  
HETATM    3  C   UNL     1      -8.878  13.841  67.118  1.00  0.00    -0.240 C  
ENDROOT
BRANCH   2   4
HETATM    4  N   UNL     1     -11.423  13.401  67.282  1.00  0.00    -0.322 N  
HETATM    5  C   UNL     1     -12.650  13.801  66.443  1.00  0.00    -0.259 C  
BRANCH   4   6
HETATM    6  C   UNL     1     -11.667  11.924  67.788  1.00  0.00    -0.292 C  
BRANCH   6   7
HETATM    7  C   UNL     1     -10.607  10.884  67.409  1.00  0.00    -0.243 C  
BRANCH   7   8
HETATM    8  O   UNL     1     -10.475   9.924  68.471  1.00  0.00    -0.188 OA 
BRANCH   8   9
HETATM    9  C   UNL     1      -9.384   9.091  68.419  1.00  0.00    -0.139 C  
HETATM   10  O   UNL     1      -8.318   9.411  68.938  1.00  0.00    -0.115 OA 
BRANCH   9  11
HETATM   11  C   UNL     1      -9.668   7.760  67.700  1.00  0.00    -0.193 C  
HETATM   12  C   UNL     1      -8.758   7.530  66.505  1.00  0.00    -0.151 A  
HETATM   13  C   UNL     1      -8.775   8.411  65.407  1.00  0.00    -0.175 A  
HETATM   14  C   UNL     1      -7.816   8.306  64.400  1.00  0.00    -0.135 A  
HETATM   15  C   UNL     1      -6.863   7.293  64.451  1.00  0.00    -0.047 A  
HETATM   16  C   UNL     1      -6.888   6.369  65.496  1.00  0.00    -0.048 A  
HETATM   17  C   UNL     1      -7.832   6.488  66.518  1.00  0.00    -0.104 A  
HETATM   18  O   UNL     1      -7.772   5.537  67.503  1.00  0.00    -0.094 OA 
HETATM   19  C   UNL     1      -8.717   5.557  68.498  1.00  0.00    -0.105 A  
HETATM   20  C   UNL     1      -8.701   4.462  69.369  1.00  0.00    -0.121 A  
HETATM   21  C   UNL     1      -9.598   4.397  70.432  1.00  0.00    -0.266 A  
HETATM   22  C   UNL     1     -10.514   5.426  70.623  1.00  0.00    -0.329 A  
HETATM   23  C   UNL     1     -10.545   6.510  69.742  1.00  0.00    -0.284 A  
HETATM   24  C   UNL     1      -9.641   6.593  68.669  1.00  0.00    -0.130 A  
ENDBRANCH   9  11
ENDBRANCH   8   9
ENDBRANCH   7   8
ENDBRANCH   6   7
ENDBRANCH   4   6
BRANCH   4  25
HETATM   25  C   UNL     1     -11.314  14.295  68.606  1.00  0.00    -0.275 C  
HETATM   26  C   UNL     1     -11.607  15.779  68.386  1.00  0.00    -0.343 C  
HETATM   27  C   UNL     1     -12.223  13.789  69.740  1.00  0.00    -0.368 C  
ENDBRANCH   4  25
ENDBRANCH   2   4
TORSDOF 7
ENDMDL
MODEL      214
REMARK 921   NORMALIZED FREE ENERGY PREDICTED BY IDOCK:   -3.76 KCAL/MOL
REMARK 922        TOTAL FREE ENERGY PREDICTED BY IDOCK:   -6.48 KCAL/MOL
REMARK 923 INTER-LIGAND FREE ENERGY PREDICTED BY IDOCK:   -5.88 KCAL/MOL
REMARK 924 INTRA-LIGAND FREE ENERGY PREDICTED BY IDOCK:   -0.60 KCAL/MOL
REMARK 927      BINDING AFFINITY PREDICTED BY RF-SCORE:    0.00 PKD
ROOT
HETATM    1  C   UNL     1      -7.630   7.783  72.404  1.00  0.00    -0.104 C  
HETATM    2  C   UNL     1      -8.183   6.355  72.335  1.00  0.00    -0.106 C  
HETATM    3  C   UNL     1      -7.099   5.305  72.579  1.00  0.00    -0.087 C  
ENDROOT
BRANCH   2   4
HETATM    4  N   UNL     1      -9.483   6.096  73.201  1.00  0.00    -0.139 N  
HETATM    5  C   UNL     1      -9.076   5.502  74.562  1.00  0.00    -0.123 C  
BRANCH   4   6
HETATM    6  C   UNL     1     -10.184   7.482  73.489  1.00  0.00    -0.324 C  
BRANCH   6   7
HETATM    7  C   UNL     1     -11.249   7.934  72.483  1.00  0.00    -0.376 C  
BRANCH   7   8
HETATM    8  O   UNL     1     -10.660   8.843  71.537  1.00  0.00    -0.272 OA 
BRANCH   8   9
HETATM    9  C   UNL     1     -11.514   9.715  70.905  1.00  0.00    -0.353 C  
HETATM   10  O   UNL     1     -12.384  10.315  71.531  1.00  0.00    -0.375 OA 
BRANCH   9  11
HETATM   11  C   UNL     1     -11.226   9.866  69.400  1.00  0.00    -0.196 C  
HETATM   12  C   UNL     1     -10.915  11.299  69.001  1.00  0.00    -0.288 A  
HETATM   13  C   UNL     1     -11.872  12.318  69.171  1.00  0.00    -0.355 A  
HETATM   14  C   UNL     1     -11.524  13.655  68.979  1.00  0.00    -0.346 A  
HETATM   15  C   UNL     1     -10.237  13.985  68.567  1.00  0.00    -0.237 A  
HETATM   16  C   UNL     1      -9.306  12.975  68.321  1.00  0.00    -0.199 A  
HETATM   17  C   UNL     1      -9.645  11.638  68.537  1.00  0.00    -0.178 A  
HETATM   18  O   UNL     1      -8.662  10.721  68.274  1.00  0.00    -0.125 OA 
HETATM   19  C   UNL     1      -8.954   9.385  68.399  1.00  0.00    -0.128 A  
HETATM   20  C   UNL     1      -7.964   8.505  67.951  1.00  0.00    -0.108 A  
HETATM   21  C   UNL     1      -8.146   7.129  68.059  1.00  0.00    -0.120 A  
HETATM   22  C   UNL     1      -9.321   6.632  68.613  1.00  0.00    -0.129 A  
HETATM   23  C   UNL     1     -10.320   7.509  69.043  1.00  0.00    -0.217 A  
HETATM   24  C   UNL     1     -10.147   8.902  68.946  1.00  0.00    -0.209 A  
ENDBRANCH   9  11
ENDBRANCH   8   9
ENDBRANCH   7   8
ENDBRANCH   6   7
ENDBRANCH   4   6
BRANCH   4  25
HETATM   25  C   UNL     1     -10.598   5.192  72.490  1.00  0.00    -0.220 C  
HETATM   26  C   UNL     1     -10.084   4.385  71.297  1.00  0.00    -0.202 C  
HETATM   27  C   UNL     1     -11.285   4.220  73.466  1.00  0.00    -0.361 C  
ENDBRANCH   4  25
ENDBRANCH   2   4
TORSDOF 7
ENDMDL
MODEL      215
REMARK 921   NORMALIZED FREE ENERGY PREDICTED BY IDOCK:   -3.74 KCAL/MOL
REMARK 922        TOTAL FREE ENERGY PREDICTED BY IDOCK:   -6.46 KCAL/MOL
REMARK 923 INTER-LIGAND FREE ENERGY PREDICTED BY IDOCK:   -5.16 KCAL/MOL
REMARK 924 INTRA-LIGAND FREE ENERGY PREDICTED BY IDOCK:   -1.30 KCAL/MOL
REMARK 927      BINDING AFFINITY PREDICTED BY RF-SCORE:    0.00 PKD
ROOT
HETATM    1  C   UNL     1     -10.952  12.295  63.609  1.00  0.00    -0.532 C  
HETATM    2  C   UNL     1     -10.870  13.382  64.688  1.00  0.00    -0.392 C  
HETATM    3  C   UNL     1     -12.166  14.186  64.795  1.00  0.00    -0.457 C  
ENDROOT
BRANCH   2   4
HETATM    4  N   UNL     1     -10.343  12.890  66.098  1.00  0.00    -0.270 N  
HETATM    5  C   UNL     1     -11.538  12.717  67.053  1.00  0.00    -0.365 C  
BRANCH   4   6
HETATM    6  C   UNL     1      -9.679  11.468  65.921  1.00  0.00    -0.232 C  
BRANCH   6   7
HETATM    7  C   UNL     1     -10.414  10.283  66.558  1.00  0.00    -0.173 C  
BRANCH   7   8
HETATM    8  O   UNL     1     -10.085   9.077  65.848  1.00  0.00    -0.240 OA 
BRANCH   8   9
HETATM    9  C   UNL     1      -9.774   7.976  66.611  1.00  0.00    -0.243 C  
HETATM   10  O   UNL     1     -10.652   7.215  67.010  1.00  0.00    -0.297 OA 
BRANCH   9  11
HETATM   11  C   UNL     1      -8.264   7.807  66.851  1.00  0.00    -0.116 C  
HETATM   12  C   UNL     1      -7.424   8.289  65.679  1.00  0.00    -0.081 A  
HETATM   13  C   UNL     1      -7.540   7.684  64.413  1.00  0.00    -0.107 A  
HETATM   14  C   UNL     1      -6.911   8.243  63.301  1.00  0.00    -0.086 A  
HETATM   15  C   UNL     1      -6.119   9.378  63.448  1.00  0.00    -0.092 A  
HETATM   16  C   UNL     1      -5.936   9.937  64.713  1.00  0.00    -0.099 A  
HETATM   17  C   UNL     1      -6.585   9.393  65.823  1.00  0.00    -0.073 A  
HETATM   18  O   UNL     1      -6.348  10.016  67.021  1.00  0.00    -0.062 OA 
HETATM   19  C   UNL     1      -6.902   9.487  68.161  1.00  0.00    -0.070 A  
HETATM   20  C   UNL     1      -6.481  10.067  69.362  1.00  0.00    -0.048 A  
HETATM   21  C   UNL     1      -7.002   9.627  70.576  1.00  0.00    -0.133 A  
HETATM   22  C   UNL     1      -7.944   8.603  70.589  1.00  0.00    -0.113 A  
HETATM   23  C   UNL     1      -8.350   8.009  69.391  1.00  0.00    -0.131 A  
HETATM   24  C   UNL     1      -7.837   8.448  68.158  1.00  0.00    -0.111 A  
ENDBRANCH   9  11
ENDBRANCH   8   9
ENDBRANCH   7   8
ENDBRANCH   6   7
ENDBRANCH   4   6
BRANCH   4  25
HETATM   25  C   UNL     1      -9.212  13.814  66.754  1.00  0.00    -0.244 C  
HETATM   26  C   UNL     1      -9.726  14.764  67.835  1.00  0.00    -0.211 C  
HETATM   27  C   UNL     1      -8.049  12.997  67.347  1.00  0.00    -0.180 C  
ENDBRANCH   4  25
ENDBRANCH   2   4
TORSDOF 7
ENDMDL
MODEL      216
REMARK 921   NORMALIZED FREE ENERGY PREDICTED BY IDOCK:   -3.73 KCAL/MOL
REMARK 922        TOTAL FREE ENERGY PREDICTED BY IDOCK:   -6.44 KCAL/MOL
REMARK 923 INTER-LIGAND FREE ENERGY PREDICTED BY IDOCK:   -6.58 KCAL/MOL
REMARK 924 INTRA-LIGAND FREE ENERGY PREDICTED BY IDOCK:    0.14 KCAL/MOL
REMARK 927      BINDING AFFINITY PREDICTED BY RF-SCORE:    0.00 PKD
ROOT
HETATM    1  C   UNL     1      -9.814  15.114  70.338  1.00  0.00     0.364 C  
HETATM    2  C   UNL     1     -11.116  15.092  71.147  1.00  0.00    -0.225 C  
HETATM    3  C   UNL     1     -11.446  16.461  71.743  1.00  0.00    -0.227 C  
ENDROOT
BRANCH   2   4
HETATM    4  N   UNL     1     -12.354  14.439  70.408  1.00  0.00    -0.323 N  
HETATM    5  C   UNL     1     -12.878  15.413  69.337  1.00  0.00     0.425 C  
BRANCH   4   6
HETATM    6  C   UNL     1     -11.865  13.139  69.654  1.00  0.00    -0.324 C  
BRANCH   6   7
HETATM    7  C   UNL     1     -12.151  13.069  68.150  1.00  0.00    -0.157 C  
BRANCH   7   8
HETATM    8  O   UNL     1     -11.153  12.256  67.509  1.00  0.00    -0.247 OA 
BRANCH   8   9
HETATM    9  C   UNL     1      -9.865  12.735  67.520  1.00  0.00    -0.211 C  
HETATM   10  O   UNL     1      -9.081  12.423  68.413  1.00  0.00    -0.195 OA 
BRANCH   9  11
HETATM   11  C   UNL     1      -9.538  13.632  66.313  1.00  0.00    -0.254 C  
HETATM   12  C   UNL     1     -10.409  13.332  65.104  1.00  0.00    -0.336 A  
HETATM   13  C   UNL     1     -10.374  12.068  64.487  1.00  0.00    -0.334 A  
HETATM   14  C   UNL     1     -11.301  11.735  63.500  1.00  0.00    -0.496 A  
HETATM   15  C   UNL     1     -12.239  12.676  63.083  1.00  0.00    -0.341 A  
HETATM   16  C   UNL     1     -12.230  13.957  63.636  1.00  0.00    -0.232 A  
HETATM   17  C   UNL     1     -11.317  14.283  64.641  1.00  0.00    -0.373 A  
HETATM   18  O   UNL     1     -11.390  15.563  65.124  1.00  0.00    -0.318 OA 
HETATM   19  C   UNL     1     -10.475  15.967  66.064  1.00  0.00    -0.345 A  
HETATM   20  C   UNL     1     -10.499  17.328  66.384  1.00  0.00    -0.263 A  
HETATM   21  C   UNL     1      -9.632  17.839  67.348  1.00  0.00    -0.264 A  
HETATM   22  C   UNL     1      -8.739  16.988  67.990  1.00  0.00    -0.218 A  
HETATM   23  C   UNL     1      -8.700  15.631  67.656  1.00  0.00    -0.182 A  
HETATM   24  C   UNL     1      -9.574  15.101  66.690  1.00  0.00    -0.272 A  
ENDBRANCH   9  11
ENDBRANCH   8   9
ENDBRANCH   7   8
ENDBRANCH   6   7
ENDBRANCH   4   6
BRANCH   4  25
HETATM   25  C   UNL     1     -13.537  13.955  71.373  1.00  0.00    -0.215 C  
HETATM   26  C   UNL     1     -13.071  13.124  72.569  1.00  0.00    -0.320 C  
HETATM   27  C   UNL     1     -14.386  15.124  71.903  1.00  0.00    -0.693 C  
ENDBRANCH   4  25
ENDBRANCH   2   4
TORSDOF 7
ENDMDL
MODEL      217
REMARK 921   NORMALIZED FREE ENERGY PREDICTED BY IDOCK:   -3.73 KCAL/MOL
REMARK 922        TOTAL FREE ENERGY PREDICTED BY IDOCK:   -6.44 KCAL/MOL
REMARK 923 INTER-LIGAND FREE ENERGY PREDICTED BY IDOCK:   -5.42 KCAL/MOL
REMARK 924 INTRA-LIGAND FREE ENERGY PREDICTED BY IDOCK:   -1.02 KCAL/MOL
REMARK 927      BINDING AFFINITY PREDICTED BY RF-SCORE:    0.00 PKD
ROOT
HETATM    1  C   UNL     1     -12.052  12.168  64.162  1.00  0.00    -0.501 C  
HETATM    2  C   UNL     1     -11.629  13.266  65.145  1.00  0.00    -0.308 C  
HETATM    3  C   UNL     1     -12.785  14.205  65.491  1.00  0.00    -0.468 C  
ENDROOT
BRANCH   2   4
HETATM    4  N   UNL     1     -10.857  12.757  66.430  1.00  0.00    -0.267 N  
HETATM    5  C   UNL     1     -11.876  12.414  67.531  1.00  0.00    -0.284 C  
BRANCH   4   6
HETATM    6  C   UNL     1     -10.097  11.420  66.066  1.00  0.00    -0.234 C  
BRANCH   6   7
HETATM    7  C   UNL     1     -10.130  10.305  67.117  1.00  0.00    -0.210 C  
BRANCH   7   8
HETATM    8  O   UNL     1      -9.265   9.232  66.705  1.00  0.00    -0.138 OA 
BRANCH   8   9
HETATM    9  C   UNL     1      -8.493   8.651  67.682  1.00  0.00    -0.125 C  
HETATM   10  O   UNL     1      -7.596   7.862  67.394  1.00  0.00    -0.094 OA 
BRANCH   9  11
HETATM   11  C   UNL     1      -8.850   9.124  69.103  1.00  0.00    -0.146 C  
HETATM   12  C   UNL     1      -9.621   8.081  69.894  1.00  0.00    -0.171 A  
HETATM   13  C   UNL     1     -10.884   7.636  69.460  1.00  0.00    -0.171 A  
HETATM   14  C   UNL     1     -11.504   6.552  70.080  1.00  0.00    -0.476 A  
HETATM   15  C   UNL     1     -10.898   5.935  71.170  1.00  0.00    -0.334 A  
HETATM   16  C   UNL     1      -9.683   6.420  71.655  1.00  0.00    -0.174 A  
HETATM   17  C   UNL     1      -9.049   7.490  71.020  1.00  0.00    -0.148 A  
HETATM   18  O   UNL     1      -7.858   7.890  71.566  1.00  0.00    -0.085 OA 
HETATM   19  C   UNL     1      -7.219   8.981  71.031  1.00  0.00    -0.106 A  
HETATM   20  C   UNL     1      -6.104   9.438  71.740  1.00  0.00     0.025 A  
HETATM   21  C   UNL     1      -5.365  10.520  71.269  1.00  0.00    -0.070 A  
HETATM   22  C   UNL     1      -5.744  11.148  70.087  1.00  0.00    -0.110 A  
HETATM   23  C   UNL     1      -6.870  10.706  69.387  1.00  0.00    -0.095 A  
HETATM   24  C   UNL     1      -7.621   9.610  69.848  1.00  0.00    -0.138 A  
ENDBRANCH   9  11
ENDBRANCH   8   9
ENDBRANCH   7   8
ENDBRANCH   6   7
ENDBRANCH   4   6
BRANCH   4  25
HETATM   25  C   UNL     1      -9.730  13.754  66.979  1.00  0.00    -0.251 C  
HETATM   26  C   UNL     1      -9.999  14.292  68.384  1.00  0.00    -0.240 C  
HETATM   27  C   UNL     1      -8.325  13.126  66.966  1.00  0.00    -0.094 C  
ENDBRANCH   4  25
ENDBRANCH   2   4
TORSDOF 7
ENDMDL
MODEL      218
REMARK 921   NORMALIZED FREE ENERGY PREDICTED BY IDOCK:   -3.67 KCAL/MOL
REMARK 922        TOTAL FREE ENERGY PREDICTED BY IDOCK:   -6.35 KCAL/MOL
REMARK 923 INTER-LIGAND FREE ENERGY PREDICTED BY IDOCK:   -5.14 KCAL/MOL
REMARK 924 INTRA-LIGAND FREE ENERGY PREDICTED BY IDOCK:   -1.20 KCAL/MOL
REMARK 927      BINDING AFFINITY PREDICTED BY RF-SCORE:    0.00 PKD
ROOT
HETATM    1  C   UNL     1      -5.595   3.491  67.222  1.00  0.00    -0.021 C  
HETATM    2  C   UNL     1      -6.742   4.506  67.293  1.00  0.00    -0.051 C  
HETATM    3  C   UNL     1      -7.853   4.191  66.291  1.00  0.00    -0.094 C  
ENDROOT
BRANCH   2   4
HETATM    4  N   UNL     1      -7.301   4.787  68.748  1.00  0.00    -0.060 N  
HETATM    5  C   UNL     1      -6.224   5.516  69.573  1.00  0.00    -0.029 C  
BRANCH   4   6
HETATM    6  C   UNL     1      -8.539   5.762  68.634  1.00  0.00    -0.109 C  
BRANCH   6   7
HETATM    7  C   UNL     1      -8.408   7.121  69.332  1.00  0.00    -0.133 C  
BRANCH   7   8
HETATM    8  O   UNL     1      -9.446   7.254  70.319  1.00  0.00    -0.165 OA 
BRANCH   8   9
HETATM    9  C   UNL     1      -9.128   7.951  71.460  1.00  0.00    -0.137 C  
HETATM   10  O   UNL     1      -8.153   8.696  71.495  1.00  0.00    -0.132 OA 
BRANCH   9  11
HETATM   11  C   UNL     1     -10.122   7.719  72.612  1.00  0.00    -0.320 C  
HETATM   12  C   UNL     1     -11.552   8.067  72.235  1.00  0.00    -0.424 A  
HETATM   13  C   UNL     1     -11.901   9.382  71.872  1.00  0.00    -0.402 A  
HETATM   14  C   UNL     1     -13.164   9.661  71.350  1.00  0.00    -0.469 A  
HETATM   15  C   UNL     1     -14.108   8.645  71.235  1.00  0.00    -0.244 A  
HETATM   16  C   UNL     1     -13.795   7.356  71.665  1.00  0.00    -0.490 A  
HETATM   17  C   UNL     1     -12.523   7.070  72.165  1.00  0.00    -0.158 A  
HETATM   18  O   UNL     1     -12.310   5.774  72.556  1.00  0.00    -0.144 OA 
HETATM   19  C   UNL     1     -11.103   5.444  73.121  1.00  0.00    -0.308 A  
HETATM   20  C   UNL     1     -11.017   4.153  73.652  1.00  0.00    -0.351 A  
HETATM   21  C   UNL     1      -9.827   3.706  74.222  1.00  0.00    -0.163 A  
HETATM   22  C   UNL     1      -8.723   4.551  74.262  1.00  0.00    -0.106 A  
HETATM   23  C   UNL     1      -8.814   5.848  73.750  1.00  0.00    -0.124 A  
HETATM   24  C   UNL     1     -10.007   6.311  73.166  1.00  0.00    -0.183 A  
ENDBRANCH   9  11
ENDBRANCH   8   9
ENDBRANCH   7   8
ENDBRANCH   6   7
ENDBRANCH   4   6
BRANCH   4  25
HETATM   25  C   UNL     1      -7.843   3.495  69.523  1.00  0.00    -0.050 C  
HETATM   26  C   UNL     1      -7.766   3.598  71.046  1.00  0.00    -0.047 C  
HETATM   27  C   UNL     1      -9.290   3.137  69.139  1.00  0.00    -0.228 C  
ENDBRANCH   4  25
ENDBRANCH   2   4
TORSDOF 7
ENDMDL
MODEL      219
REMARK 921   NORMALIZED FREE ENERGY PREDICTED BY IDOCK:   -3.65 KCAL/MOL
REMARK 922        TOTAL FREE ENERGY PREDICTED BY IDOCK:   -6.33 KCAL/MOL
REMARK 923 INTER-LIGAND FREE ENERGY PREDICTED BY IDOCK:   -5.37 KCAL/MOL
REMARK 924 INTRA-LIGAND FREE ENERGY PREDICTED BY IDOCK:   -0.96 KCAL/MOL
REMARK 927      BINDING AFFINITY PREDICTED BY RF-SCORE:    0.00 PKD
ROOT
HETATM    1  C   UNL     1      -9.308   5.785  69.197  1.00  0.00    -0.146 C  
HETATM    2  C   UNL     1      -9.840   7.202  68.955  1.00  0.00    -0.156 C  
HETATM    3  C   UNL     1     -10.711   7.283  67.701  1.00  0.00    -0.294 C  
ENDROOT
BRANCH   2   4
HETATM    4  N   UNL     1     -10.519   7.888  70.210  1.00  0.00    -0.220 N  
HETATM    5  C   UNL     1      -9.485   8.005  71.345  1.00  0.00    -0.154 C  
BRANCH   4   6
HETATM    6  C   UNL     1     -10.943   9.357  69.815  1.00  0.00    -0.215 C  
BRANCH   6   7
HETATM    7  C   UNL     1      -9.813  10.317  69.427  1.00  0.00    -0.227 C  
BRANCH   7   8
HETATM    8  O   UNL     1     -10.372  11.586  69.045  1.00  0.00    -0.194 OA 
BRANCH   8   9
HETATM    9  C   UNL     1     -10.700  11.744  67.719  1.00  0.00    -0.205 C  
HETATM   10  O   UNL     1     -11.824  11.469  67.309  1.00  0.00    -0.609 OA 
BRANCH   9  11
HETATM   11  C   UNL     1      -9.550  12.318  66.872  1.00  0.00    -0.214 C  
HETATM   12  C   UNL     1      -8.934  13.565  67.483  1.00  0.00    -0.210 A  
HETATM   13  C   UNL     1      -9.704  14.729  67.672  1.00  0.00    -0.213 A  
HETATM   14  C   UNL     1      -9.193  15.805  68.397  1.00  0.00    -0.192 A  
HETATM   15  C   UNL     1      -7.894  15.753  68.895  1.00  0.00    -0.190 A  
HETATM   16  C   UNL     1      -7.099  14.635  68.644  1.00  0.00    -0.115 A  
HETATM   17  C   UNL     1      -7.618  13.547  67.940  1.00  0.00    -0.151 A  
HETATM   18  O   UNL     1      -6.762  12.493  67.750  1.00  0.00    -0.093 OA 
HETATM   19  C   UNL     1      -7.189  11.422  67.005  1.00  0.00    -0.141 A  
HETATM   20  C   UNL     1      -6.213  10.466  66.706  1.00  0.00    -0.069 A  
HETATM   21  C   UNL     1      -6.545   9.324  65.981  1.00  0.00    -0.072 A  
HETATM   22  C   UNL     1      -7.855   9.141  65.551  1.00  0.00    -0.095 A  
HETATM   23  C   UNL     1      -8.827  10.105  65.830  1.00  0.00    -0.167 A  
HETATM   24  C   UNL     1      -8.507  11.259  66.568  1.00  0.00    -0.171 A  
ENDBRANCH   9  11
ENDBRANCH   8   9
ENDBRANCH   7   8
ENDBRANCH   6   7
ENDBRANCH   4   6
BRANCH   4  25
HETATM   25  C   UNL     1     -11.859   7.178  70.724  1.00  0.00    -0.325 C  
HETATM   26  C   UNL     1     -11.631   6.095  71.779  1.00  0.00    -0.333 C  
HETATM   27  C   UNL     1     -12.886   8.180  71.280  1.00  0.00    -0.199 C  
ENDBRANCH   4  25
ENDBRANCH   2   4
TORSDOF 7
ENDMDL
MODEL      220
REMARK 921   NORMALIZED FREE ENERGY PREDICTED BY IDOCK:   -3.63 KCAL/MOL
REMARK 922        TOTAL FREE ENERGY PREDICTED BY IDOCK:   -6.29 KCAL/MOL
REMARK 923 INTER-LIGAND FREE ENERGY PREDICTED BY IDOCK:   -6.55 KCAL/MOL
REMARK 924 INTRA-LIGAND FREE ENERGY PREDICTED BY IDOCK:    0.25 KCAL/MOL
REMARK 927      BINDING AFFINITY PREDICTED BY RF-SCORE:    0.00 PKD
ROOT
HETATM    1  C   UNL     1      -6.281  17.638  66.461  1.00  0.00    -0.240 C  
HETATM    2  C   UNL     1      -6.795  18.250  67.769  1.00  0.00    -0.204 C  
HETATM    3  C   UNL     1      -5.658  18.587  68.733  1.00  0.00    -0.191 C  
ENDROOT
BRANCH   2   4
HETATM    4  N   UNL     1      -7.816  19.448  67.594  1.00  0.00    -0.268 N  
HETATM    5  C   UNL     1      -7.035  20.773  67.520  1.00  0.00    -0.354 C  
BRANCH   4   6
HETATM    6  C   UNL     1      -8.568  19.274  66.215  1.00  0.00    -0.325 C  
BRANCH   6   7
HETATM    7  C   UNL     1      -9.781  18.338  66.210  1.00  0.00    -0.291 C  
BRANCH   7   8
HETATM    8  O   UNL     1      -9.385  17.041  65.730  1.00  0.00    -0.524 OA 
BRANCH   8   9
HETATM    9  C   UNL     1      -9.931  15.953  66.368  1.00  0.00    -0.287 C  
HETATM   10  O   UNL     1     -10.761  16.095  67.262  1.00  0.00    -0.311 OA 
BRANCH   9  11
HETATM   11  C   UNL     1      -9.426  14.608  65.817  1.00  0.00    -0.180 C  
HETATM   12  C   UNL     1      -8.604  13.828  66.830  1.00  0.00    -0.128 A  
HETATM   13  C   UNL     1      -7.400  14.352  67.337  1.00  0.00    -0.167 A  
HETATM   14  C   UNL     1      -6.746  13.726  68.397  1.00  0.00    -0.100 A  
HETATM   15  C   UNL     1      -7.256  12.544  68.927  1.00  0.00    -0.050 A  
HETATM   16  C   UNL     1      -8.406  11.977  68.378  1.00  0.00    -0.151 A  
HETATM   17  C   UNL     1      -9.076  12.616  67.333  1.00  0.00    -0.191 A  
HETATM   18  O   UNL     1     -10.198  11.985  66.865  1.00  0.00    -0.206 OA 
HETATM   19  C   UNL     1     -10.862  12.526  65.793  1.00  0.00    -0.276 A  
HETATM   20  C   UNL     1     -11.892  11.744  65.261  1.00  0.00    -0.047 A  
HETATM   21  C   UNL     1     -12.650  12.211  64.190  1.00  0.00    -0.466 A  
HETATM   22  C   UNL     1     -12.375  13.463  63.649  1.00  0.00    -0.422 A  
HETATM   23  C   UNL     1     -11.333  14.238  64.165  1.00  0.00    -0.074 A  
HETATM   24  C   UNL     1     -10.565  13.781  65.251  1.00  0.00    -0.363 A  
ENDBRANCH   9  11
ENDBRANCH   8   9
ENDBRANCH   7   8
ENDBRANCH   6   7
ENDBRANCH   4   6
BRANCH   4  25
HETATM   25  C   UNL     1      -8.967  19.521  68.704  1.00  0.00    -0.336 C  
HETATM   26  C   UNL     1     -10.194  20.330  68.285  1.00  0.00    -0.373 C  
HETATM   27  C   UNL     1      -9.443  18.128  69.157  1.00  0.00    -0.022 C  
ENDBRANCH   4  25
ENDBRANCH   2   4
TORSDOF 7
ENDMDL
MODEL      221
REMARK 921   NORMALIZED FREE ENERGY PREDICTED BY IDOCK:   -3.59 KCAL/MOL
REMARK 922        TOTAL FREE ENERGY PREDICTED BY IDOCK:   -6.24 KCAL/MOL
REMARK 923 INTER-LIGAND FREE ENERGY PREDICTED BY IDOCK:   -5.13 KCAL/MOL
REMARK 924 INTRA-LIGAND FREE ENERGY PREDICTED BY IDOCK:   -1.10 KCAL/MOL
REMARK 927      BINDING AFFINITY PREDICTED BY RF-SCORE:    0.00 PKD
ROOT
HETATM    1  C   UNL     1      -5.706   3.129  66.086  1.00  0.00    -0.018 C  
HETATM    2  C   UNL     1      -6.707   4.233  65.728  1.00  0.00    -0.052 C  
HETATM    3  C   UNL     1      -7.377   3.985  64.376  1.00  0.00    -0.067 C  
ENDROOT
BRANCH   2   4
HETATM    4  N   UNL     1      -7.751   4.588  66.864  1.00  0.00    -0.093 N  
HETATM    5  C   UNL     1      -7.093   4.379  68.240  1.00  0.00    -0.060 C  
BRANCH   4   6
HETATM    6  C   UNL     1      -8.118   6.120  66.752  1.00  0.00    -0.109 C  
BRANCH   6   7
HETATM    7  C   UNL     1      -7.488   7.055  67.791  1.00  0.00    -0.098 C  
BRANCH   7   8
HETATM    8  O   UNL     1      -8.518   7.600  68.633  1.00  0.00    -0.128 OA 
BRANCH   8   9
HETATM    9  C   UNL     1      -8.136   8.017  69.886  1.00  0.00    -0.117 C  
HETATM   10  O   UNL     1      -7.346   7.360  70.558  1.00  0.00    -0.073 OA 
BRANCH   9  11
HETATM   11  C   UNL     1      -8.760   9.363  70.297  1.00  0.00    -0.261 C  
HETATM   12  C   UNL     1      -8.766  10.379  69.167  1.00  0.00    -0.173 A  
HETATM   13  C   UNL     1      -7.560  10.832  68.600  1.00  0.00    -0.106 A  
HETATM   14  C   UNL     1      -7.570  11.618  67.448  1.00  0.00    -0.139 A  
HETATM   15  C   UNL     1      -8.782  12.002  66.880  1.00  0.00    -0.193 A  
HETATM   16  C   UNL     1      -9.981  11.621  67.482  1.00  0.00    -0.202 A  
HETATM   17  C   UNL     1      -9.973  10.814  68.621  1.00  0.00    -0.182 A  
HETATM   18  O   UNL     1     -11.201  10.489  69.134  1.00  0.00    -0.228 OA 
HETATM   19  C   UNL     1     -11.259   9.756  70.293  1.00  0.00    -0.288 A  
HETATM   20  C   UNL     1     -12.532   9.608  70.852  1.00  0.00    -0.320 A  
HETATM   21  C   UNL     1     -12.708   8.857  72.012  1.00  0.00    -0.456 A  
HETATM   22  C   UNL     1     -11.608   8.257  72.616  1.00  0.00    -0.419 A  
HETATM   23  C   UNL     1     -10.332   8.421  72.071  1.00  0.00    -0.374 A  
HETATM   24  C   UNL     1     -10.141   9.170  70.896  1.00  0.00    -0.356 A  
ENDBRANCH   9  11
ENDBRANCH   8   9
ENDBRANCH   7   8
ENDBRANCH   6   7
ENDBRANCH   4   6
BRANCH   4  25
HETATM   25  C   UNL     1      -9.145   3.805  66.768  1.00  0.00    -0.159 C  
HETATM   26  C   UNL     1      -9.412   2.855  67.935  1.00  0.00    -0.203 C  
HETATM   27  C   UNL     1     -10.350   4.754  66.636  1.00  0.00    -0.258 C  
ENDBRANCH   4  25
ENDBRANCH   2   4
TORSDOF 7
ENDMDL
MODEL      222
REMARK 921   NORMALIZED FREE ENERGY PREDICTED BY IDOCK:   -3.58 KCAL/MOL
REMARK 922        TOTAL FREE ENERGY PREDICTED BY IDOCK:   -6.23 KCAL/MOL
REMARK 923 INTER-LIGAND FREE ENERGY PREDICTED BY IDOCK:   -6.62 KCAL/MOL
REMARK 924 INTRA-LIGAND FREE ENERGY PREDICTED BY IDOCK:    0.38 KCAL/MOL
REMARK 927      BINDING AFFINITY PREDICTED BY RF-SCORE:    0.00 PKD
ROOT
HETATM    1  C   UNL     1      -9.457   8.454  72.998  1.00  0.00    -0.237 C  
HETATM    2  C   UNL     1      -8.991   7.232  72.199  1.00  0.00    -0.131 C  
HETATM    3  C   UNL     1      -8.513   6.098  73.106  1.00  0.00    -0.117 C  
ENDROOT
BRANCH   2   4
HETATM    4  N   UNL     1     -10.001   6.732  71.086  1.00  0.00    -0.182 N  
HETATM    5  C   UNL     1     -10.496   5.320  71.448  1.00  0.00    -0.203 C  
BRANCH   4   6
HETATM    6  C   UNL     1     -11.263   7.682  71.086  1.00  0.00    -0.261 C  
BRANCH   6   7
HETATM    7  C   UNL     1     -10.988   9.190  71.118  1.00  0.00    -0.320 C  
BRANCH   7   8
HETATM    8  O   UNL     1     -12.227   9.901  71.280  1.00  0.00    -0.330 OA 
BRANCH   8   9
HETATM    9  C   UNL     1     -12.576  10.773  70.277  1.00  0.00    -0.276 C  
HETATM   10  O   UNL     1     -13.496  10.515  69.506  1.00  0.00     0.440 OA 
BRANCH   9  11
HETATM   11  C   UNL     1     -11.736  12.063  70.273  1.00  0.00    -0.267 C  
HETATM   12  C   UNL     1     -11.154  12.382  68.906  1.00  0.00    -0.307 A  
HETATM   13  C   UNL     1     -10.251  11.499  68.284  1.00  0.00    -0.205 A  
HETATM   14  C   UNL     1      -9.863  11.700  66.959  1.00  0.00    -0.211 A  
HETATM   15  C   UNL     1     -10.331  12.809  66.259  1.00  0.00    -0.271 A  
HETATM   16  C   UNL     1     -11.164  13.729  66.894  1.00  0.00    -0.326 A  
HETATM   17  C   UNL     1     -11.573  13.517  68.212  1.00  0.00    -0.346 A  
HETATM   18  O   UNL     1     -12.396  14.473  68.747  1.00  0.00    -0.189 OA 
HETATM   19  C   UNL     1     -12.776  14.358  70.061  1.00  0.00    -0.136 A  
HETATM   20  C   UNL     1     -13.470  15.452  70.587  1.00  0.00    -0.213 A  
HETATM   21  C   UNL     1     -13.928  15.428  71.902  1.00  0.00    -0.629 A  
HETATM   22  C   UNL     1     -13.689  14.308  72.693  1.00  0.00    -0.555 A  
HETATM   23  C   UNL     1     -12.978  13.222  72.174  1.00  0.00    -0.395 A  
HETATM   24  C   UNL     1     -12.516  13.231  70.846  1.00  0.00    -0.424 A  
ENDBRANCH   9  11
ENDBRANCH   8   9
ENDBRANCH   7   8
ENDBRANCH   6   7
ENDBRANCH   4   6
BRANCH   4  25
HETATM   25  C   UNL     1      -9.431   6.777  69.590  1.00  0.00    -0.146 C  
HETATM   26  C   UNL     1      -8.226   5.868  69.351  1.00  0.00    -0.113 C  
HETATM   27  C   UNL     1     -10.502   6.440  68.537  1.00  0.00    -0.265 C  
ENDBRANCH   4  25
ENDBRANCH   2   4
TORSDOF 7
ENDMDL
MODEL      223
REMARK 921   NORMALIZED FREE ENERGY PREDICTED BY IDOCK:   -3.58 KCAL/MOL
REMARK 922        TOTAL FREE ENERGY PREDICTED BY IDOCK:   -6.23 KCAL/MOL
REMARK 923 INTER-LIGAND FREE ENERGY PREDICTED BY IDOCK:   -5.24 KCAL/MOL
REMARK 924 INTRA-LIGAND FREE ENERGY PREDICTED BY IDOCK:   -0.99 KCAL/MOL
REMARK 927      BINDING AFFINITY PREDICTED BY RF-SCORE:    0.00 PKD
ROOT
HETATM    1  C   UNL     1      -9.096   2.046  67.707  1.00  0.00    -0.209 C  
HETATM    2  C   UNL     1      -8.465   3.424  67.478  1.00  0.00    -0.097 C  
HETATM    3  C   UNL     1      -6.941   3.386  67.593  1.00  0.00    -0.050 C  
ENDROOT
BRANCH   2   4
HETATM    4  N   UNL     1      -8.956   4.179  66.175  1.00  0.00    -0.121 N  
HETATM    5  C   UNL     1     -10.406   4.653  66.380  1.00  0.00    -0.226 C  
BRANCH   4   6
HETATM    6  C   UNL     1      -8.068   5.470  65.975  1.00  0.00    -0.108 C  
BRANCH   6   7
HETATM    7  C   UNL     1      -8.814   6.803  65.854  1.00  0.00    -0.110 C  
BRANCH   7   8
HETATM    8  O   UNL     1      -8.767   7.495  67.114  1.00  0.00    -0.119 OA 
BRANCH   8   9
HETATM    9  C   UNL     1      -9.894   8.193  67.478  1.00  0.00    -0.177 C  
HETATM   10  O   UNL     1     -10.920   8.133  66.806  1.00  0.00    -0.063 OA 
BRANCH   9  11
HETATM   11  C   UNL     1      -9.724   8.984  68.788  1.00  0.00    -0.165 C  
HETATM   12  C   UNL     1     -10.139  10.439  68.655  1.00  0.00    -0.188 A  
HETATM   13  C   UNL     1      -9.473  11.300  67.762  1.00  0.00    -0.173 A  
HETATM   14  C   UNL     1      -9.970  12.577  67.506  1.00  0.00    -0.201 A  
HETATM   15  C   UNL     1     -11.104  13.028  68.176  1.00  0.00    -0.285 A  
HETATM   16  C   UNL     1     -11.724  12.210  69.120  1.00  0.00    -0.384 A  
HETATM   17  C   UNL     1     -11.242  10.921  69.359  1.00  0.00    -0.272 A  
HETATM   18  O   UNL     1     -11.921  10.192  70.300  1.00  0.00    -0.265 OA 
HETATM   19  C   UNL     1     -11.455   8.944  70.631  1.00  0.00    -0.242 A  
HETATM   20  C   UNL     1     -12.090   8.330  71.715  1.00  0.00    -0.364 A  
HETATM   21  C   UNL     1     -11.715   7.050  72.116  1.00  0.00    -0.321 A  
HETATM   22  C   UNL     1     -10.701   6.385  71.434  1.00  0.00    -0.290 A  
HETATM   23  C   UNL     1     -10.052   7.005  70.363  1.00  0.00    -0.198 A  
HETATM   24  C   UNL     1     -10.425   8.294  69.943  1.00  0.00    -0.223 A  
ENDBRANCH   9  11
ENDBRANCH   8   9
ENDBRANCH   7   8
ENDBRANCH   6   7
ENDBRANCH   4   6
BRANCH   4  25
HETATM   25  C   UNL     1      -8.810   3.343  64.817  1.00  0.00    -0.121 C  
HETATM   26  C   UNL     1     -10.057   3.359  63.934  1.00  0.00    -0.196 C  
HETATM   27  C   UNL     1      -7.613   3.800  63.965  1.00  0.00    -0.075 C  
ENDBRANCH   4  25
ENDBRANCH   2   4
TORSDOF 7
ENDMDL
MODEL      224
REMARK 921   NORMALIZED FREE ENERGY PREDICTED BY IDOCK:   -3.57 KCAL/MOL
REMARK 922        TOTAL FREE ENERGY PREDICTED BY IDOCK:   -6.22 KCAL/MOL
REMARK 923 INTER-LIGAND FREE ENERGY PREDICTED BY IDOCK:   -5.72 KCAL/MOL
REMARK 924 INTRA-LIGAND FREE ENERGY PREDICTED BY IDOCK:   -0.50 KCAL/MOL
REMARK 927      BINDING AFFINITY PREDICTED BY RF-SCORE:    0.00 PKD
ROOT
HETATM    1  C   UNL     1      -7.582   5.177  70.268  1.00  0.00    -0.071 C  
HETATM    2  C   UNL     1      -8.986   5.534  70.770  1.00  0.00    -0.142 C  
HETATM    3  C   UNL     1      -9.791   4.293  71.157  1.00  0.00    -0.250 C  
ENDROOT
BRANCH   2   4
HETATM    4  N   UNL     1      -9.035   6.660  71.881  1.00  0.00    -0.137 N  
HETATM    5  C   UNL     1      -7.645   6.797  72.527  1.00  0.00    -0.095 C  
BRANCH   4   6
HETATM    6  C   UNL     1      -9.364   8.041  71.187  1.00  0.00    -0.149 C  
BRANCH   6   7
HETATM    7  C   UNL     1      -9.365   8.055  69.655  1.00  0.00    -0.156 C  
BRANCH   7   8
HETATM    8  O   UNL     1      -9.030   9.373  69.187  1.00  0.00    -0.138 OA 
BRANCH   8   9
HETATM    9  C   UNL     1     -10.077  10.182  68.816  1.00  0.00    -0.187 C  
HETATM   10  O   UNL     1     -11.220   9.955  69.204  1.00  0.00    -0.197 OA 
BRANCH   9  11
HETATM   11  C   UNL     1      -9.648  11.367  67.933  1.00  0.00    -0.180 C  
HETATM   12  C   UNL     1      -9.557  11.002  66.461  1.00  0.00    -0.223 A  
HETATM   13  C   UNL     1      -8.648  10.024  66.016  1.00  0.00    -0.148 A  
HETATM   14  C   UNL     1      -8.694   9.559  64.702  1.00  0.00    -0.233 A  
HETATM   15  C   UNL     1      -9.610  10.101  63.805  1.00  0.00    -0.285 A  
HETATM   16  C   UNL     1     -10.462  11.126  64.218  1.00  0.00    -0.427 A  
HETATM   17  C   UNL     1     -10.434  11.575  65.540  1.00  0.00    -0.275 A  
HETATM   18  O   UNL     1     -11.312  12.580  65.850  1.00  0.00    -0.308 OA 
HETATM   19  C   UNL     1     -11.286  13.113  67.115  1.00  0.00    -0.294 A  
HETATM   20  C   UNL     1     -12.083  14.244  67.311  1.00  0.00    -0.390 A  
HETATM   21  C   UNL     1     -12.153  14.847  68.565  1.00  0.00    -0.193 A  
HETATM   22  C   UNL     1     -11.421  14.319  69.623  1.00  0.00    -0.334 A  
HETATM   23  C   UNL     1     -10.607  13.200  69.424  1.00  0.00     0.218 A  
HETATM   24  C   UNL     1     -10.533  12.577  68.166  1.00  0.00    -0.238 A  
ENDBRANCH   9  11
ENDBRANCH   8   9
ENDBRANCH   7   8
ENDBRANCH   6   7
ENDBRANCH   4   6
BRANCH   4  25
HETATM   25  C   UNL     1     -10.169   6.459  72.994  1.00  0.00    -0.199 C  
HETATM   26  C   UNL     1      -9.675   6.627  74.431  1.00  0.00    -0.329 C  
HETATM   27  C   UNL     1     -11.375   7.395  72.789  1.00  0.00    -0.356 C  
ENDBRANCH   4  25
ENDBRANCH   2   4
TORSDOF 7
ENDMDL
MODEL      225
REMARK 921   NORMALIZED FREE ENERGY PREDICTED BY IDOCK:   -3.56 KCAL/MOL
REMARK 922        TOTAL FREE ENERGY PREDICTED BY IDOCK:   -6.21 KCAL/MOL
REMARK 923 INTER-LIGAND FREE ENERGY PREDICTED BY IDOCK:   -4.42 KCAL/MOL
REMARK 924 INTRA-LIGAND FREE ENERGY PREDICTED BY IDOCK:   -1.79 KCAL/MOL
REMARK 927      BINDING AFFINITY PREDICTED BY RF-SCORE:    0.00 PKD
ROOT
HETATM    1  C   UNL     1     -13.042   7.167  71.471  1.00  0.00    -0.427 C  
HETATM    2  C   UNL     1     -11.692   7.599  70.886  1.00  0.00    -0.271 C  
HETATM    3  C   UNL     1     -11.588   9.117  70.741  1.00  0.00    -0.329 C  
ENDROOT
BRANCH   2   4
HETATM    4  N   UNL     1     -10.423   6.969  71.591  1.00  0.00    -0.200 N  
HETATM    5  C   UNL     1     -10.832   6.407  72.965  1.00  0.00    -0.259 C  
BRANCH   4   6
HETATM    6  C   UNL     1      -9.915   5.751  70.723  1.00  0.00    -0.193 C  
BRANCH   6   7
HETATM    7  C   UNL     1     -10.580   5.558  69.355  1.00  0.00    -0.279 C  
BRANCH   7   8
HETATM    8  O   UNL     1      -9.707   6.049  68.324  1.00  0.00    -0.119 OA 
BRANCH   8   9
HETATM    9  C   UNL     1     -10.290   6.777  67.314  1.00  0.00    -0.244 C  
HETATM   10  O   UNL     1     -11.506   6.760  67.144  1.00  0.00    -0.210 OA 
BRANCH   9  11
HETATM   11  C   UNL     1      -9.281   7.602  66.496  1.00  0.00    -0.220 C  
HETATM   12  C   UNL     1      -8.637   8.715  67.306  1.00  0.00    -0.125 A  
HETATM   13  C   UNL     1      -9.418   9.753  67.850  1.00  0.00    -0.146 A  
HETATM   14  C   UNL     1      -8.858  10.667  68.742  1.00  0.00    -0.161 A  
HETATM   15  C   UNL     1      -7.505  10.588  69.060  1.00  0.00    -0.112 A  
HETATM   16  C   UNL     1      -6.708   9.610  68.463  1.00  0.00    -0.052 A  
HETATM   17  C   UNL     1      -7.273   8.679  67.589  1.00  0.00    -0.084 A  
HETATM   18  O   UNL     1      -6.411   7.754  67.060  1.00  0.00    -0.052 OA 
HETATM   19  C   UNL     1      -6.891   6.855  66.140  1.00  0.00    -0.064 A  
HETATM   20  C   UNL     1      -5.927   6.058  65.515  1.00  0.00    -0.025 A  
HETATM   21  C   UNL     1      -6.308   5.092  64.587  1.00  0.00    -0.034 A  
HETATM   22  C   UNL     1      -7.655   4.926  64.281  1.00  0.00    -0.073 A  
HETATM   23  C   UNL     1      -8.618   5.736  64.890  1.00  0.00    -0.065 A  
HETATM   24  C   UNL     1      -8.247   6.710  65.834  1.00  0.00    -0.132 A  
ENDBRANCH   9  11
ENDBRANCH   8   9
ENDBRANCH   7   8
ENDBRANCH   6   7
ENDBRANCH   4   6
BRANCH   4  25
HETATM   25  C   UNL     1      -9.167   7.954  71.724  1.00  0.00    -0.150 C  
HETATM   26  C   UNL     1      -8.783   8.291  73.164  1.00  0.00    -0.291 C  
HETATM   27  C   UNL     1      -7.914   7.417  71.007  1.00  0.00    -0.097 C  
ENDBRANCH   4  25
ENDBRANCH   2   4
TORSDOF 7
ENDMDL
MODEL      226
REMARK 921   NORMALIZED FREE ENERGY PREDICTED BY IDOCK:   -3.52 KCAL/MOL
REMARK 922        TOTAL FREE ENERGY PREDICTED BY IDOCK:   -6.15 KCAL/MOL
REMARK 923 INTER-LIGAND FREE ENERGY PREDICTED BY IDOCK:   -5.70 KCAL/MOL
REMARK 924 INTRA-LIGAND FREE ENERGY PREDICTED BY IDOCK:   -0.45 KCAL/MOL
REMARK 927      BINDING AFFINITY PREDICTED BY RF-SCORE:    0.00 PKD
ROOT
HETATM    1  C   UNL     1     -10.931  12.426  64.813  1.00  0.00    -0.340 C  
HETATM    2  C   UNL     1     -10.201  11.164  64.337  1.00  0.00    -0.330 C  
HETATM    3  C   UNL     1      -9.787  11.259  62.868  1.00  0.00    -0.317 C  
ENDROOT
BRANCH   2   4
HETATM    4  N   UNL     1      -9.017  10.681  65.270  1.00  0.00    -0.185 N  
HETATM    5  C   UNL     1      -8.524  11.866  66.119  1.00  0.00     0.112 C  
BRANCH   4   6
HETATM    6  C   UNL     1      -9.574   9.592  66.269  1.00  0.00    -0.226 C  
BRANCH   6   7
HETATM    7  C   UNL     1      -8.984   9.594  67.684  1.00  0.00    -0.125 C  
BRANCH   7   8
HETATM    8  O   UNL     1      -9.962   9.091  68.612  1.00  0.00    -0.162 OA 
BRANCH   8   9
HETATM    9  C   UNL     1     -10.507   9.998  69.488  1.00  0.00    -0.240 C  
HETATM   10  O   UNL     1     -10.991  11.053  69.087  1.00  0.00    -0.207 OA 
BRANCH   9  11
HETATM   11  C   UNL     1     -10.470   9.528  70.953  1.00  0.00    -0.382 C  
HETATM   12  C   UNL     1     -11.822   9.043  71.450  1.00  0.00    -0.395 A  
HETATM   13  C   UNL     1     -12.926   9.915  71.500  1.00  0.00    -0.523 A  
HETATM   14  C   UNL     1     -14.202   9.427  71.778  1.00  0.00    -0.094 A  
HETATM   15  C   UNL     1     -14.383   8.075  72.059  1.00  0.00    -0.511 A  
HETATM   16  C   UNL     1     -13.282   7.219  72.087  1.00  0.00    -0.053 A  
HETATM   17  C   UNL     1     -12.007   7.702  71.785  1.00  0.00    -0.299 A  
HETATM   18  O   UNL     1     -10.991   6.784  71.834  1.00  0.00    -0.229 OA 
HETATM   19  C   UNL     1      -9.705   7.210  71.615  1.00  0.00    -0.159 A  
HETATM   20  C   UNL     1      -8.705   6.260  71.849  1.00  0.00    -0.136 A  
HETATM   21  C   UNL     1      -7.367   6.578  71.629  1.00  0.00    -0.087 A  
HETATM   22  C   UNL     1      -7.028   7.850  71.178  1.00  0.00    -0.049 A  
HETATM   23  C   UNL     1      -8.024   8.807  70.964  1.00  0.00    -0.170 A  
HETATM   24  C   UNL     1      -9.379   8.497  71.175  1.00  0.00    -0.249 A  
ENDBRANCH   9  11
ENDBRANCH   8   9
ENDBRANCH   7   8
ENDBRANCH   6   7
ENDBRANCH   4   6
BRANCH   4  25
HETATM   25  C   UNL     1      -7.799   9.976  64.503  1.00  0.00    -0.145 C  
HETATM   26  C   UNL     1      -6.418  10.463  64.939  1.00  0.00    -0.072 C  
HETATM   27  C   UNL     1      -7.829   8.442  64.627  1.00  0.00    -0.127 C  
ENDBRANCH   4  25
ENDBRANCH   2   4
TORSDOF 7
ENDMDL
MODEL      227
REMARK 921   NORMALIZED FREE ENERGY PREDICTED BY IDOCK:   -3.50 KCAL/MOL
REMARK 922        TOTAL FREE ENERGY PREDICTED BY IDOCK:   -6.11 KCAL/MOL
REMARK 923 INTER-LIGAND FREE ENERGY PREDICTED BY IDOCK:   -4.65 KCAL/MOL
REMARK 924 INTRA-LIGAND FREE ENERGY PREDICTED BY IDOCK:   -1.46 KCAL/MOL
REMARK 927      BINDING AFFINITY PREDICTED BY RF-SCORE:    0.00 PKD
ROOT
HETATM    1  C   UNL     1      -9.666  13.998  65.885  1.00  0.00    -0.250 C  
HETATM    2  C   UNL     1      -9.815  13.444  67.307  1.00  0.00    -0.233 C  
HETATM    3  C   UNL     1      -8.846  14.106  68.287  1.00  0.00    -0.187 C  
ENDROOT
BRANCH   2   4
HETATM    4  N   UNL     1     -11.299  13.400  67.858  1.00  0.00    -0.274 N  
HETATM    5  C   UNL     1     -12.240  14.057  66.832  1.00  0.00    -0.380 C  
BRANCH   4   6
HETATM    6  C   UNL     1     -11.742  11.890  67.996  1.00  0.00    -0.312 C  
BRANCH   6   7
HETATM    7  C   UNL     1     -10.684  10.831  67.664  1.00  0.00    -0.258 C  
BRANCH   7   8
HETATM    8  O   UNL     1      -9.821  10.643  68.798  1.00  0.00    -0.175 OA 
BRANCH   8   9
HETATM    9  C   UNL     1      -9.295   9.386  68.973  1.00  0.00    -0.153 C  
HETATM   10  O   UNL     1      -9.949   8.496  69.511  1.00  0.00    -0.185 OA 
BRANCH   9  11
HETATM   11  C   UNL     1      -7.874   9.234  68.402  1.00  0.00    -0.094 C  
HETATM   12  C   UNL     1      -7.867   8.955  66.908  1.00  0.00    -0.101 A  
HETATM   13  C   UNL     1      -8.465   7.791  66.390  1.00  0.00    -0.136 A  
HETATM   14  C   UNL     1      -8.620   7.626  65.014  1.00  0.00     0.045 A  
HETATM   15  C   UNL     1      -8.137   8.595  64.140  1.00  0.00    -0.162 A  
HETATM   16  C   UNL     1      -7.474   9.715  64.643  1.00  0.00    -0.123 A  
HETATM   17  C   UNL     1      -7.339   9.893  66.021  1.00  0.00    -0.106 A  
HETATM   18  O   UNL     1      -6.679  11.026  66.418  1.00  0.00    -0.128 OA 
HETATM   19  C   UNL     1      -6.453  11.224  67.757  1.00  0.00    -0.060 A  
HETATM   20  C   UNL     1      -5.628  12.307  68.077  1.00  0.00    -0.064 A  
HETATM   21  C   UNL     1      -5.357  12.615  69.408  1.00  0.00    -0.076 A  
HETATM   22  C   UNL     1      -5.910  11.837  70.420  1.00  0.00    -0.156 A  
HETATM   23  C   UNL     1      -6.718  10.742  70.102  1.00  0.00    -0.116 A  
HETATM   24  C   UNL     1      -7.005  10.424  68.763  1.00  0.00    -0.068 A  
ENDBRANCH   9  11
ENDBRANCH   8   9
ENDBRANCH   7   8
ENDBRANCH   6   7
ENDBRANCH   4   6
BRANCH   4  25
HETATM   25  C   UNL     1     -11.497  14.040  69.313  1.00  0.00    -0.295 C  
HETATM   26  C   UNL     1     -12.121  15.435  69.305  1.00  0.00    -0.283 C  
HETATM   27  C   UNL     1     -12.334  13.145  70.245  1.00  0.00    -0.319 C  
ENDBRANCH   4  25
ENDBRANCH   2   4
TORSDOF 7
ENDMDL
MODEL      228
REMARK 921   NORMALIZED FREE ENERGY PREDICTED BY IDOCK:   -3.49 KCAL/MOL
REMARK 922        TOTAL FREE ENERGY PREDICTED BY IDOCK:   -6.10 KCAL/MOL
REMARK 923 INTER-LIGAND FREE ENERGY PREDICTED BY IDOCK:   -5.73 KCAL/MOL
REMARK 924 INTRA-LIGAND FREE ENERGY PREDICTED BY IDOCK:   -0.37 KCAL/MOL
REMARK 927      BINDING AFFINITY PREDICTED BY RF-SCORE:    0.00 PKD
ROOT
HETATM    1  C   UNL     1     -12.001  12.075  69.125  1.00  0.00    -0.326 C  
HETATM    2  C   UNL     1     -11.910  13.456  68.465  1.00  0.00    -0.366 C  
HETATM    3  C   UNL     1     -11.614  14.561  69.480  1.00  0.00    -0.350 C  
ENDROOT
BRANCH   2   4
HETATM    4  N   UNL     1     -10.969  13.532  67.195  1.00  0.00    -0.287 N  
HETATM    5  C   UNL     1      -9.812  14.507  67.478  1.00  0.00    -0.222 C  
BRANCH   4   6
HETATM    6  C   UNL     1     -10.328  12.108  66.954  1.00  0.00    -0.212 C  
BRANCH   6   7
HETATM    7  C   UNL     1      -9.024  11.807  67.701  1.00  0.00    -0.169 C  
BRANCH   7   8
HETATM    8  O   UNL     1      -8.623  10.452  67.439  1.00  0.00    -0.125 OA 
BRANCH   8   9
HETATM    9  C   UNL     1      -9.629   9.533  67.259  1.00  0.00    -0.150 C  
HETATM   10  O   UNL     1     -10.613   9.520  67.994  1.00  0.00    -0.222 OA 
BRANCH   9  11
HETATM   11  C   UNL     1      -9.395   8.601  66.056  1.00  0.00    -0.284 C  
HETATM   12  C   UNL     1      -9.147   9.360  64.763  1.00  0.00    -0.248 A  
HETATM   13  C   UNL     1     -10.134  10.209  64.226  1.00  0.00    -0.030 A  
HETATM   14  C   UNL     1      -9.841  11.042  63.147  1.00  0.00    -0.398 A  
HETATM   15  C   UNL     1      -8.579  11.000  62.560  1.00  0.00    -0.305 A  
HETATM   16  C   UNL     1      -7.622  10.104  63.037  1.00  0.00    -0.143 A  
HETATM   17  C   UNL     1      -7.906   9.287  64.133  1.00  0.00    -0.125 A  
HETATM   18  O   UNL     1      -6.899   8.447  64.531  1.00  0.00    -0.068 OA 
HETATM   19  C   UNL     1      -7.140   7.569  65.559  1.00  0.00    -0.061 A  
HETATM   20  C   UNL     1      -6.134   6.628  65.797  1.00  0.00    -0.034 A  
HETATM   21  C   UNL     1      -6.263   5.708  66.836  1.00  0.00    -0.034 A  
HETATM   22  C   UNL     1      -7.402   5.729  67.635  1.00  0.00    -0.077 A  
HETATM   23  C   UNL     1      -8.417   6.656  67.385  1.00  0.00    -0.120 A  
HETATM   24  C   UNL     1      -8.297   7.594  66.344  1.00  0.00    -0.129 A  
ENDBRANCH   9  11
ENDBRANCH   8   9
ENDBRANCH   7   8
ENDBRANCH   6   7
ENDBRANCH   4   6
BRANCH   4  25
HETATM   25  C   UNL     1     -11.713  13.904  65.826  1.00  0.00    -0.359 C  
HETATM   26  C   UNL     1     -10.777  14.355  64.705  1.00  0.00    -0.423 C  
HETATM   27  C   UNL     1     -12.582  12.752  65.291  1.00  0.00    -0.460 C  
ENDBRANCH   4  25
ENDBRANCH   2   4
TORSDOF 7
ENDMDL
MODEL      229
REMARK 921   NORMALIZED FREE ENERGY PREDICTED BY IDOCK:   -3.46 KCAL/MOL
REMARK 922        TOTAL FREE ENERGY PREDICTED BY IDOCK:   -6.06 KCAL/MOL
REMARK 923 INTER-LIGAND FREE ENERGY PREDICTED BY IDOCK:   -4.98 KCAL/MOL
REMARK 924 INTRA-LIGAND FREE ENERGY PREDICTED BY IDOCK:   -1.08 KCAL/MOL
REMARK 927      BINDING AFFINITY PREDICTED BY RF-SCORE:    0.00 PKD
ROOT
HETATM    1  C   UNL     1      -9.508   2.387  68.086  1.00  0.00    -0.215 C  
HETATM    2  C   UNL     1      -8.656   3.659  68.003  1.00  0.00    -0.098 C  
HETATM    3  C   UNL     1      -7.193   3.396  68.357  1.00  0.00    -0.050 C  
ENDROOT
BRANCH   2   4
HETATM    4  N   UNL     1      -8.817   4.488  66.664  1.00  0.00    -0.111 N  
HETATM    5  C   UNL     1     -10.310   4.769  66.417  1.00  0.00    -0.273 C  
BRANCH   4   6
HETATM    6  C   UNL     1      -8.105   5.887  66.848  1.00  0.00    -0.102 C  
BRANCH   6   7
HETATM    7  C   UNL     1      -8.992   7.130  66.719  1.00  0.00    -0.137 C  
BRANCH   7   8
HETATM    8  O   UNL     1      -9.003   7.844  67.967  1.00  0.00    -0.128 OA 
BRANCH   8   9
HETATM    9  C   UNL     1      -9.910   8.870  68.085  1.00  0.00    -0.167 C  
HETATM   10  O   UNL     1     -10.842   8.984  67.294  1.00  0.00    -0.223 OA 
BRANCH   9  11
HETATM   11  C   UNL     1      -9.643   9.783  69.295  1.00  0.00    -0.204 C  
HETATM   12  C   UNL     1     -10.099   9.167  70.608  1.00  0.00    -0.307 A  
HETATM   13  C   UNL     1     -11.455   8.860  70.827  1.00  0.00    -0.319 A  
HETATM   14  C   UNL     1     -11.843   8.131  71.951  1.00  0.00    -0.366 A  
HETATM   15  C   UNL     1     -10.892   7.746  72.892  1.00  0.00    -0.453 A  
HETATM   16  C   UNL     1      -9.558   8.114  72.720  1.00  0.00    -0.353 A  
HETATM   17  C   UNL     1      -9.164   8.823  71.584  1.00  0.00    -0.263 A  
HETATM   18  O   UNL     1      -7.832   9.133  71.503  1.00  0.00    -0.330 OA 
HETATM   19  C   UNL     1      -7.393   9.890  70.444  1.00  0.00    -0.127 A  
HETATM   20  C   UNL     1      -6.062  10.313  70.514  1.00  0.00    -0.114 A  
HETATM   21  C   UNL     1      -5.506  11.060  69.479  1.00  0.00    -0.042 A  
HETATM   22  C   UNL     1      -6.284  11.388  68.373  1.00  0.00    -0.045 A  
HETATM   23  C   UNL     1      -7.621  10.983  68.311  1.00  0.00    -0.106 A  
HETATM   24  C   UNL     1      -8.192  10.222  69.346  1.00  0.00    -0.171 A  
ENDBRANCH   9  11
ENDBRANCH   8   9
ENDBRANCH   7   8
ENDBRANCH   6   7
ENDBRANCH   4   6
BRANCH   4  25
HETATM   25  C   UNL     1      -8.134   3.826  65.376  1.00  0.00    -0.097 C  
HETATM   26  C   UNL     1      -9.109   3.511  64.242  1.00  0.00    -0.126 C  
HETATM   27  C   UNL     1      -6.992   4.685  64.802  1.00  0.00    -0.054 C  
ENDBRANCH   4  25
ENDBRANCH   2   4
TORSDOF 7
ENDMDL
MODEL      230
REMARK 921   NORMALIZED FREE ENERGY PREDICTED BY IDOCK:   -3.45 KCAL/MOL
REMARK 922        TOTAL FREE ENERGY PREDICTED BY IDOCK:   -6.05 KCAL/MOL
REMARK 923 INTER-LIGAND FREE ENERGY PREDICTED BY IDOCK:   -5.50 KCAL/MOL
REMARK 924 INTRA-LIGAND FREE ENERGY PREDICTED BY IDOCK:   -0.55 KCAL/MOL
REMARK 927      BINDING AFFINITY PREDICTED BY RF-SCORE:    0.00 PKD
ROOT
HETATM    1  C   UNL     1      -9.450   8.427  73.056  1.00  0.00    -0.237 C  
HETATM    2  C   UNL     1      -9.308   7.261  72.070  1.00  0.00    -0.133 C  
HETATM    3  C   UNL     1      -8.866   5.972  72.764  1.00  0.00    -0.123 C  
ENDROOT
BRANCH   2   4
HETATM    4  N   UNL     1     -10.546   7.038  71.110  1.00  0.00    -0.216 N  
HETATM    5  C   UNL     1     -11.435   5.918  71.679  1.00  0.00    -0.172 C  
BRANCH   4   6
HETATM    6  C   UNL     1     -11.415   8.357  71.091  1.00  0.00    -0.274 C  
BRANCH   6   7
HETATM    7  C   UNL     1     -10.728   9.625  70.571  1.00  0.00    -0.311 C  
BRANCH   7   8
HETATM    8  O   UNL     1     -11.515  10.198  69.512  1.00  0.00    -0.229 OA 
BRANCH   8   9
HETATM    9  C   UNL     1     -10.855  10.498  68.345  1.00  0.00    -0.240 C  
HETATM   10  O   UNL     1     -10.890   9.734  67.384  1.00  0.00    -0.274 OA 
BRANCH   9  11
HETATM   11  C   UNL     1     -10.140  11.861  68.382  1.00  0.00    -0.206 C  
HETATM   12  C   UNL     1      -8.626  11.732  68.380  1.00  0.00    -0.156 A  
HETATM   13  C   UNL     1      -7.958  11.076  69.430  1.00  0.00     0.036 A  
HETATM   14  C   UNL     1      -6.594  10.797  69.338  1.00  0.00    -0.085 A  
HETATM   15  C   UNL     1      -5.875  11.214  68.221  1.00  0.00    -0.045 A  
HETATM   16  C   UNL     1      -6.515  11.933  67.212  1.00  0.00    -0.141 A  
HETATM   17  C   UNL     1      -7.884  12.192  67.293  1.00  0.00    -0.176 A  
HETATM   18  O   UNL     1      -8.423  12.899  66.250  1.00  0.00     0.216 OA 
HETATM   19  C   UNL     1      -9.750  13.246  66.303  1.00  0.00    -0.268 A  
HETATM   20  C   UNL     1     -10.190  14.110  65.295  1.00  0.00    -0.400 A  
HETATM   21  C   UNL     1     -11.525  14.502  65.237  1.00  0.00    -0.355 A  
HETATM   22  C   UNL     1     -12.421  14.031  66.191  1.00  0.00    -0.467 A  
HETATM   23  C   UNL     1     -11.980  13.183  67.211  1.00  0.00    -0.389 A  
HETATM   24  C   UNL     1     -10.636  12.774  67.277  1.00  0.00    -0.245 A  
ENDBRANCH   9  11
ENDBRANCH   8   9
ENDBRANCH   7   8
ENDBRANCH   6   7
ENDBRANCH   4   6
BRANCH   4  25
HETATM   25  C   UNL     1     -10.170   6.752  69.579  1.00  0.00    -0.184 C  
HETATM   26  C   UNL     1      -8.776   7.231  69.176  1.00  0.00    -0.136 C  
HETATM   27  C   UNL     1     -10.291   5.263  69.208  1.00  0.00    -0.286 C  
ENDBRANCH   4  25
ENDBRANCH   2   4
TORSDOF 7
ENDMDL
MODEL      231
REMARK 921   NORMALIZED FREE ENERGY PREDICTED BY IDOCK:   -3.40 KCAL/MOL
REMARK 922        TOTAL FREE ENERGY PREDICTED BY IDOCK:   -5.98 KCAL/MOL
REMARK 923 INTER-LIGAND FREE ENERGY PREDICTED BY IDOCK:   -4.81 KCAL/MOL
REMARK 924 INTRA-LIGAND FREE ENERGY PREDICTED BY IDOCK:   -1.17 KCAL/MOL
REMARK 927      BINDING AFFINITY PREDICTED BY RF-SCORE:    0.00 PKD
ROOT
HETATM    1  C   UNL     1      -8.984  15.448  66.462  1.00  0.00    -0.344 C  
HETATM    2  C   UNL     1      -9.112  14.479  67.644  1.00  0.00    -0.195 C  
HETATM    3  C   UNL     1      -8.391  14.993  68.890  1.00  0.00    -0.183 C  
ENDROOT
BRANCH   2   4
HETATM    4  N   UNL     1     -10.586  13.991  67.954  1.00  0.00    -0.242 N  
HETATM    5  C   UNL     1     -11.494  14.323  66.756  1.00  0.00    -0.367 C  
BRANCH   4   6
HETATM    6  C   UNL     1     -10.576  12.419  68.109  1.00  0.00    -0.216 C  
BRANCH   6   7
HETATM    7  C   UNL     1     -10.103  11.613  66.894  1.00  0.00    -0.211 C  
BRANCH   7   8
HETATM    8  O   UNL     1     -10.793  10.352  66.857  1.00  0.00    -0.236 OA 
BRANCH   8   9
HETATM    9  C   UNL     1     -10.085   9.247  67.266  1.00  0.00    -0.231 C  
HETATM   10  O   UNL     1     -10.661   8.232  67.646  1.00  0.00    -0.241 OA 
BRANCH   9  11
HETATM   11  C   UNL     1      -8.560   9.425  67.152  1.00  0.00    -0.130 C  
HETATM   12  C   UNL     1      -7.824   9.022  68.419  1.00  0.00    -0.103 A  
HETATM   13  C   UNL     1      -8.059   9.694  69.633  1.00  0.00    -0.143 A  
HETATM   14  C   UNL     1      -7.526   9.208  70.827  1.00  0.00    -0.133 A  
HETATM   15  C   UNL     1      -6.713   8.078  70.815  1.00  0.00    -0.037 A  
HETATM   16  C   UNL     1      -6.413   7.452  69.605  1.00  0.00    -0.036 A  
HETATM   17  C   UNL     1      -6.965   7.924  68.413  1.00  0.00    -0.075 A  
HETATM   18  O   UNL     1      -6.616   7.239  67.278  1.00  0.00    -0.059 OA 
HETATM   19  C   UNL     1      -7.070   7.694  66.066  1.00  0.00    -0.069 A  
HETATM   20  C   UNL     1      -6.538   7.055  64.942  1.00  0.00    -0.043 A  
HETATM   21  C   UNL     1      -6.953   7.419  63.663  1.00  0.00    -0.059 A  
HETATM   22  C   UNL     1      -7.899   8.426  63.508  1.00  0.00    -0.152 A  
HETATM   23  C   UNL     1      -8.417   9.081  64.629  1.00  0.00    -0.194 A  
HETATM   24  C   UNL     1      -8.012   8.718  65.926  1.00  0.00    -0.104 A  
ENDBRANCH   9  11
ENDBRANCH   8   9
ENDBRANCH   7   8
ENDBRANCH   6   7
ENDBRANCH   4   6
BRANCH   4  25
HETATM   25  C   UNL     1     -11.208  14.552  69.319  1.00  0.00    -0.281 C  
HETATM   26  C   UNL     1     -12.015  15.841  69.158  1.00  0.00    -0.312 C  
HETATM   27  C   UNL     1     -12.095  13.518  70.037  1.00  0.00    -0.411 C  
ENDBRANCH   4  25
ENDBRANCH   2   4
TORSDOF 7
ENDMDL
MODEL      232
REMARK 921   NORMALIZED FREE ENERGY PREDICTED BY IDOCK:   -3.40 KCAL/MOL
REMARK 922        TOTAL FREE ENERGY PREDICTED BY IDOCK:   -5.97 KCAL/MOL
REMARK 923 INTER-LIGAND FREE ENERGY PREDICTED BY IDOCK:   -6.01 KCAL/MOL
REMARK 924 INTRA-LIGAND FREE ENERGY PREDICTED BY IDOCK:    0.04 KCAL/MOL
REMARK 927      BINDING AFFINITY PREDICTED BY RF-SCORE:    0.00 PKD
ROOT
HETATM    1  C   UNL     1      -5.949   5.713  66.068  1.00  0.00    -0.025 C  
HETATM    2  C   UNL     1      -7.378   6.260  65.973  1.00  0.00    -0.080 C  
HETATM    3  C   UNL     1      -7.947   6.139  64.559  1.00  0.00    -0.123 C  
ENDROOT
BRANCH   2   4
HETATM    4  N   UNL     1      -8.377   5.722  67.076  1.00  0.00    -0.108 N  
HETATM    5  C   UNL     1      -7.621   5.555  68.407  1.00  0.00    -0.084 C  
BRANCH   4   6
HETATM    6  C   UNL     1      -9.500   6.808  67.313  1.00  0.00    -0.135 C  
BRANCH   6   7
HETATM    7  C   UNL     1      -9.070   8.097  68.023  1.00  0.00    -0.133 C  
BRANCH   7   8
HETATM    8  O   UNL     1      -8.886   9.141  67.051  1.00  0.00    -0.122 OA 
BRANCH   8   9
HETATM    9  C   UNL     1      -9.723  10.227  67.146  1.00  0.00    -0.173 C  
HETATM   10  O   UNL     1     -10.560  10.305  68.041  1.00  0.00    -0.198 OA 
BRANCH   9  11
HETATM   11  C   UNL     1      -9.460  11.294  66.068  1.00  0.00    -0.240 C  
HETATM   12  C   UNL     1      -8.999  10.696  64.749  1.00  0.00    -0.218 A  
HETATM   13  C   UNL     1      -7.798   9.967  64.669  1.00  0.00    -0.145 A  
HETATM   14  C   UNL     1      -7.470   9.267  63.509  1.00  0.00    -0.101 A  
HETATM   15  C   UNL     1      -8.309   9.328  62.400  1.00  0.00    -0.181 A  
HETATM   16  C   UNL     1      -9.462  10.112  62.445  1.00  0.00    -0.244 A  
HETATM   17  C   UNL     1      -9.804  10.794  63.614  1.00  0.00    -0.350 A  
HETATM   18  O   UNL     1     -10.958  11.532  63.562  1.00  0.00    -0.399 OA 
HETATM   19  C   UNL     1     -11.312  12.281  64.656  1.00  0.00    -0.322 A  
HETATM   20  C   UNL     1     -12.401  13.139  64.474  1.00  0.00    -0.447 A  
HETATM   21  C   UNL     1     -12.863  13.923  65.529  1.00  0.00    -0.471 A  
HETATM   22  C   UNL     1     -12.233  13.851  66.767  1.00  0.00    -0.438 A  
HETATM   23  C   UNL     1     -11.131  13.009  66.945  1.00  0.00    -0.306 A  
HETATM   24  C   UNL     1     -10.659  12.207  65.891  1.00  0.00    -0.293 A  
ENDBRANCH   9  11
ENDBRANCH   8   9
ENDBRANCH   7   8
ENDBRANCH   6   7
ENDBRANCH   4   6
BRANCH   4  25
HETATM   25  C   UNL     1      -9.156   4.379  66.684  1.00  0.00    -0.127 C  
HETATM   26  C   UNL     1      -9.345   3.402  67.844  1.00  0.00    -0.242 C  
HETATM   27  C   UNL     1     -10.535   4.653  66.058  1.00  0.00    -0.303 C  
ENDBRANCH   4  25
ENDBRANCH   2   4
TORSDOF 7
ENDMDL
MODEL      233
REMARK 921   NORMALIZED FREE ENERGY PREDICTED BY IDOCK:   -3.38 KCAL/MOL
REMARK 922        TOTAL FREE ENERGY PREDICTED BY IDOCK:   -5.94 KCAL/MOL
REMARK 923 INTER-LIGAND FREE ENERGY PREDICTED BY IDOCK:   -4.74 KCAL/MOL
REMARK 924 INTRA-LIGAND FREE ENERGY PREDICTED BY IDOCK:   -1.20 KCAL/MOL
REMARK 927      BINDING AFFINITY PREDICTED BY RF-SCORE:    0.00 PKD
ROOT
HETATM    1  C   UNL     1     -10.308  13.603  68.821  1.00  0.00    -0.182 C  
HETATM    2  C   UNL     1     -11.160  12.545  68.108  1.00  0.00    -0.243 C  
HETATM    3  C   UNL     1     -11.163  12.735  66.591  1.00  0.00    -0.344 C  
ENDROOT
BRANCH   2   4
HETATM    4  N   UNL     1     -10.864  11.048  68.531  1.00  0.00    -0.196 N  
HETATM    5  C   UNL     1     -10.980  10.139  67.294  1.00  0.00    -0.183 C  
BRANCH   4   6
HETATM    6  C   UNL     1      -9.372  10.953  69.041  1.00  0.00    -0.131 C  
BRANCH   6   7
HETATM    7  C   UNL     1      -8.471   9.930  68.339  1.00  0.00    -0.111 C  
BRANCH   7   8
HETATM    8  O   UNL     1      -8.535   8.675  69.038  1.00  0.00    -0.122 OA 
BRANCH   8   9
HETATM    9  C   UNL     1      -7.343   8.024  69.250  1.00  0.00    -0.081 C  
HETATM   10  O   UNL     1      -6.289   8.475  68.809  1.00  0.00    -0.047 OA 
BRANCH   9  11
HETATM   11  C   UNL     1      -7.487   6.750  70.100  1.00  0.00    -0.094 C  
HETATM   12  C   UNL     1      -8.345   6.961  71.337  1.00  0.00    -0.115 A  
HETATM   13  C   UNL     1      -7.959   7.877  72.333  1.00  0.00    -0.151 A  
HETATM   14  C   UNL     1      -8.831   8.205  73.370  1.00  0.00    -0.322 A  
HETATM   15  C   UNL     1     -10.075   7.586  73.454  1.00  0.00    -0.393 A  
HETATM   16  C   UNL     1     -10.433   6.619  72.514  1.00  0.00    -0.231 A  
HETATM   17  C   UNL     1      -9.570   6.308  71.461  1.00  0.00    -0.155 A  
HETATM   18  O   UNL     1     -10.014   5.351  70.586  1.00  0.00    -0.187 OA 
HETATM   19  C   UNL     1      -9.183   4.950  69.570  1.00  0.00    -0.119 A  
HETATM   20  C   UNL     1      -9.627   3.854  68.823  1.00  0.00    -0.187 A  
HETATM   21  C   UNL     1      -8.875   3.384  67.749  1.00  0.00    -0.153 A  
HETATM   22  C   UNL     1      -7.675   4.009  67.424  1.00  0.00    -0.080 A  
HETATM   23  C   UNL     1      -7.220   5.091  68.182  1.00  0.00    -0.063 A  
HETATM   24  C   UNL     1      -7.973   5.581  69.264  1.00  0.00    -0.095 A  
ENDBRANCH   9  11
ENDBRANCH   8   9
ENDBRANCH   7   8
ENDBRANCH   6   7
ENDBRANCH   4   6
BRANCH   4  25
HETATM   25  C   UNL     1     -11.764  10.498  69.736  1.00  0.00    -0.281 C  
HETATM   26  C   UNL     1     -10.965   9.935  70.910  1.00  0.00    -0.392 C  
HETATM   27  C   UNL     1     -12.737  11.559  70.282  1.00  0.00    -0.085 C  
ENDBRANCH   4  25
ENDBRANCH   2   4
TORSDOF 7
ENDMDL
MODEL      234
REMARK 921   NORMALIZED FREE ENERGY PREDICTED BY IDOCK:   -3.36 KCAL/MOL
REMARK 922        TOTAL FREE ENERGY PREDICTED BY IDOCK:   -5.92 KCAL/MOL
REMARK 923 INTER-LIGAND FREE ENERGY PREDICTED BY IDOCK:   -4.87 KCAL/MOL
REMARK 924 INTRA-LIGAND FREE ENERGY PREDICTED BY IDOCK:   -1.05 KCAL/MOL
REMARK 927      BINDING AFFINITY PREDICTED BY RF-SCORE:    0.00 PKD
ROOT
HETATM    1  C   UNL     1      -9.214   5.784  71.619  1.00  0.00    -0.158 C  
HETATM    2  C   UNL     1     -10.009   7.095  71.610  1.00  0.00    -0.177 C  
HETATM    3  C   UNL     1      -9.714   7.955  72.839  1.00  0.00    -0.339 C  
ENDROOT
BRANCH   2   4
HETATM    4  N   UNL     1      -9.930   7.919  70.261  1.00  0.00    -0.188 N  
HETATM    5  C   UNL     1     -11.189   8.795  70.127  1.00  0.00    -0.152 C  
BRANCH   4   6
HETATM    6  C   UNL     1      -8.690   8.895  70.337  1.00  0.00    -0.180 C  
BRANCH   6   7
HETATM    7  C   UNL     1      -8.809  10.217  69.569  1.00  0.00    -0.182 C  
BRANCH   7   8
HETATM    8  O   UNL     1      -7.544  10.900  69.590  1.00  0.00    -0.100 OA 
BRANCH   8   9
HETATM    9  C   UNL     1      -6.757  10.779  68.470  1.00  0.00    -0.057 C  
HETATM   10  O   UNL     1      -5.941   9.867  68.366  1.00  0.00    -0.043 OA 
BRANCH   9  11
HETATM   11  C   UNL     1      -7.047  11.850  67.404  1.00  0.00    -0.129 C  
HETATM   12  C   UNL     1      -8.141  11.434  66.434  1.00  0.00    -0.106 A  
HETATM   13  C   UNL     1      -7.981  10.305  65.609  1.00  0.00    -0.150 A  
HETATM   14  C   UNL     1      -9.051   9.819  64.858  1.00  0.00    -0.278 A  
HETATM   15  C   UNL     1     -10.274  10.483  64.882  1.00  0.00    -0.371 A  
HETATM   16  C   UNL     1     -10.417  11.647  65.636  1.00  0.00    -0.314 A  
HETATM   17  C   UNL     1      -9.354  12.121  66.407  1.00  0.00    -0.224 A  
HETATM   18  O   UNL     1      -9.593  13.268  67.118  1.00  0.00    -0.225 OA 
HETATM   19  C   UNL     1      -8.567  13.823  67.841  1.00  0.00    -0.183 A  
HETATM   20  C   UNL     1      -8.831  15.078  68.399  1.00  0.00    -0.178 A  
HETATM   21  C   UNL     1      -7.869  15.718  69.176  1.00  0.00    -0.227 A  
HETATM   22  C   UNL     1      -6.640  15.103  69.394  1.00  0.00    -0.151 A  
HETATM   23  C   UNL     1      -6.367  13.858  68.820  1.00  0.00    -0.091 A  
HETATM   24  C   UNL     1      -7.332  13.198  68.039  1.00  0.00    -0.125 A  
ENDBRANCH   9  11
ENDBRANCH   8   9
ENDBRANCH   7   8
ENDBRANCH   6   7
ENDBRANCH   4   6
BRANCH   4  25
HETATM   25  C   UNL     1      -9.700   7.036  68.944  1.00  0.00    -0.144 C  
HETATM   26  C   UNL     1     -10.575   7.439  67.758  1.00  0.00    -0.278 C  
HETATM   27  C   UNL     1      -8.232   7.036  68.479  1.00  0.00    -0.124 C  
ENDBRANCH   4  25
ENDBRANCH   2   4
TORSDOF 7
ENDMDL
MODEL      235
REMARK 921   NORMALIZED FREE ENERGY PREDICTED BY IDOCK:   -3.32 KCAL/MOL
REMARK 922        TOTAL FREE ENERGY PREDICTED BY IDOCK:   -5.86 KCAL/MOL
REMARK 923 INTER-LIGAND FREE ENERGY PREDICTED BY IDOCK:   -4.35 KCAL/MOL
REMARK 924 INTRA-LIGAND FREE ENERGY PREDICTED BY IDOCK:   -1.51 KCAL/MOL
REMARK 927      BINDING AFFINITY PREDICTED BY RF-SCORE:    0.00 PKD
ROOT
HETATM    1  C   UNL     1      -6.136   4.922  66.229  1.00  0.00    -0.027 C  
HETATM    2  C   UNL     1      -7.498   5.157  65.565  1.00  0.00    -0.077 C  
HETATM    3  C   UNL     1      -7.362   5.810  64.189  1.00  0.00    -0.063 C  
ENDROOT
BRANCH   2   4
HETATM    4  N   UNL     1      -8.461   3.901  65.546  1.00  0.00    -0.109 N  
HETATM    5  C   UNL     1      -7.711   2.677  66.104  1.00  0.00    -0.077 C  
BRANCH   4   6
HETATM    6  C   UNL     1      -9.677   4.182  66.515  1.00  0.00    -0.209 C  
BRANCH   6   7
HETATM    7  C   UNL     1      -9.564   3.623  67.938  1.00  0.00    -0.122 C  
BRANCH   7   8
HETATM    8  O   UNL     1      -9.635   4.704  68.885  1.00  0.00    -0.142 OA 
BRANCH   8   9
HETATM    9  C   UNL     1      -8.441   5.174  69.376  1.00  0.00    -0.089 C  
HETATM   10  O   UNL     1      -7.445   4.455  69.414  1.00  0.00    -0.054 OA 
BRANCH   9  11
HETATM   11  C   UNL     1      -8.499   6.649  69.811  1.00  0.00    -0.132 C  
HETATM   12  C   UNL     1      -9.065   7.558  68.734  1.00  0.00    -0.135 A  
HETATM   13  C   UNL     1      -8.416   7.695  67.492  1.00  0.00    -0.116 A  
HETATM   14  C   UNL     1      -9.029   8.380  66.444  1.00  0.00    -0.207 A  
HETATM   15  C   UNL     1     -10.270   8.979  66.637  1.00  0.00    -0.333 A  
HETATM   16  C   UNL     1     -10.884   8.914  67.888  1.00  0.00    -0.096 A  
HETATM   17  C   UNL     1     -10.283   8.208  68.932  1.00  0.00    -0.210 A  
HETATM   18  O   UNL     1     -10.966   8.197  70.120  1.00  0.00    -0.249 OA 
HETATM   19  C   UNL     1     -10.394   7.578  71.204  1.00  0.00    -0.200 A  
HETATM   20  C   UNL     1     -11.062   7.753  72.420  1.00  0.00    -0.379 A  
HETATM   21  C   UNL     1     -10.584   7.144  73.578  1.00  0.00    -0.416 A  
HETATM   22  C   UNL     1      -9.435   6.362  73.520  1.00  0.00    -0.156 A  
HETATM   23  C   UNL     1      -8.755   6.203  72.309  1.00  0.00    -0.137 A  
HETATM   24  C   UNL     1      -9.231   6.806  71.131  1.00  0.00    -0.159 A  
ENDBRANCH   9  11
ENDBRANCH   8   9
ENDBRANCH   7   8
ENDBRANCH   6   7
ENDBRANCH   4   6
BRANCH   4  25
HETATM   25  C   UNL     1      -9.115   3.573  64.121  1.00  0.00    -0.124 C  
HETATM   26  C   UNL     1      -8.752   2.197  63.565  1.00  0.00    -0.085 C  
HETATM   27  C   UNL     1     -10.650   3.697  64.131  1.00  0.00    -0.246 C  
ENDBRANCH   4  25
ENDBRANCH   2   4
TORSDOF 7
ENDMDL
MODEL      236
REMARK 921   NORMALIZED FREE ENERGY PREDICTED BY IDOCK:   -3.30 KCAL/MOL
REMARK 922        TOTAL FREE ENERGY PREDICTED BY IDOCK:   -5.84 KCAL/MOL
REMARK 923 INTER-LIGAND FREE ENERGY PREDICTED BY IDOCK:   -4.80 KCAL/MOL
REMARK 924 INTRA-LIGAND FREE ENERGY PREDICTED BY IDOCK:   -1.04 KCAL/MOL
REMARK 927      BINDING AFFINITY PREDICTED BY RF-SCORE:    0.00 PKD
ROOT
HETATM    1  C   UNL     1      -7.535  10.365  66.211  1.00  0.00    -0.127 C  
HETATM    2  C   UNL     1      -8.345  10.974  67.361  1.00  0.00    -0.126 C  
HETATM    3  C   UNL     1      -8.053  12.463  67.545  1.00  0.00    -0.173 C  
ENDROOT
BRANCH   2   4
HETATM    4  N   UNL     1      -9.896  10.660  67.329  1.00  0.00    -0.172 N  
HETATM    5  C   UNL     1     -10.184   9.635  66.217  1.00  0.00    -0.216 C  
BRANCH   4   6
HETATM    6  C   UNL     1     -10.304   9.987  68.699  1.00  0.00    -0.190 C  
BRANCH   6   7
HETATM    7  C   UNL     1      -9.987   8.495  68.851  1.00  0.00    -0.190 C  
BRANCH   7   8
HETATM    8  O   UNL     1     -10.329   8.065  70.180  1.00  0.00    -0.206 OA 
BRANCH   8   9
HETATM    9  C   UNL     1     -11.008   6.875  70.289  1.00  0.00    -0.281 C  
HETATM   10  O   UNL     1     -12.160   6.763  69.877  1.00  0.00    -0.184 OA 
BRANCH   9  11
HETATM   11  C   UNL     1     -10.169   5.750  70.922  1.00  0.00    -0.275 C  
HETATM   12  C   UNL     1      -9.271   5.049  69.917  1.00  0.00    -0.175 A  
HETATM   13  C   UNL     1      -9.821   4.357  68.821  1.00  0.00    -0.149 A  
HETATM   14  C   UNL     1      -8.998   3.873  67.804  1.00  0.00    -0.155 A  
HETATM   15  C   UNL     1      -7.617   4.029  67.894  1.00  0.00    -0.067 A  
HETATM   16  C   UNL     1      -7.061   4.645  69.015  1.00  0.00    -0.052 A  
HETATM   17  C   UNL     1      -7.885   5.151  70.022  1.00  0.00    -0.078 A  
HETATM   18  O   UNL     1      -7.245   5.743  71.079  1.00  0.00    -0.072 OA 
HETATM   19  C   UNL     1      -7.995   6.198  72.135  1.00  0.00    -0.109 A  
HETATM   20  C   UNL     1      -7.270   6.632  73.249  1.00  0.00    -0.077 A  
HETATM   21  C   UNL     1      -7.932   7.142  74.364  1.00  0.00    -0.165 A  
HETATM   22  C   UNL     1      -9.322   7.214  74.365  1.00  0.00    -0.190 A  
HETATM   23  C   UNL     1     -10.049   6.762  73.260  1.00  0.00    -0.243 A  
HETATM   24  C   UNL     1      -9.393   6.252  72.125  1.00  0.00    -0.152 A  
ENDBRANCH   9  11
ENDBRANCH   8   9
ENDBRANCH   7   8
ENDBRANCH   6   7
ENDBRANCH   4   6
BRANCH   4  25
HETATM   25  C   UNL     1     -10.842  11.945  67.185  1.00  0.00    -0.255 C  
HETATM   26  C   UNL     1     -11.631  12.000  65.878  1.00  0.00    -0.364 C  
HETATM   27  C   UNL     1     -11.836  12.083  68.352  1.00  0.00    -0.360 C  
ENDBRANCH   4  25
ENDBRANCH   2   4
TORSDOF 7
ENDMDL
MODEL      237
REMARK 921   NORMALIZED FREE ENERGY PREDICTED BY IDOCK:   -3.30 KCAL/MOL
REMARK 922        TOTAL FREE ENERGY PREDICTED BY IDOCK:   -5.84 KCAL/MOL
REMARK 923 INTER-LIGAND FREE ENERGY PREDICTED BY IDOCK:   -5.03 KCAL/MOL
REMARK 924 INTRA-LIGAND FREE ENERGY PREDICTED BY IDOCK:   -0.80 KCAL/MOL
REMARK 927      BINDING AFFINITY PREDICTED BY RF-SCORE:    0.00 PKD
ROOT
HETATM    1  C   UNL     1      -9.040   7.970  73.122  1.00  0.00    -0.341 C  
HETATM    2  C   UNL     1      -8.532   6.580  72.720  1.00  0.00    -0.120 C  
HETATM    3  C   UNL     1      -8.984   5.497  73.700  1.00  0.00    -0.124 C  
ENDROOT
BRANCH   2   4
HETATM    4  N   UNL     1      -8.794   6.180  71.211  1.00  0.00    -0.136 N  
HETATM    5  C   UNL     1      -9.915   5.127  71.153  1.00  0.00    -0.206 C  
BRANCH   4   6
HETATM    6  C   UNL     1      -9.311   7.453  70.432  1.00  0.00    -0.161 C  
BRANCH   6   7
HETATM    7  C   UNL     1      -8.373   8.037  69.370  1.00  0.00    -0.131 C  
BRANCH   7   8
HETATM    8  O   UNL     1      -8.915   9.274  68.878  1.00  0.00    -0.133 OA 
BRANCH   8   9
HETATM    9  C   UNL     1      -9.540   9.232  67.654  1.00  0.00    -0.142 C  
HETATM   10  O   UNL     1     -10.473   8.460  67.447  1.00  0.00    -0.263 OA 
BRANCH   9  11
HETATM   11  C   UNL     1      -8.976  10.249  66.647  1.00  0.00    -0.156 C  
HETATM   12  C   UNL     1      -7.883   9.664  65.769  1.00  0.00    -0.106 A  
HETATM   13  C   UNL     1      -6.684   9.188  66.333  1.00  0.00    -0.071 A  
HETATM   14  C   UNL     1      -5.764   8.487  65.553  1.00  0.00    -0.044 A  
HETATM   15  C   UNL     1      -6.005   8.299  64.195  1.00  0.00    -0.065 A  
HETATM   16  C   UNL     1      -7.154   8.835  63.614  1.00  0.00    -0.089 A  
HETATM   17  C   UNL     1      -8.087   9.516  64.398  1.00  0.00    -0.141 A  
HETATM   18  O   UNL     1      -9.186  10.001  63.736  1.00  0.00    -0.248 OA 
HETATM   19  C   UNL     1     -10.106  10.740  64.438  1.00  0.00    -0.353 A  
HETATM   20  C   UNL     1     -11.106  11.345  63.671  1.00  0.00    -0.411 A  
HETATM   21  C   UNL     1     -12.108  12.093  64.285  1.00  0.00    -0.465 A  
HETATM   22  C   UNL     1     -12.107  12.238  65.669  1.00  0.00    -0.306 A  
HETATM   23  C   UNL     1     -11.097  11.650  66.435  1.00  0.00    -0.347 A  
HETATM   24  C   UNL     1     -10.083  10.887  65.828  1.00  0.00    -0.308 A  
ENDBRANCH   9  11
ENDBRANCH   8   9
ENDBRANCH   7   8
ENDBRANCH   6   7
ENDBRANCH   4   6
BRANCH   4  25
HETATM   25  C   UNL     1      -7.498   5.685  70.410  1.00  0.00    -0.080 C  
HETATM   26  C   UNL     1      -6.187   5.840  71.181  1.00  0.00    -0.035 C  
HETATM   27  C   UNL     1      -7.611   4.222  69.945  1.00  0.00    -0.053 C  
ENDBRANCH   4  25
ENDBRANCH   2   4
TORSDOF 7
ENDMDL
MODEL      238
REMARK 921   NORMALIZED FREE ENERGY PREDICTED BY IDOCK:   -3.29 KCAL/MOL
REMARK 922        TOTAL FREE ENERGY PREDICTED BY IDOCK:   -5.83 KCAL/MOL
REMARK 923 INTER-LIGAND FREE ENERGY PREDICTED BY IDOCK:   -5.97 KCAL/MOL
REMARK 924 INTRA-LIGAND FREE ENERGY PREDICTED BY IDOCK:    0.14 KCAL/MOL
REMARK 927      BINDING AFFINITY PREDICTED BY RF-SCORE:    0.00 PKD
ROOT
HETATM    1  C   UNL     1     -10.192  12.703  65.258  1.00  0.00    -0.302 C  
HETATM    2  C   UNL     1     -10.337  11.177  65.295  1.00  0.00    -0.277 C  
HETATM    3  C   UNL     1      -9.636  10.504  64.115  1.00  0.00    -0.369 C  
ENDROOT
BRANCH   2   4
HETATM    4  N   UNL     1      -9.977  10.501  66.680  1.00  0.00    -0.203 N  
HETATM    5  C   UNL     1     -11.152  10.687  67.656  1.00  0.00    -0.319 C  
BRANCH   4   6
HETATM    6  C   UNL     1      -9.801   8.948  66.454  1.00  0.00    -0.283 C  
BRANCH   6   7
HETATM    7  C   UNL     1      -9.459   8.108  67.690  1.00  0.00    -0.145 C  
BRANCH   7   8
HETATM    8  O   UNL     1     -10.664   7.543  68.234  1.00  0.00    -0.167 OA 
BRANCH   8   9
HETATM    9  C   UNL     1     -10.850   6.193  68.054  1.00  0.00    -0.313 C  
HETATM   10  O   UNL     1     -11.144   5.737  66.952  1.00  0.00    -0.222 OA 
BRANCH   9  11
HETATM   11  C   UNL     1     -10.614   5.370  69.333  1.00  0.00    -0.295 C  
HETATM   12  C   UNL     1      -9.263   4.675  69.344  1.00  0.00    -0.179 A  
HETATM   13  C   UNL     1      -8.940   3.712  68.370  1.00  0.00    -0.176 A  
HETATM   14  C   UNL     1      -7.642   3.213  68.270  1.00  0.00    -0.052 A  
HETATM   15  C   UNL     1      -6.666   3.629  69.173  1.00  0.00    -0.044 A  
HETATM   16  C   UNL     1      -6.999   4.524  70.189  1.00  0.00    -0.045 A  
HETATM   17  C   UNL     1      -8.292   5.043  70.275  1.00  0.00    -0.092 A  
HETATM   18  O   UNL     1      -8.520   5.919  71.304  1.00  0.00    -0.126 OA 
HETATM   19  C   UNL     1      -9.789   6.411  71.484  1.00  0.00    -0.168 A  
HETATM   20  C   UNL     1      -9.987   7.159  72.649  1.00  0.00    -0.208 A  
HETATM   21  C   UNL     1     -11.229   7.730  72.915  1.00  0.00    -0.434 A  
HETATM   22  C   UNL     1     -12.276   7.549  72.016  1.00  0.00    -0.314 A  
HETATM   23  C   UNL     1     -12.085   6.784  70.862  1.00  0.00    -0.421 A  
HETATM   24  C   UNL     1     -10.834   6.208  70.578  1.00  0.00    -0.364 A  
ENDBRANCH   9  11
ENDBRANCH   8   9
ENDBRANCH   7   8
ENDBRANCH   6   7
ENDBRANCH   4   6
BRANCH   4  25
HETATM   25  C   UNL     1      -8.601  10.997  67.334  1.00  0.00    -0.132 C  
HETATM   26  C   UNL     1      -7.400  10.934  66.393  1.00  0.00    -0.141 C  
HETATM   27  C   UNL     1      -8.695  12.427  67.898  1.00  0.00    -0.175 C  
ENDBRANCH   4  25
ENDBRANCH   2   4
TORSDOF 7
ENDMDL
MODEL      239
REMARK 921   NORMALIZED FREE ENERGY PREDICTED BY IDOCK:   -3.29 KCAL/MOL
REMARK 922        TOTAL FREE ENERGY PREDICTED BY IDOCK:   -5.82 KCAL/MOL
REMARK 923 INTER-LIGAND FREE ENERGY PREDICTED BY IDOCK:   -5.95 KCAL/MOL
REMARK 924 INTRA-LIGAND FREE ENERGY PREDICTED BY IDOCK:    0.14 KCAL/MOL
REMARK 927      BINDING AFFINITY PREDICTED BY RF-SCORE:    0.00 PKD
ROOT
HETATM    1  C   UNL     1      -9.198  14.468  66.650  1.00  0.00    -0.290 C  
HETATM    2  C   UNL     1      -9.969  13.743  67.759  1.00  0.00    -0.242 C  
HETATM    3  C   UNL     1     -10.868  14.693  68.551  1.00  0.00    -0.256 C  
ENDROOT
BRANCH   2   4
HETATM    4  N   UNL     1     -10.729  12.431  67.302  1.00  0.00    -0.226 N  
HETATM    5  C   UNL     1      -9.729  11.476  66.626  1.00  0.00    -0.199 C  
BRANCH   4   6
HETATM    6  C   UNL     1     -11.281  11.694  68.586  1.00  0.00    -0.250 C  
BRANCH   6   7
HETATM    7  C   UNL     1     -11.078  10.176  68.645  1.00  0.00    -0.205 C  
BRANCH   7   8
HETATM    8  O   UNL     1     -10.421   9.827  69.876  1.00  0.00    -0.224 OA 
BRANCH   8   9
HETATM    9  C   UNL     1     -10.643   8.559  70.358  1.00  0.00    -0.223 C  
HETATM   10  O   UNL     1     -11.774   8.187  70.660  1.00  0.00    -0.251 OA 
BRANCH   9  11
HETATM   11  C   UNL     1      -9.367   7.701  70.426  1.00  0.00    -0.160 C  
HETATM   12  C   UNL     1      -9.025   7.267  71.842  1.00  0.00    -0.138 A  
HETATM   13  C   UNL     1      -8.733   8.220  72.836  1.00  0.00    -0.291 A  
HETATM   14  C   UNL     1      -8.601   7.834  74.170  1.00  0.00    -0.307 A  
HETATM   15  C   UNL     1      -8.708   6.491  74.518  1.00  0.00    -0.172 A  
HETATM   16  C   UNL     1      -8.920   5.532  73.527  1.00  0.00    -0.125 A  
HETATM   17  C   UNL     1      -9.076   5.920  72.195  1.00  0.00    -0.143 A  
HETATM   18  O   UNL     1      -9.287   4.906  71.296  1.00  0.00    -0.140 OA 
HETATM   19  C   UNL     1      -9.378   5.215  69.962  1.00  0.00    -0.147 A  
HETATM   20  C   UNL     1      -9.419   4.123  69.090  1.00  0.00    -0.248 A  
HETATM   21  C   UNL     1      -9.542   4.323  67.717  1.00  0.00    -0.210 A  
HETATM   22  C   UNL     1      -9.621   5.618  67.216  1.00  0.00    -0.125 A  
HETATM   23  C   UNL     1      -9.560   6.712  68.084  1.00  0.00    -0.120 A  
HETATM   24  C   UNL     1      -9.443   6.524  69.473  1.00  0.00    -0.150 A  
ENDBRANCH   9  11
ENDBRANCH   8   9
ENDBRANCH   7   8
ENDBRANCH   6   7
ENDBRANCH   4   6
BRANCH   4  25
HETATM   25  C   UNL     1     -12.006  12.682  66.369  1.00  0.00    -0.357 C  
HETATM   26  C   UNL     1     -12.369  14.155  66.184  1.00  0.00    -0.463 C  
HETATM   27  C   UNL     1     -11.857  12.046  64.975  1.00  0.00    -0.291 C  
ENDBRANCH   4  25
ENDBRANCH   2   4
TORSDOF 7
ENDMDL
MODEL      240
REMARK 921   NORMALIZED FREE ENERGY PREDICTED BY IDOCK:   -3.29 KCAL/MOL
REMARK 922        TOTAL FREE ENERGY PREDICTED BY IDOCK:   -5.82 KCAL/MOL
REMARK 923 INTER-LIGAND FREE ENERGY PREDICTED BY IDOCK:   -4.83 KCAL/MOL
REMARK 924 INTRA-LIGAND FREE ENERGY PREDICTED BY IDOCK:   -0.98 KCAL/MOL
REMARK 927      BINDING AFFINITY PREDICTED BY RF-SCORE:    0.00 PKD
ROOT
HETATM    1  C   UNL     1      -6.495   6.150  67.369  1.00  0.00    -0.046 C  
HETATM    2  C   UNL     1      -7.514   5.170  66.776  1.00  0.00    -0.087 C  
HETATM    3  C   UNL     1      -7.155   4.761  65.347  1.00  0.00    -0.064 C  
ENDROOT
BRANCH   2   4
HETATM    4  N   UNL     1      -7.862   3.927  67.692  1.00  0.00    -0.081 N  
HETATM    5  C   UNL     1      -6.685   3.656  68.647  1.00  0.00    -0.045 C  
BRANCH   4   6
HETATM    6  C   UNL     1      -9.112   4.292  68.586  1.00  0.00    -0.129 C  
BRANCH   6   7
HETATM    7  C   UNL     1      -8.822   4.719  70.030  1.00  0.00    -0.086 C  
BRANCH   7   8
HETATM    8  O   UNL     1      -9.712   5.785  70.403  1.00  0.00    -0.166 OA 
BRANCH   8   9
HETATM    9  C   UNL     1      -9.880   6.008  71.749  1.00  0.00    -0.165 C  
HETATM   10  O   UNL     1     -10.130   5.082  72.516  1.00  0.00    -0.171 OA 
BRANCH   9  11
HETATM   11  C   UNL     1      -9.684   7.480  72.152  1.00  0.00    -0.204 C  
HETATM   12  C   UNL     1      -8.445   8.101  71.528  1.00  0.00    -0.160 A  
HETATM   13  C   UNL     1      -7.163   7.596  71.816  1.00  0.00    -0.064 A  
HETATM   14  C   UNL     1      -6.050   8.043  71.105  1.00  0.00    -0.034 A  
HETATM   15  C   UNL     1      -6.195   9.034  70.138  1.00  0.00    -0.038 A  
HETATM   16  C   UNL     1      -7.450   9.594  69.902  1.00  0.00    -0.127 A  
HETATM   17  C   UNL     1      -8.570   9.131  70.596  1.00  0.00    -0.226 A  
HETATM   18  O   UNL     1      -9.759   9.740  70.290  1.00  0.00    -0.248 OA 
HETATM   19  C   UNL     1     -10.884   9.377  70.987  1.00  0.00    -0.336 A  
HETATM   20  C   UNL     1     -12.021  10.155  70.746  1.00  0.00    -0.442 A  
HETATM   21  C   UNL     1     -13.225   9.856  71.379  1.00  0.00    -0.487 A  
HETATM   22  C   UNL     1     -13.292   8.778  72.256  1.00  0.00    -0.460 A  
HETATM   23  C   UNL     1     -12.152   8.011  72.513  1.00  0.00    -0.338 A  
HETATM   24  C   UNL     1     -10.931   8.299  71.876  1.00  0.00    -0.354 A  
ENDBRANCH   9  11
ENDBRANCH   8   9
ENDBRANCH   7   8
ENDBRANCH   6   7
ENDBRANCH   4   6
BRANCH   4  25
HETATM   25  C   UNL     1      -8.276   2.599  66.898  1.00  0.00    -0.083 C  
HETATM   26  C   UNL     1      -7.104   1.678  66.561  1.00  0.00    -0.047 C  
HETATM   27  C   UNL     1      -9.339   1.770  67.643  1.00  0.00    -0.146 C  
ENDBRANCH   4  25
ENDBRANCH   2   4
TORSDOF 7
ENDMDL
MODEL      241
REMARK 921   NORMALIZED FREE ENERGY PREDICTED BY IDOCK:   -3.29 KCAL/MOL
REMARK 922        TOTAL FREE ENERGY PREDICTED BY IDOCK:   -5.81 KCAL/MOL
REMARK 923 INTER-LIGAND FREE ENERGY PREDICTED BY IDOCK:   -4.98 KCAL/MOL
REMARK 924 INTRA-LIGAND FREE ENERGY PREDICTED BY IDOCK:   -0.83 KCAL/MOL
REMARK 927      BINDING AFFINITY PREDICTED BY RF-SCORE:    0.00 PKD
ROOT
HETATM    1  C   UNL     1     -11.888  14.521  69.236  1.00  0.00    -0.361 C  
HETATM    2  C   UNL     1     -10.894  15.503  68.605  1.00  0.00    -0.267 C  
HETATM    3  C   UNL     1     -10.271  16.438  69.642  1.00  0.00    -0.198 C  
ENDROOT
BRANCH   2   4
HETATM    4  N   UNL     1      -9.812  14.846  67.655  1.00  0.00    -0.217 N  
HETATM    5  C   UNL     1      -8.526  14.579  68.459  1.00  0.00    -0.166 C  
BRANCH   4   6
HETATM    6  C   UNL     1     -10.353  13.445  67.166  1.00  0.00    -0.246 C  
BRANCH   6   7
HETATM    7  C   UNL     1      -9.334  12.302  67.093  1.00  0.00    -0.196 C  
BRANCH   7   8
HETATM    8  O   UNL     1      -9.906  11.112  67.661  1.00  0.00    -0.171 OA 
BRANCH   8   9
HETATM    9  C   UNL     1      -9.111   9.991  67.678  1.00  0.00    -0.134 C  
HETATM   10  O   UNL     1      -8.009  10.005  68.222  1.00  0.00    -0.095 OA 
BRANCH   9  11
HETATM   11  C   UNL     1      -9.761   8.772  67.000  1.00  0.00    -0.258 C  
HETATM   12  C   UNL     1      -8.887   8.165  65.915  1.00  0.00    -0.194 A  
HETATM   13  C   UNL     1      -8.527   8.914  64.779  1.00  0.00    -0.193 A  
HETATM   14  C   UNL     1      -7.580   8.425  63.879  1.00  0.00    -0.135 A  
HETATM   15  C   UNL     1      -7.022   7.164  64.075  1.00  0.00    -0.057 A  
HETATM   16  C   UNL     1      -7.432   6.385  65.157  1.00  0.00    -0.083 A  
HETATM   17  C   UNL     1      -8.362   6.883  66.071  1.00  0.00    -0.134 A  
HETATM   18  O   UNL     1      -8.697   6.046  67.103  1.00  0.00    -0.111 OA 
HETATM   19  C   UNL     1      -9.658   6.450  67.996  1.00  0.00    -0.118 A  
HETATM   20  C   UNL     1     -10.072   5.482  68.917  1.00  0.00    -0.266 A  
HETATM   21  C   UNL     1     -11.021   5.795  69.887  1.00  0.00    -0.389 A  
HETATM   22  C   UNL     1     -11.558   7.078  69.935  1.00  0.00    -0.179 A  
HETATM   23  C   UNL     1     -11.160   8.040  69.003  1.00  0.00     0.217 A  
HETATM   24  C   UNL     1     -10.198   7.740  68.023  1.00  0.00    -0.249 A  
ENDBRANCH   9  11
ENDBRANCH   8   9
ENDBRANCH   7   8
ENDBRANCH   6   7
ENDBRANCH   4   6
BRANCH   4  25
HETATM   25  C   UNL     1      -9.495  15.673  66.320  1.00  0.00    -0.319 C  
HETATM   26  C   UNL     1     -10.406  16.879  66.098  1.00  0.00    -0.327 C  
HETATM   27  C   UNL     1      -8.035  16.156  66.255  1.00  0.00    -0.138 C  
ENDBRANCH   4  25
ENDBRANCH   2   4
TORSDOF 7
ENDMDL
MODEL      242
REMARK 921   NORMALIZED FREE ENERGY PREDICTED BY IDOCK:   -3.26 KCAL/MOL
REMARK 922        TOTAL FREE ENERGY PREDICTED BY IDOCK:   -5.79 KCAL/MOL
REMARK 923 INTER-LIGAND FREE ENERGY PREDICTED BY IDOCK:   -4.74 KCAL/MOL
REMARK 924 INTRA-LIGAND FREE ENERGY PREDICTED BY IDOCK:   -1.04 KCAL/MOL
REMARK 927      BINDING AFFINITY PREDICTED BY RF-SCORE:    0.00 PKD
ROOT
HETATM    1  C   UNL     1     -10.054  13.696  68.725  1.00  0.00    -0.129 C  
HETATM    2  C   UNL     1     -11.166  13.188  67.799  1.00  0.00    -0.277 C  
HETATM    3  C   UNL     1     -12.238  14.249  67.551  1.00  0.00    -0.237 C  
ENDROOT
BRANCH   2   4
HETATM    4  N   UNL     1     -10.665  12.506  66.461  1.00  0.00    -0.237 N  
HETATM    5  C   UNL     1      -9.128  12.427  66.476  1.00  0.00    -0.181 C  
BRANCH   4   6
HETATM    6  C   UNL     1     -11.207  11.023  66.415  1.00  0.00     0.033 C  
BRANCH   6   7
HETATM    7  C   UNL     1     -10.391   9.971  67.174  1.00  0.00    -0.241 C  
BRANCH   7   8
HETATM    8  O   UNL     1     -10.184   8.825  66.330  1.00  0.00    -0.289 OA 
BRANCH   8   9
HETATM    9  C   UNL     1      -8.959   8.722  65.716  1.00  0.00    -0.206 C  
HETATM   10  O   UNL     1      -8.737   9.286  64.648  1.00  0.00    -0.185 OA 
BRANCH   9  11
HETATM   11  C   UNL     1      -7.943   7.888  66.519  1.00  0.00    -0.102 C  
HETATM   12  C   UNL     1      -7.326   8.663  67.671  1.00  0.00    -0.089 A  
HETATM   13  C   UNL     1      -6.559   9.819  67.433  1.00  0.00    -0.070 A  
HETATM   14  C   UNL     1      -6.151  10.629  68.492  1.00  0.00    -0.046 A  
HETATM   15  C   UNL     1      -6.457  10.267  69.801  1.00  0.00    -0.080 A  
HETATM   16  C   UNL     1      -7.149   9.081  70.049  1.00  0.00    -0.055 A  
HETATM   17  C   UNL     1      -7.580   8.283  68.988  1.00  0.00    -0.089 A  
HETATM   18  O   UNL     1      -8.257   7.142  69.333  1.00  0.00    -0.128 OA 
HETATM   19  C   UNL     1      -8.646   6.279  68.339  1.00  0.00    -0.114 A  
HETATM   20  C   UNL     1      -9.175   5.059  68.770  1.00  0.00    -0.160 A  
HETATM   21  C   UNL     1      -9.629   4.122  67.845  1.00  0.00    -0.203 A  
HETATM   22  C   UNL     1      -9.550   4.406  66.485  1.00  0.00    -0.209 A  
HETATM   23  C   UNL     1      -9.002   5.616  66.051  1.00  0.00    -0.158 A  
HETATM   24  C   UNL     1      -8.547   6.573  66.975  1.00  0.00    -0.113 A  
ENDBRANCH   9  11
ENDBRANCH   8   9
ENDBRANCH   7   8
ENDBRANCH   6   7
ENDBRANCH   4   6
BRANCH   4  25
HETATM   25  C   UNL     1     -11.192  13.197  65.115  1.00  0.00    -0.294 C  
HETATM   26  C   UNL     1     -10.427  14.458  64.715  1.00  0.00    -0.394 C  
HETATM   27  C   UNL     1     -11.191  12.234  63.914  1.00  0.00    -0.488 C  
ENDBRANCH   4  25
ENDBRANCH   2   4
TORSDOF 7
ENDMDL
MODEL      243
REMARK 921   NORMALIZED FREE ENERGY PREDICTED BY IDOCK:   -3.26 KCAL/MOL
REMARK 922        TOTAL FREE ENERGY PREDICTED BY IDOCK:   -5.77 KCAL/MOL
REMARK 923 INTER-LIGAND FREE ENERGY PREDICTED BY IDOCK:   -4.90 KCAL/MOL
REMARK 924 INTRA-LIGAND FREE ENERGY PREDICTED BY IDOCK:   -0.87 KCAL/MOL
REMARK 927      BINDING AFFINITY PREDICTED BY RF-SCORE:    0.00 PKD
ROOT
HETATM    1  C   UNL     1      -8.698  14.586  66.461  1.00  0.00    -0.079 C  
HETATM    2  C   UNL     1      -8.036  15.603  67.398  1.00  0.00    -0.171 C  
HETATM    3  C   UNL     1      -9.014  16.686  67.854  1.00  0.00    -0.217 C  
ENDROOT
BRANCH   2   4
HETATM    4  N   UNL     1      -7.222  14.975  68.602  1.00  0.00    -0.110 N  
HETATM    5  C   UNL     1      -8.206  14.505  69.689  1.00  0.00     0.327 C  
BRANCH   4   6
HETATM    6  C   UNL     1      -6.457  13.695  68.082  1.00  0.00    -0.125 C  
BRANCH   6   7
HETATM    7  C   UNL     1      -6.775  12.372  68.788  1.00  0.00    -0.092 C  
BRANCH   7   8
HETATM    8  O   UNL     1      -7.500  11.512  67.892  1.00  0.00    -0.094 OA 
BRANCH   8   9
HETATM    9  C   UNL     1      -7.876  10.284  68.382  1.00  0.00    -0.102 C  
HETATM   10  O   UNL     1      -7.199   9.706  69.228  1.00  0.00    -0.063 OA 
BRANCH   9  11
HETATM   11  C   UNL     1      -9.205   9.776  67.796  1.00  0.00    -0.141 C  
HETATM   12  C   UNL     1     -10.318   9.713  68.829  1.00  0.00    -0.233 A  
HETATM   13  C   UNL     1     -10.210   8.874  69.954  1.00  0.00    -0.209 A  
HETATM   14  C   UNL     1     -11.141   8.953  70.989  1.00  0.00    -0.340 A  
HETATM   15  C   UNL     1     -12.216   9.832  70.890  1.00  0.00    -0.390 A  
HETATM   16  C   UNL     1     -12.373  10.610  69.743  1.00  0.00    -0.263 A  
HETATM   17  C   UNL     1     -11.428  10.549  68.717  1.00  0.00    -0.224 A  
HETATM   18  O   UNL     1     -11.666  11.355  67.635  1.00  0.00    -0.546 OA 
HETATM   19  C   UNL     1     -10.812  11.290  66.562  1.00  0.00    -0.265 A  
HETATM   20  C   UNL     1     -11.208  12.007  65.429  1.00  0.00    -0.374 A  
HETATM   21  C   UNL     1     -10.400  12.033  64.295  1.00  0.00    -0.357 A  
HETATM   22  C   UNL     1      -9.195  11.338  64.293  1.00  0.00    -0.059 A  
HETATM   23  C   UNL     1      -8.807  10.603  65.417  1.00  0.00    -0.204 A  
HETATM   24  C   UNL     1      -9.610  10.574  66.571  1.00  0.00    -0.216 A  
ENDBRANCH   9  11
ENDBRANCH   8   9
ENDBRANCH   7   8
ENDBRANCH   6   7
ENDBRANCH   4   6
BRANCH   4  25
HETATM   25  C   UNL     1      -6.093  15.927  69.222  1.00  0.00    -0.133 C  
HETATM   26  C   UNL     1      -5.142  15.226  70.190  1.00  0.00    -0.103 C  
HETATM   27  C   UNL     1      -5.248  16.626  68.141  1.00  0.00    -0.114 C  
ENDBRANCH   4  25
ENDBRANCH   2   4
TORSDOF 7
ENDMDL
MODEL      244
REMARK 921   NORMALIZED FREE ENERGY PREDICTED BY IDOCK:   -3.25 KCAL/MOL
REMARK 922        TOTAL FREE ENERGY PREDICTED BY IDOCK:   -5.77 KCAL/MOL
REMARK 923 INTER-LIGAND FREE ENERGY PREDICTED BY IDOCK:   -4.58 KCAL/MOL
REMARK 924 INTRA-LIGAND FREE ENERGY PREDICTED BY IDOCK:   -1.19 KCAL/MOL
REMARK 927      BINDING AFFINITY PREDICTED BY RF-SCORE:    0.00 PKD
ROOT
HETATM    1  C   UNL     1      -9.409   2.317  68.117  1.00  0.00    -0.263 C  
HETATM    2  C   UNL     1      -8.400   3.418  67.774  1.00  0.00    -0.085 C  
HETATM    3  C   UNL     1      -7.070   3.228  68.504  1.00  0.00    -0.050 C  
ENDROOT
BRANCH   2   4
HETATM    4  N   UNL     1      -8.207   3.694  66.227  1.00  0.00    -0.100 N  
HETATM    5  C   UNL     1      -9.578   3.638  65.527  1.00  0.00    -0.149 C  
BRANCH   4   6
HETATM    6  C   UNL     1      -7.650   5.160  66.041  1.00  0.00    -0.087 C  
BRANCH   6   7
HETATM    7  C   UNL     1      -8.690   6.275  65.882  1.00  0.00    -0.149 C  
BRANCH   7   8
HETATM    8  O   UNL     1      -9.164   6.677  67.179  1.00  0.00    -0.121 OA 
BRANCH   8   9
HETATM    9  C   UNL     1     -10.470   7.097  67.257  1.00  0.00    -0.301 C  
HETATM   10  O   UNL     1     -11.388   6.389  66.852  1.00  0.00    -0.304 OA 
BRANCH   9  11
HETATM   11  C   UNL     1     -10.627   8.478  67.919  1.00  0.00    -0.219 C  
HETATM   12  C   UNL     1     -10.479   8.426  69.430  1.00  0.00    -0.222 A  
HETATM   13  C   UNL     1     -11.373   7.675  70.216  1.00  0.00    -0.197 A  
HETATM   14  C   UNL     1     -11.129   7.478  71.575  1.00  0.00    -0.263 A  
HETATM   15  C   UNL     1     -10.021   8.070  72.174  1.00  0.00    -0.289 A  
HETATM   16  C   UNL     1      -9.173   8.880  71.418  1.00  0.00    -0.328 A  
HETATM   17  C   UNL     1      -9.403   9.058  70.052  1.00  0.00    -0.183 A  
HETATM   18  O   UNL     1      -8.513   9.866  69.395  1.00  0.00    -0.137 OA 
HETATM   19  C   UNL     1      -8.724  10.136  68.066  1.00  0.00    -0.122 A  
HETATM   20  C   UNL     1      -7.880  11.100  67.504  1.00  0.00    -0.117 A  
HETATM   21  C   UNL     1      -7.988  11.429  66.155  1.00  0.00     0.021 A  
HETATM   22  C   UNL     1      -8.944  10.795  65.367  1.00  0.00    -0.211 A  
HETATM   23  C   UNL     1      -9.802   9.846  65.932  1.00  0.00    -0.342 A  
HETATM   24  C   UNL     1      -9.698   9.500  67.291  1.00  0.00    -0.215 A  
ENDBRANCH   9  11
ENDBRANCH   8   9
ENDBRANCH   7   8
ENDBRANCH   6   7
ENDBRANCH   4   6
BRANCH   4  25
HETATM   25  C   UNL     1      -7.150   2.737  65.498  1.00  0.00    -0.061 C  
HETATM   26  C   UNL     1      -7.779   1.697  64.572  1.00  0.00    -0.064 C  
HETATM   27  C   UNL     1      -6.096   3.521  64.694  1.00  0.00    -0.023 C  
ENDBRANCH   4  25
ENDBRANCH   2   4
TORSDOF 7
ENDMDL
MODEL      245
REMARK 921   NORMALIZED FREE ENERGY PREDICTED BY IDOCK:   -3.22 KCAL/MOL
REMARK 922        TOTAL FREE ENERGY PREDICTED BY IDOCK:   -5.73 KCAL/MOL
REMARK 923 INTER-LIGAND FREE ENERGY PREDICTED BY IDOCK:   -5.26 KCAL/MOL
REMARK 924 INTRA-LIGAND FREE ENERGY PREDICTED BY IDOCK:   -0.47 KCAL/MOL
REMARK 927      BINDING AFFINITY PREDICTED BY RF-SCORE:    0.00 PKD
ROOT
HETATM    1  C   UNL     1      -8.101   8.484  69.532  1.00  0.00    -0.111 C  
HETATM    2  C   UNL     1      -7.831   9.982  69.715  1.00  0.00    -0.177 C  
HETATM    3  C   UNL     1      -6.541  10.245  70.492  1.00  0.00    -0.094 C  
ENDROOT
BRANCH   2   4
HETATM    4  N   UNL     1      -7.929  10.848  68.393  1.00  0.00    -0.120 N  
HETATM    5  C   UNL     1      -9.409  11.139  68.085  1.00  0.00    -0.176 C  
BRANCH   4   6
HETATM    6  C   UNL     1      -7.224  12.239  68.646  1.00  0.00    -0.105 C  
BRANCH   6   7
HETATM    7  C   UNL     1      -8.141  13.423  68.975  1.00  0.00     0.276 C  
BRANCH   7   8
HETATM    8  O   UNL     1      -7.405  14.651  68.842  1.00  0.00    -0.113 OA 
BRANCH   8   9
HETATM    9  C   UNL     1      -6.989  14.989  67.577  1.00  0.00    -0.186 C  
HETATM   10  O   UNL     1      -5.954  14.523  67.106  1.00  0.00    -0.200 OA 
BRANCH   9  11
HETATM   11  C   UNL     1      -7.956  15.940  66.851  1.00  0.00    -0.287 C  
HETATM   12  C   UNL     1      -9.382  15.415  66.815  1.00  0.00    -0.267 A  
HETATM   13  C   UNL     1      -9.688  14.207  66.159  1.00  0.00    -0.310 A  
HETATM   14  C   UNL     1     -10.954  13.635  66.284  1.00  0.00    -0.300 A  
HETATM   15  C   UNL     1     -11.941  14.286  67.018  1.00  0.00    -0.463 A  
HETATM   16  C   UNL     1     -11.668  15.521  67.606  1.00  0.00    -0.053 A  
HETATM   17  C   UNL     1     -10.394  16.083  67.502  1.00  0.00    -0.287 A  
HETATM   18  O   UNL     1     -10.222  17.295  68.118  1.00  0.00    -0.304 OA 
HETATM   19  C   UNL     1      -9.013  17.933  67.994  1.00  0.00    -0.267 A  
HETATM   20  C   UNL     1      -8.962  19.237  68.498  1.00  0.00    -0.414 A  
HETATM   21  C   UNL     1      -7.775  19.964  68.450  1.00  0.00    -0.284 A  
HETATM   22  C   UNL     1      -6.638  19.387  67.895  1.00  0.00    -0.258 A  
HETATM   23  C   UNL     1      -6.691  18.092  67.373  1.00  0.00    -0.194 A  
HETATM   24  C   UNL     1      -7.881  17.344  67.421  1.00  0.00    -0.212 A  
ENDBRANCH   9  11
ENDBRANCH   8   9
ENDBRANCH   7   8
ENDBRANCH   6   7
ENDBRANCH   4   6
BRANCH   4  25
HETATM   25  C   UNL     1      -7.190  10.219  67.119  1.00  0.00    -0.090 C  
HETATM   26  C   UNL     1      -8.121   9.889  65.952  1.00  0.00    -0.121 C  
HETATM   27  C   UNL     1      -6.055  11.115  66.589  1.00  0.00    -0.133 C  
ENDBRANCH   4  25
ENDBRANCH   2   4
TORSDOF 7
ENDMDL
MODEL      246
REMARK 921   NORMALIZED FREE ENERGY PREDICTED BY IDOCK:   -3.20 KCAL/MOL
REMARK 922        TOTAL FREE ENERGY PREDICTED BY IDOCK:   -5.70 KCAL/MOL
REMARK 923 INTER-LIGAND FREE ENERGY PREDICTED BY IDOCK:   -4.67 KCAL/MOL
REMARK 924 INTRA-LIGAND FREE ENERGY PREDICTED BY IDOCK:   -1.03 KCAL/MOL
REMARK 927      BINDING AFFINITY PREDICTED BY RF-SCORE:    0.00 PKD
ROOT
HETATM    1  C   UNL     1      -9.714  10.995  68.556  1.00  0.00    -0.189 C  
HETATM    2  C   UNL     1      -9.446   9.615  67.945  1.00  0.00    -0.131 C  
HETATM    3  C   UNL     1     -10.739   8.869  67.615  1.00  0.00    -0.221 C  
ENDROOT
BRANCH   2   4
HETATM    4  N   UNL     1      -8.416   9.602  66.743  1.00  0.00    -0.126 N  
HETATM    5  C   UNL     1      -7.764  10.992  66.618  1.00  0.00    -0.153 C  
BRANCH   4   6
HETATM    6  C   UNL     1      -7.262   8.576  67.076  1.00  0.00    -0.079 C  
BRANCH   6   7
HETATM    7  C   UNL     1      -7.599   7.467  68.079  1.00  0.00    -0.114 C  
BRANCH   7   8
HETATM    8  O   UNL     1      -7.498   7.983  69.417  1.00  0.00    -0.091 OA 
BRANCH   8   9
HETATM    9  C   UNL     1      -6.936   7.154  70.359  1.00  0.00    -0.058 C  
HETATM   10  O   UNL     1      -5.738   7.217  70.621  1.00  0.00    -0.026 OA 
BRANCH   9  11
HETATM   11  C   UNL     1      -7.955   6.219  71.034  1.00  0.00    -0.116 C  
HETATM   12  C   UNL     1      -9.313   6.872  71.231  1.00  0.00    -0.164 A  
HETATM   13  C   UNL     1      -9.452   8.013  72.044  1.00  0.00    -0.257 A  
HETATM   14  C   UNL     1     -10.655   8.716  72.076  1.00  0.00    -0.421 A  
HETATM   15  C   UNL     1     -11.746   8.261  71.341  1.00  0.00    -0.327 A  
HETATM   16  C   UNL     1     -11.639   7.088  70.595  1.00  0.00    -0.379 A  
HETATM   17  C   UNL     1     -10.427   6.396  70.542  1.00  0.00    -0.220 A  
HETATM   18  O   UNL     1     -10.419   5.259  69.777  1.00  0.00    -0.291 OA 
HETATM   19  C   UNL     1      -9.279   4.496  69.740  1.00  0.00    -0.125 A  
HETATM   20  C   UNL     1      -9.395   3.266  69.084  1.00  0.00    -0.233 A  
HETATM   21  C   UNL     1      -8.290   2.427  68.963  1.00  0.00    -0.077 A  
HETATM   22  C   UNL     1      -7.068   2.817  69.501  1.00  0.00    -0.040 A  
HETATM   23  C   UNL     1      -6.955   4.036  70.175  1.00  0.00    -0.041 A  
HETATM   24  C   UNL     1      -8.061   4.896  70.299  1.00  0.00    -0.077 A  
ENDBRANCH   9  11
ENDBRANCH   8   9
ENDBRANCH   7   8
ENDBRANCH   6   7
ENDBRANCH   4   6
BRANCH   4  25
HETATM   25  C   UNL     1      -9.023   9.124  65.340  1.00  0.00    -0.207 C  
HETATM   26  C   UNL     1      -9.523  10.262  64.451  1.00  0.00    -0.360 C  
HETATM   27  C   UNL     1      -8.031   8.277  64.522  1.00  0.00    -0.146 C  
ENDBRANCH   4  25
ENDBRANCH   2   4
TORSDOF 7
ENDMDL
MODEL      247
REMARK 921   NORMALIZED FREE ENERGY PREDICTED BY IDOCK:   -3.18 KCAL/MOL
REMARK 922        TOTAL FREE ENERGY PREDICTED BY IDOCK:   -5.67 KCAL/MOL
REMARK 923 INTER-LIGAND FREE ENERGY PREDICTED BY IDOCK:   -4.59 KCAL/MOL
REMARK 924 INTRA-LIGAND FREE ENERGY PREDICTED BY IDOCK:   -1.09 KCAL/MOL
REMARK 927      BINDING AFFINITY PREDICTED BY RF-SCORE:    0.00 PKD
ROOT
HETATM    1  C   UNL     1      -7.918  13.126  67.647  1.00  0.00    -0.174 C  
HETATM    2  C   UNL     1      -9.430  12.876  67.661  1.00  0.00    -0.197 C  
HETATM    3  C   UNL     1     -10.223  14.156  67.927  1.00  0.00    -0.235 C  
ENDROOT
BRANCH   2   4
HETATM    4  N   UNL     1      -9.988  12.065  66.420  1.00  0.00    -0.214 N  
HETATM    5  C   UNL     1      -8.815  11.390  65.687  1.00  0.00    -0.076 C  
BRANCH   4   6
HETATM    6  C   UNL     1     -10.929  10.913  66.952  1.00  0.00    -0.223 C  
BRANCH   6   7
HETATM    7  C   UNL     1     -10.238   9.649  67.475  1.00  0.00    -0.220 C  
BRANCH   7   8
HETATM    8  O   UNL     1     -10.761   8.498  66.790  1.00  0.00    -0.238 OA 
BRANCH   8   9
HETATM    9  C   UNL     1     -10.204   7.282  67.110  1.00  0.00    -0.269 C  
HETATM   10  O   UNL     1     -10.810   6.235  66.903  1.00  0.00    -0.331 OA 
BRANCH   9  11
HETATM   11  C   UNL     1      -8.783   7.397  67.690  1.00  0.00    -0.125 C  
HETATM   12  C   UNL     1      -8.642   6.715  69.041  1.00  0.00    -0.130 A  
HETATM   13  C   UNL     1      -9.395   7.148  70.149  1.00  0.00    -0.158 A  
HETATM   14  C   UNL     1      -9.404   6.410  71.332  1.00  0.00    -0.157 A  
HETATM   15  C   UNL     1      -8.623   5.262  71.440  1.00  0.00    -0.132 A  
HETATM   16  C   UNL     1      -7.814   4.871  70.373  1.00  0.00    -0.066 A  
HETATM   17  C   UNL     1      -7.823   5.595  69.179  1.00  0.00    -0.089 A  
HETATM   18  O   UNL     1      -7.000   5.128  68.188  1.00  0.00    -0.058 OA 
HETATM   19  C   UNL     1      -6.911   5.836  67.015  1.00  0.00    -0.065 A  
HETATM   20  C   UNL     1      -5.929   5.402  66.120  1.00  0.00    -0.022 A  
HETATM   21  C   UNL     1      -5.773   6.031  64.887  1.00  0.00    -0.024 A  
HETATM   22  C   UNL     1      -6.600   7.099  64.551  1.00  0.00    -0.043 A  
HETATM   23  C   UNL     1      -7.569   7.547  65.453  1.00  0.00    -0.095 A  
HETATM   24  C   UNL     1      -7.741   6.917  66.698  1.00  0.00    -0.105 A  
ENDBRANCH   9  11
ENDBRANCH   8   9
ENDBRANCH   7   8
ENDBRANCH   6   7
ENDBRANCH   4   6
BRANCH   4  25
HETATM   25  C   UNL     1     -10.886  12.919  65.405  1.00  0.00    -0.283 C  
HETATM   26  C   UNL     1     -10.486  12.770  63.937  1.00  0.00    -0.402 C  
HETATM   27  C   UNL     1     -12.387  12.600  65.529  1.00  0.00    -0.455 C  
ENDBRANCH   4  25
ENDBRANCH   2   4
TORSDOF 7
ENDMDL
MODEL      248
REMARK 921   NORMALIZED FREE ENERGY PREDICTED BY IDOCK:   -3.16 KCAL/MOL
REMARK 922        TOTAL FREE ENERGY PREDICTED BY IDOCK:   -5.64 KCAL/MOL
REMARK 923 INTER-LIGAND FREE ENERGY PREDICTED BY IDOCK:   -4.58 KCAL/MOL
REMARK 924 INTRA-LIGAND FREE ENERGY PREDICTED BY IDOCK:   -1.07 KCAL/MOL
REMARK 927      BINDING AFFINITY PREDICTED BY RF-SCORE:    0.00 PKD
ROOT
HETATM    1  C   UNL     1      -8.708   3.452  74.031  1.00  0.00    -0.087 C  
HETATM    2  C   UNL     1      -9.731   3.738  72.926  1.00  0.00    -0.131 C  
HETATM    3  C   UNL     1     -10.791   4.745  73.370  1.00  0.00    -0.361 C  
ENDROOT
BRANCH   2   4
HETATM    4  N   UNL     1      -9.111   4.094  71.513  1.00  0.00    -0.118 N  
HETATM    5  C   UNL     1      -9.700   3.151  70.448  1.00  0.00    -0.029 C  
BRANCH   4   6
HETATM    6  C   UNL     1      -9.547   5.562  71.125  1.00  0.00    -0.162 C  
BRANCH   6   7
HETATM    7  C   UNL     1     -10.488   5.705  69.924  1.00  0.00    -0.308 C  
BRANCH   7   8
HETATM    8  O   UNL     1     -10.854   7.086  69.763  1.00  0.00    -0.232 OA 
BRANCH   8   9
HETATM    9  C   UNL     1      -9.959   7.889  69.097  1.00  0.00    -0.184 C  
HETATM   10  O   UNL     1      -9.413   7.508  68.066  1.00  0.00    -0.141 OA 
BRANCH   9  11
HETATM   11  C   UNL     1      -9.773   9.268  69.755  1.00  0.00    -0.202 C  
HETATM   12  C   UNL     1      -8.431   9.410  70.455  1.00  0.00    -0.247 A  
HETATM   13  C   UNL     1      -8.092   8.575  71.536  1.00  0.00    -0.191 A  
HETATM   14  C   UNL     1      -6.797   8.580  72.056  1.00  0.00    -0.096 A  
HETATM   15  C   UNL     1      -5.844   9.453  71.538  1.00  0.00    -0.068 A  
HETATM   16  C   UNL     1      -6.196  10.338  70.518  1.00  0.00    -0.116 A  
HETATM   17  C   UNL     1      -7.485  10.316  69.981  1.00  0.00    -0.132 A  
HETATM   18  O   UNL     1      -7.731  11.219  68.980  1.00  0.00    -0.135 OA 
HETATM   19  C   UNL     1      -8.999  11.296  68.458  1.00  0.00    -0.166 A  
HETATM   20  C   UNL     1      -9.222  12.350  67.567  1.00  0.00    -0.183 A  
HETATM   21  C   UNL     1     -10.464  12.503  66.956  1.00  0.00    -0.246 A  
HETATM   22  C   UNL     1     -11.486  11.602  67.240  1.00  0.00    -0.350 A  
HETATM   23  C   UNL     1     -11.270  10.560  68.146  1.00  0.00    -0.357 A  
HETATM   24  C   UNL     1     -10.019  10.390  68.764  1.00  0.00    -0.196 A  
ENDBRANCH   9  11
ENDBRANCH   8   9
ENDBRANCH   7   8
ENDBRANCH   6   7
ENDBRANCH   4   6
BRANCH   4  25
HETATM   25  C   UNL     1      -7.510   4.094  71.459  1.00  0.00    -0.059 C  
HETATM   26  C   UNL     1      -6.897   2.761  71.031  1.00  0.00    -0.032 C  
HETATM   27  C   UNL     1      -6.947   5.197  70.545  1.00  0.00    -0.045 C  
ENDBRANCH   4  25
ENDBRANCH   2   4
TORSDOF 7
ENDMDL
MODEL      249
REMARK 921   NORMALIZED FREE ENERGY PREDICTED BY IDOCK:   -3.15 KCAL/MOL
REMARK 922        TOTAL FREE ENERGY PREDICTED BY IDOCK:   -5.62 KCAL/MOL
REMARK 923 INTER-LIGAND FREE ENERGY PREDICTED BY IDOCK:   -4.69 KCAL/MOL
REMARK 924 INTRA-LIGAND FREE ENERGY PREDICTED BY IDOCK:   -0.93 KCAL/MOL
REMARK 927      BINDING AFFINITY PREDICTED BY RF-SCORE:    0.00 PKD
ROOT
HETATM    1  C   UNL     1      -7.637  10.131  65.013  1.00  0.00    -0.141 C  
HETATM    2  C   UNL     1      -8.013  10.449  66.465  1.00  0.00    -0.123 C  
HETATM    3  C   UNL     1      -7.418  11.776  66.937  1.00  0.00    -0.106 C  
ENDROOT
BRANCH   2   4
HETATM    4  N   UNL     1      -9.555  10.322  66.802  1.00  0.00    -0.167 N  
HETATM    5  C   UNL     1     -10.191   9.267  65.879  1.00  0.00     0.016 C  
BRANCH   4   6
HETATM    6  C   UNL     1      -9.706   9.795  68.284  1.00  0.00    -0.145 C  
BRANCH   6   7
HETATM    7  C   UNL     1      -9.862   8.280  68.461  1.00  0.00    -0.176 C  
BRANCH   7   8
HETATM    8  O   UNL     1      -8.584   7.643  68.286  1.00  0.00    -0.124 OA 
BRANCH   8   9
HETATM    9  C   UNL     1      -7.740   7.643  69.371  1.00  0.00    -0.107 C  
HETATM   10  O   UNL     1      -6.914   8.538  69.530  1.00  0.00    -0.047 OA 
BRANCH   9  11
HETATM   11  C   UNL     1      -7.980   6.462  70.328  1.00  0.00    -0.112 C  
HETATM   12  C   UNL     1      -9.174   6.678  71.243  1.00  0.00    -0.155 A  
HETATM   13  C   UNL     1      -9.194   7.745  72.161  1.00  0.00    -0.198 A  
HETATM   14  C   UNL     1     -10.358   8.052  72.865  1.00  0.00    -0.397 A  
HETATM   15  C   UNL     1     -11.496   7.268  72.700  1.00  0.00    -0.304 A  
HETATM   16  C   UNL     1     -11.460   6.162  71.851  1.00  0.00    -0.355 A  
HETATM   17  C   UNL     1     -10.302   5.868  71.127  1.00  0.00    -0.221 A  
HETATM   18  O   UNL     1     -10.367   4.766  70.315  1.00  0.00    -0.234 OA 
HETATM   19  C   UNL     1      -9.240   4.384  69.631  1.00  0.00    -0.133 A  
HETATM   20  C   UNL     1      -9.327   3.159  68.961  1.00  0.00    -0.230 A  
HETATM   21  C   UNL     1      -8.251   2.690  68.211  1.00  0.00    -0.075 A  
HETATM   22  C   UNL     1      -7.086   3.447  68.133  1.00  0.00    -0.050 A  
HETATM   23  C   UNL     1      -6.990   4.661  68.818  1.00  0.00    -0.052 A  
HETATM   24  C   UNL     1      -8.071   5.149  69.573  1.00  0.00    -0.083 A  
ENDBRANCH   9  11
ENDBRANCH   8   9
ENDBRANCH   7   8
ENDBRANCH   6   7
ENDBRANCH   4   6
BRANCH   4  25
HETATM   25  C   UNL     1     -10.372  11.699  66.751  1.00  0.00    -0.222 C  
HETATM   26  C   UNL     1     -11.072  11.963  65.419  1.00  0.00    -0.360 C  
HETATM   27  C   UNL     1     -11.419  11.809  67.874  1.00  0.00    -0.387 C  
ENDBRANCH   4  25
ENDBRANCH   2   4
TORSDOF 7
ENDMDL
MODEL      250
REMARK 921   NORMALIZED FREE ENERGY PREDICTED BY IDOCK:   -3.13 KCAL/MOL
REMARK 922        TOTAL FREE ENERGY PREDICTED BY IDOCK:   -5.60 KCAL/MOL
REMARK 923 INTER-LIGAND FREE ENERGY PREDICTED BY IDOCK:   -5.09 KCAL/MOL
REMARK 924 INTRA-LIGAND FREE ENERGY PREDICTED BY IDOCK:   -0.51 KCAL/MOL
REMARK 927      BINDING AFFINITY PREDICTED BY RF-SCORE:    0.00 PKD
ROOT
HETATM    1  C   UNL     1     -10.868   9.224  67.220  1.00  0.00    -0.140 C  
HETATM    2  C   UNL     1     -10.126   7.884  67.294  1.00  0.00    -0.238 C  
HETATM    3  C   UNL     1     -11.007   6.713  66.858  1.00  0.00    -0.396 C  
ENDROOT
BRANCH   2   4
HETATM    4  N   UNL     1      -8.704   7.864  66.598  1.00  0.00    -0.135 N  
HETATM    5  C   UNL     1      -8.607   9.040  65.609  1.00  0.00    -0.166 C  
BRANCH   4   6
HETATM    6  C   UNL     1      -7.598   8.093  67.703  1.00  0.00    -0.098 C  
BRANCH   6   7
HETATM    7  C   UNL     1      -7.928   7.603  69.117  1.00  0.00    -0.120 C  
BRANCH   7   8
HETATM    8  O   UNL     1      -8.564   8.661  69.855  1.00  0.00    -0.124 OA 
BRANCH   8   9
HETATM    9  C   UNL     1      -8.064   8.927  71.108  1.00  0.00    -0.160 C  
HETATM   10  O   UNL     1      -7.122   9.699  71.262  1.00  0.00    -0.329 OA 
BRANCH   9  11
HETATM   11  C   UNL     1      -8.825   8.204  72.233  1.00  0.00    -0.248 C  
HETATM   12  C   UNL     1     -10.311   8.068  71.947  1.00  0.00    -0.284 A  
HETATM   13  C   UNL     1     -11.123   9.209  71.797  1.00  0.00    -0.437 A  
HETATM   14  C   UNL     1     -12.439   9.088  71.353  1.00  0.00    -0.378 A  
HETATM   15  C   UNL     1     -12.976   7.828  71.105  1.00  0.00    -0.172 A  
HETATM   16  C   UNL     1     -12.202   6.689  71.327  1.00  0.00    -0.369 A  
HETATM   17  C   UNL     1     -10.876   6.809  71.747  1.00  0.00    -0.229 A  
HETATM   18  O   UNL     1     -10.196   5.634  71.931  1.00  0.00    -0.184 OA 
HETATM   19  C   UNL     1      -8.911   5.683  72.410  1.00  0.00    -0.135 A  
HETATM   20  C   UNL     1      -8.340   4.448  72.737  1.00  0.00    -0.105 A  
HETATM   21  C   UNL     1      -7.030   4.380  73.204  1.00  0.00    -0.064 A  
HETATM   22  C   UNL     1      -6.290   5.550  73.347  1.00  0.00    -0.065 A  
HETATM   23  C   UNL     1      -6.865   6.786  73.041  1.00  0.00    -0.075 A  
HETATM   24  C   UNL     1      -8.185   6.868  72.562  1.00  0.00    -0.110 A  
ENDBRANCH   9  11
ENDBRANCH   8   9
ENDBRANCH   7   8
ENDBRANCH   6   7
ENDBRANCH   4   6
BRANCH   4  25
HETATM   25  C   UNL     1      -8.320   6.481  65.888  1.00  0.00    -0.140 C  
HETATM   26  C   UNL     1      -7.304   6.619  64.754  1.00  0.00    -0.084 C  
HETATM   27  C   UNL     1      -7.792   5.431  66.881  1.00  0.00    -0.101 C  
ENDBRANCH   4  25
ENDBRANCH   2   4
TORSDOF 7
ENDMDL
MODEL      251
REMARK 921   NORMALIZED FREE ENERGY PREDICTED BY IDOCK:   -3.12 KCAL/MOL
REMARK 922        TOTAL FREE ENERGY PREDICTED BY IDOCK:   -5.59 KCAL/MOL
REMARK 923 INTER-LIGAND FREE ENERGY PREDICTED BY IDOCK:   -5.52 KCAL/MOL
REMARK 924 INTRA-LIGAND FREE ENERGY PREDICTED BY IDOCK:   -0.07 KCAL/MOL
REMARK 927      BINDING AFFINITY PREDICTED BY RF-SCORE:    0.00 PKD
ROOT
HETATM    1  C   UNL     1      -9.666   4.941  69.078  1.00  0.00    -0.245 C  
HETATM    2  C   UNL     1     -10.600   6.145  68.910  1.00  0.00    -0.276 C  
HETATM    3  C   UNL     1     -11.500   6.349  70.129  1.00  0.00    -0.484 C  
ENDROOT
BRANCH   2   4
HETATM    4  N   UNL     1      -9.894   7.484  68.447  1.00  0.00    -0.160 N  
HETATM    5  C   UNL     1      -9.018   7.195  67.214  1.00  0.00    -0.123 C  
BRANCH   4   6
HETATM    6  C   UNL     1     -11.005   8.512  67.997  1.00  0.00     0.174 C  
BRANCH   6   7
HETATM    7  C   UNL     1     -10.566   9.617  67.030  1.00  0.00    -0.197 C  
BRANCH   7   8
HETATM    8  O   UNL     1     -11.443  10.750  67.167  1.00  0.00    -0.400 OA 
BRANCH   8   9
HETATM    9  C   UNL     1     -10.858  11.993  67.121  1.00  0.00    -0.253 C  
HETATM   10  O   UNL     1     -10.971  12.709  66.130  1.00  0.00    -0.271 OA 
BRANCH   9  11
HETATM   11  C   UNL     1     -10.119  12.366  68.419  1.00  0.00    -0.217 C  
HETATM   12  C   UNL     1      -8.610  12.401  68.247  1.00  0.00    -0.172 A  
HETATM   13  C   UNL     1      -7.899  11.241  67.886  1.00  0.00    -0.116 A  
HETATM   14  C   UNL     1      -6.547  11.314  67.550  1.00  0.00    -0.073 A  
HETATM   15  C   UNL     1      -5.879  12.533  67.620  1.00  0.00    -0.134 A  
HETATM   16  C   UNL     1      -6.558  13.672  68.053  1.00  0.00    -0.136 A  
HETATM   17  C   UNL     1      -7.917  13.605  68.366  1.00  0.00    -0.147 A  
HETATM   18  O   UNL     1      -8.497  14.778  68.775  1.00  0.00    -0.161 OA 
HETATM   19  C   UNL     1      -9.813  14.763  69.164  1.00  0.00    -0.164 A  
HETATM   20  C   UNL     1     -10.289  15.950  69.730  1.00  0.00    -0.290 A  
HETATM   21  C   UNL     1     -11.619  16.053  70.132  1.00  0.00    -0.324 A  
HETATM   22  C   UNL     1     -12.472  14.967  69.970  1.00  0.00    -0.320 A  
HETATM   23  C   UNL     1     -11.993  13.773  69.423  1.00  0.00    -0.397 A  
HETATM   24  C   UNL     1     -10.655  13.657  69.007  1.00  0.00    -0.147 A  
ENDBRANCH   9  11
ENDBRANCH   8   9
ENDBRANCH   7   8
ENDBRANCH   6   7
ENDBRANCH   4   6
BRANCH   4  25
HETATM   25  C   UNL     1      -9.054   8.232  69.587  1.00  0.00    -0.154 C  
HETATM   26  C   UNL     1      -9.891   8.709  70.773  1.00  0.00    -0.236 C  
HETATM   27  C   UNL     1      -7.897   7.374  70.131  1.00  0.00    -0.099 C  
ENDBRANCH   4  25
ENDBRANCH   2   4
TORSDOF 7
ENDMDL
MODEL      252
REMARK 921   NORMALIZED FREE ENERGY PREDICTED BY IDOCK:   -3.10 KCAL/MOL
REMARK 922        TOTAL FREE ENERGY PREDICTED BY IDOCK:   -5.56 KCAL/MOL
REMARK 923 INTER-LIGAND FREE ENERGY PREDICTED BY IDOCK:   -5.08 KCAL/MOL
REMARK 924 INTRA-LIGAND FREE ENERGY PREDICTED BY IDOCK:   -0.47 KCAL/MOL
REMARK 927      BINDING AFFINITY PREDICTED BY RF-SCORE:    0.00 PKD
ROOT
HETATM    1  C   UNL     1      -8.791   9.051  65.476  1.00  0.00    -0.233 C  
HETATM    2  C   UNL     1      -8.887  10.432  64.818  1.00  0.00    -0.193 C  
HETATM    3  C   UNL     1      -9.448  10.356  63.398  1.00  0.00    -0.356 C  
ENDROOT
BRANCH   2   4
HETATM    4  N   UNL     1      -9.599  11.544  65.692  1.00  0.00    -0.228 N  
HETATM    5  C   UNL     1      -8.683  11.928  66.869  1.00  0.00    -0.191 C  
BRANCH   4   6
HETATM    6  C   UNL     1      -9.786  12.839  64.807  1.00  0.00    -0.031 C  
BRANCH   6   7
HETATM    7  C   UNL     1      -9.520  14.184  65.493  1.00  0.00     0.140 C  
BRANCH   7   8
HETATM    8  O   UNL     1     -10.572  14.458  66.435  1.00  0.00    -0.289 OA 
BRANCH   8   9
HETATM    9  C   UNL     1     -10.234  15.202  67.540  1.00  0.00    -0.238 C  
HETATM   10  O   UNL     1     -10.789  15.019  68.620  1.00  0.00    -0.235 OA 
BRANCH   9  11
HETATM   11  C   UNL     1      -9.102  16.210  67.272  1.00  0.00    -0.215 C  
HETATM   12  C   UNL     1      -9.551  17.654  67.428  1.00  0.00    -0.267 A  
HETATM   13  C   UNL     1     -10.556  18.189  66.600  1.00  0.00    -0.296 A  
HETATM   14  C   UNL     1     -11.094  19.448  66.863  1.00  0.00    -0.247 A  
HETATM   15  C   UNL     1     -10.601  20.207  67.921  1.00  0.00    -0.314 A  
HETATM   16  C   UNL     1      -9.552  19.716  68.697  1.00  0.00    -0.457 A  
HETATM   17  C   UNL     1      -9.028  18.445  68.450  1.00  0.00    -0.316 A  
HETATM   18  O   UNL     1      -8.004  18.049  69.270  1.00  0.00    -0.018 OA 
HETATM   19  C   UNL     1      -7.400  16.839  69.034  1.00  0.00    -0.231 A  
HETATM   20  C   UNL     1      -6.257  16.576  69.795  1.00  0.00    -0.205 A  
HETATM   21  C   UNL     1      -5.583  15.365  69.657  1.00  0.00    -0.108 A  
HETATM   22  C   UNL     1      -6.053  14.416  68.754  1.00  0.00    -0.088 A  
HETATM   23  C   UNL     1      -7.184  14.685  67.978  1.00  0.00    -0.147 A  
HETATM   24  C   UNL     1      -7.878  15.901  68.113  1.00  0.00    -0.134 A  
ENDBRANCH   9  11
ENDBRANCH   8   9
ENDBRANCH   7   8
ENDBRANCH   6   7
ENDBRANCH   4   6
BRANCH   4  25
HETATM   25  C   UNL     1     -11.066  11.161  66.207  1.00  0.00    -0.111 C  
HETATM   26  C   UNL     1     -11.261  11.310  67.715  1.00  0.00    -0.354 C  
HETATM   27  C   UNL     1     -12.172  11.963  65.498  1.00  0.00     0.281 C  
ENDBRANCH   4  25
ENDBRANCH   2   4
TORSDOF 7
ENDMDL
MODEL      253
REMARK 921   NORMALIZED FREE ENERGY PREDICTED BY IDOCK:   -3.09 KCAL/MOL
REMARK 922        TOTAL FREE ENERGY PREDICTED BY IDOCK:   -5.54 KCAL/MOL
REMARK 923 INTER-LIGAND FREE ENERGY PREDICTED BY IDOCK:   -6.00 KCAL/MOL
REMARK 924 INTRA-LIGAND FREE ENERGY PREDICTED BY IDOCK:    0.46 KCAL/MOL
REMARK 927      BINDING AFFINITY PREDICTED BY RF-SCORE:    0.00 PKD
ROOT
HETATM    1  C   UNL     1     -11.775  15.040  69.817  1.00  0.00    -0.341 C  
HETATM    2  C   UNL     1     -10.988  15.622  68.637  1.00  0.00    -0.294 C  
HETATM    3  C   UNL     1     -10.502  17.044  68.915  1.00  0.00    -0.347 C  
ENDROOT
BRANCH   2   4
HETATM    4  N   UNL     1      -9.841  14.690  68.070  1.00  0.00    -0.213 N  
HETATM    5  C   UNL     1      -8.495  15.107  68.690  1.00  0.00    -0.170 C  
BRANCH   4   6
HETATM    6  C   UNL     1     -10.124  13.205  68.528  1.00  0.00    -0.200 C  
BRANCH   6   7
HETATM    7  C   UNL     1     -11.245  12.461  67.794  1.00  0.00    -0.275 C  
BRANCH   7   8
HETATM    8  O   UNL     1     -11.137  11.051  68.054  1.00  0.00    -0.240 OA 
BRANCH   8   9
HETATM    9  C   UNL     1     -10.464  10.300  67.121  1.00  0.00    -0.254 C  
HETATM   10  O   UNL     1     -10.530  10.569  65.925  1.00  0.00    -0.228 OA 
BRANCH   9  11
HETATM   11  C   UNL     1      -9.628   9.166  67.741  1.00  0.00    -0.173 C  
HETATM   12  C   UNL     1     -10.358   8.439  68.858  1.00  0.00    -0.231 A  
HETATM   13  C   UNL     1     -10.749   9.121  70.025  1.00  0.00    -0.254 A  
HETATM   14  C   UNL     1     -11.577   8.503  70.963  1.00  0.00    -0.317 A  
HETATM   15  C   UNL     1     -11.980   7.185  70.772  1.00  0.00    -0.352 A  
HETATM   16  C   UNL     1     -11.532   6.478  69.656  1.00  0.00    -0.417 A  
HETATM   17  C   UNL     1     -10.724   7.102  68.704  1.00  0.00    -0.163 A  
HETATM   18  O   UNL     1     -10.342   6.327  67.641  1.00  0.00    -0.148 OA 
HETATM   19  C   UNL     1      -9.490   6.862  66.706  1.00  0.00    -0.165 A  
HETATM   20  C   UNL     1      -9.006   5.967  65.747  1.00  0.00    -0.116 A  
HETATM   21  C   UNL     1      -8.158   6.411  64.735  1.00  0.00    -0.114 A  
HETATM   22  C   UNL     1      -7.792   7.752  64.684  1.00  0.00    -0.130 A  
HETATM   23  C   UNL     1      -8.258   8.644  65.654  1.00  0.00    -0.123 A  
HETATM   24  C   UNL     1      -9.120   8.211  66.677  1.00  0.00    -0.202 A  
ENDBRANCH   9  11
ENDBRANCH   8   9
ENDBRANCH   7   8
ENDBRANCH   6   7
ENDBRANCH   4   6
BRANCH   4  25
HETATM   25  C   UNL     1      -9.746  14.634  66.472  1.00  0.00    -0.280 C  
HETATM   26  C   UNL     1     -11.067  14.909  65.755  1.00  0.00    -0.342 C  
HETATM   27  C   UNL     1      -8.684  15.596  65.907  1.00  0.00     0.092 C  
ENDBRANCH   4  25
ENDBRANCH   2   4
TORSDOF 7
ENDMDL
MODEL      254
REMARK 921   NORMALIZED FREE ENERGY PREDICTED BY IDOCK:   -3.06 KCAL/MOL
REMARK 922        TOTAL FREE ENERGY PREDICTED BY IDOCK:   -5.49 KCAL/MOL
REMARK 923 INTER-LIGAND FREE ENERGY PREDICTED BY IDOCK:   -4.78 KCAL/MOL
REMARK 924 INTRA-LIGAND FREE ENERGY PREDICTED BY IDOCK:   -0.72 KCAL/MOL
REMARK 927      BINDING AFFINITY PREDICTED BY RF-SCORE:    0.00 PKD
ROOT
HETATM    1  C   UNL     1      -9.591   3.178  68.570  1.00  0.00    -0.114 C  
HETATM    2  C   UNL     1      -9.213   4.335  69.502  1.00  0.00    -0.140 C  
HETATM    3  C   UNL     1      -9.255   3.927  70.974  1.00  0.00    -0.200 C  
ENDROOT
BRANCH   2   4
HETATM    4  N   UNL     1      -7.876   5.093  69.122  1.00  0.00    -0.080 N  
HETATM    5  C   UNL     1      -8.127   5.975  67.885  1.00  0.00    -0.106 C  
BRANCH   4   6
HETATM    6  C   UNL     1      -7.486   6.059  70.310  1.00  0.00    -0.090 C  
BRANCH   6   7
HETATM    7  C   UNL     1      -6.340   7.042  70.048  1.00  0.00    -0.035 C  
BRANCH   7   8
HETATM    8  O   UNL     1      -6.876   8.360  69.841  1.00  0.00    -0.042 OA 
BRANCH   8   9
HETATM    9  C   UNL     1      -7.332   9.024  70.954  1.00  0.00    -0.111 C  
HETATM   10  O   UNL     1      -6.590   9.245  71.907  1.00  0.00    -0.281 OA 
BRANCH   9  11
HETATM   11  C   UNL     1      -8.802   9.466  70.840  1.00  0.00    -0.168 C  
HETATM   12  C   UNL     1      -9.189   9.865  69.426  1.00  0.00    -0.225 A  
HETATM   13  C   UNL     1      -8.558  10.947  68.785  1.00  0.00    -0.159 A  
HETATM   14  C   UNL     1      -8.780  11.196  67.431  1.00  0.00    -0.133 A  
HETATM   15  C   UNL     1      -9.672  10.401  66.716  1.00  0.00    -0.224 A  
HETATM   16  C   UNL     1     -10.360   9.375  67.364  1.00  0.00    -0.325 A  
HETATM   17  C   UNL     1     -10.120   9.110  68.714  1.00  0.00    -0.197 A  
HETATM   18  O   UNL     1     -10.840   8.079  69.259  1.00  0.00    -0.177 OA 
HETATM   19  C   UNL     1     -10.701   7.813  70.598  1.00  0.00    -0.231 A  
HETATM   20  C   UNL     1     -11.588   6.867  71.122  1.00  0.00    -0.363 A  
HETATM   21  C   UNL     1     -11.515   6.500  72.463  1.00  0.00    -0.274 A  
HETATM   22  C   UNL     1     -10.554   7.084  73.284  1.00  0.00    -0.378 A  
HETATM   23  C   UNL     1      -9.681   8.045  72.767  1.00  0.00    -0.348 A  
HETATM   24  C   UNL     1      -9.739   8.419  71.413  1.00  0.00    -0.260 A  
ENDBRANCH   9  11
ENDBRANCH   8   9
ENDBRANCH   7   8
ENDBRANCH   6   7
ENDBRANCH   4   6
BRANCH   4  25
HETATM   25  C   UNL     1      -6.603   4.146  68.903  1.00  0.00    -0.045 C  
HETATM   26  C   UNL     1      -6.599   2.890  69.774  1.00  0.00    -0.033 C  
HETATM   27  C   UNL     1      -6.429   3.714  67.436  1.00  0.00    -0.038 C  
ENDBRANCH   4  25
ENDBRANCH   2   4
TORSDOF 7
ENDMDL
MODEL      255
REMARK 921   NORMALIZED FREE ENERGY PREDICTED BY IDOCK:   -3.06 KCAL/MOL
REMARK 922        TOTAL FREE ENERGY PREDICTED BY IDOCK:   -5.49 KCAL/MOL
REMARK 923 INTER-LIGAND FREE ENERGY PREDICTED BY IDOCK:   -4.14 KCAL/MOL
REMARK 924 INTRA-LIGAND FREE ENERGY PREDICTED BY IDOCK:   -1.36 KCAL/MOL
REMARK 927      BINDING AFFINITY PREDICTED BY RF-SCORE:    0.00 PKD
ROOT
HETATM    1  C   UNL     1      -7.930   3.582  65.995  1.00  0.00    -0.092 C  
HETATM    2  C   UNL     1      -8.806   4.801  65.684  1.00  0.00    -0.135 C  
HETATM    3  C   UNL     1     -10.137   4.406  65.043  1.00  0.00    -0.165 C  
ENDROOT
BRANCH   2   4
HETATM    4  N   UNL     1      -8.989   5.820  66.882  1.00  0.00    -0.113 N  
HETATM    5  C   UNL     1     -10.149   6.779  66.560  1.00  0.00    -0.066 C  
BRANCH   4   6
HETATM    6  C   UNL     1      -9.401   5.010  68.175  1.00  0.00    -0.126 C  
BRANCH   6   7
HETATM    7  C   UNL     1     -10.708   5.427  68.858  1.00  0.00    -0.058 C  
BRANCH   7   8
HETATM    8  O   UNL     1     -10.557   5.329  70.284  1.00  0.00    -0.278 OA 
BRANCH   8   9
HETATM    9  C   UNL     1     -11.097   6.346  71.035  1.00  0.00    -0.294 C  
HETATM   10  O   UNL     1     -12.225   6.773  70.803  1.00  0.00    -0.390 OA 
BRANCH   9  11
HETATM   11  C   UNL     1     -10.171   6.825  72.168  1.00  0.00    -0.213 C  
HETATM   12  C   UNL     1      -9.749   5.700  73.098  1.00  0.00    -0.164 A  
HETATM   13  C   UNL     1     -10.705   4.988  73.847  1.00  0.00    -0.356 A  
HETATM   14  C   UNL     1     -10.340   3.842  74.554  1.00  0.00    -0.266 A  
HETATM   15  C   UNL     1      -9.012   3.425  74.564  1.00  0.00    -0.097 A  
HETATM   16  C   UNL     1      -8.046   4.171  73.888  1.00  0.00    -0.092 A  
HETATM   17  C   UNL     1      -8.414   5.304  73.160  1.00  0.00    -0.114 A  
HETATM   18  O   UNL     1      -7.395   5.965  72.525  1.00  0.00    -0.091 OA 
HETATM   19  C   UNL     1      -7.681   7.125  71.849  1.00  0.00    -0.091 A  
HETATM   20  C   UNL     1      -6.574   7.836  71.374  1.00  0.00    -0.041 A  
HETATM   21  C   UNL     1      -6.752   9.012  70.650  1.00  0.00    -0.064 A  
HETATM   22  C   UNL     1      -8.039   9.479  70.403  1.00  0.00    -0.209 A  
HETATM   23  C   UNL     1      -9.145   8.781  70.894  1.00  0.00    -0.256 A  
HETATM   24  C   UNL     1      -8.980   7.589  71.621  1.00  0.00    -0.137 A  
ENDBRANCH   9  11
ENDBRANCH   8   9
ENDBRANCH   7   8
ENDBRANCH   6   7
ENDBRANCH   4   6
BRANCH   4  25
HETATM   25  C   UNL     1      -7.668   6.630  67.286  1.00  0.00    -0.104 C  
HETATM   26  C   UNL     1      -6.789   5.923  68.317  1.00  0.00    -0.067 C  
HETATM   27  C   UNL     1      -6.792   6.981  66.069  1.00  0.00    -0.057 C  
ENDBRANCH   4  25
ENDBRANCH   2   4
TORSDOF 7
ENDMDL
MODEL      256
REMARK 921   NORMALIZED FREE ENERGY PREDICTED BY IDOCK:   -3.04 KCAL/MOL
REMARK 922        TOTAL FREE ENERGY PREDICTED BY IDOCK:   -5.48 KCAL/MOL
REMARK 923 INTER-LIGAND FREE ENERGY PREDICTED BY IDOCK:   -5.38 KCAL/MOL
REMARK 924 INTRA-LIGAND FREE ENERGY PREDICTED BY IDOCK:   -0.09 KCAL/MOL
REMARK 927      BINDING AFFINITY PREDICTED BY RF-SCORE:    0.00 PKD
ROOT
HETATM    1  C   UNL     1     -10.028   6.621  69.870  1.00  0.00    -0.188 C  
HETATM    2  C   UNL     1      -9.685   8.024  69.356  1.00  0.00    -0.170 C  
HETATM    3  C   UNL     1     -10.559   9.102  69.998  1.00  0.00    -0.250 C  
ENDROOT
BRANCH   2   4
HETATM    4  N   UNL     1      -8.146   8.393  69.388  1.00  0.00    -0.112 N  
HETATM    5  C   UNL     1      -7.530   8.122  68.003  1.00  0.00    -0.097 C  
BRANCH   4   6
HETATM    6  C   UNL     1      -8.003   9.942  69.665  1.00  0.00    -0.162 C  
BRANCH   6   7
HETATM    7  C   UNL     1      -7.071  10.723  68.732  1.00  0.00    -0.079 C  
BRANCH   7   8
HETATM    8  O   UNL     1      -7.817  11.753  68.060  1.00  0.00    -0.118 OA 
BRANCH   8   9
HETATM    9  C   UNL     1      -7.588  13.046  68.465  1.00  0.00    -0.121 C  
HETATM   10  O   UNL     1      -6.498  13.383  68.919  1.00  0.00    -0.091 OA 
BRANCH   9  11
HETATM   11  C   UNL     1      -8.797  13.975  68.249  1.00  0.00    -0.184 C  
HETATM   12  C   UNL     1      -8.393  15.422  68.023  1.00  0.00    -0.142 A  
HETATM   13  C   UNL     1      -7.706  16.142  69.019  1.00  0.00    -0.222 A  
HETATM   14  C   UNL     1      -7.176  17.402  68.744  1.00  0.00    -0.249 A  
HETATM   15  C   UNL     1      -7.370  17.979  67.491  1.00  0.00    -0.213 A  
HETATM   16  C   UNL     1      -8.117  17.304  66.525  1.00  0.00    -0.313 A  
HETATM   17  C   UNL     1      -8.627  16.032  66.792  1.00  0.00    -0.257 A  
HETATM   18  O   UNL     1      -9.342  15.449  65.778  1.00  0.00    -0.325 OA 
HETATM   19  C   UNL     1      -9.928  14.228  66.002  1.00  0.00    -0.319 A  
HETATM   20  C   UNL     1     -10.781  13.773  64.991  1.00  0.00    -0.391 A  
HETATM   21  C   UNL     1     -11.405  12.532  65.103  1.00  0.00    -0.352 A  
HETATM   22  C   UNL     1     -11.178  11.748  66.229  1.00  0.00    -0.370 A  
HETATM   23  C   UNL     1     -10.342  12.210  67.249  1.00  0.00    -0.230 A  
HETATM   24  C   UNL     1      -9.700  13.457  67.146  1.00  0.00    -0.237 A  
ENDBRANCH   9  11
ENDBRANCH   8   9
ENDBRANCH   7   8
ENDBRANCH   6   7
ENDBRANCH   4   6
BRANCH   4  25
HETATM   25  C   UNL     1      -7.303   7.671  70.543  1.00  0.00    -0.074 C  
HETATM   26  C   UNL     1      -6.034   6.976  70.053  1.00  0.00    -0.024 C  
HETATM   27  C   UNL     1      -6.915   8.632  71.682  1.00  0.00    -0.093 C  
ENDBRANCH   4  25
ENDBRANCH   2   4
TORSDOF 7
ENDMDL
MODEL      257
REMARK 921   NORMALIZED FREE ENERGY PREDICTED BY IDOCK:   -3.04 KCAL/MOL
REMARK 922        TOTAL FREE ENERGY PREDICTED BY IDOCK:   -5.47 KCAL/MOL
REMARK 923 INTER-LIGAND FREE ENERGY PREDICTED BY IDOCK:   -5.51 KCAL/MOL
REMARK 924 INTRA-LIGAND FREE ENERGY PREDICTED BY IDOCK:    0.04 KCAL/MOL
REMARK 927      BINDING AFFINITY PREDICTED BY RF-SCORE:    0.00 PKD
ROOT
HETATM    1  C   UNL     1     -10.208  16.299  66.066  1.00  0.00    -0.376 C  
HETATM    2  C   UNL     1      -9.850  16.824  67.462  1.00  0.00    -0.255 C  
HETATM    3  C   UNL     1     -10.978  16.597  68.469  1.00  0.00    -0.339 C  
ENDROOT
BRANCH   2   4
HETATM    4  N   UNL     1      -8.442  16.355  68.014  1.00  0.00    -0.180 N  
HETATM    5  C   UNL     1      -8.534  16.161  69.538  1.00  0.00     0.049 C  
BRANCH   4   6
HETATM    6  C   UNL     1      -8.095  14.948  67.385  1.00  0.00    -0.196 C  
BRANCH   6   7
HETATM    7  C   UNL     1      -7.625  13.860  68.357  1.00  0.00    -0.130 C  
BRANCH   7   8
HETATM    8  O   UNL     1      -8.610  12.813  68.417  1.00  0.00    -0.177 OA 
BRANCH   8   9
HETATM    9  C   UNL     1      -8.542  11.844  67.445  1.00  0.00    -0.164 C  
HETATM   10  O   UNL     1      -7.569  11.762  66.700  1.00  0.00    -0.108 OA 
BRANCH   9  11
HETATM   11  C   UNL     1      -9.759  10.902  67.438  1.00  0.00    -0.190 C  
HETATM   12  C   UNL     1      -9.385   9.459  67.142  1.00  0.00    -0.172 A  
HETATM   13  C   UNL     1      -8.794   9.105  65.915  1.00  0.00    -0.209 A  
HETATM   14  C   UNL     1      -8.284   7.822  65.717  1.00  0.00    -0.132 A  
HETATM   15  C   UNL     1      -8.405   6.866  66.721  1.00  0.00    -0.116 A  
HETATM   16  C   UNL     1      -9.058   7.187  67.911  1.00  0.00    -0.128 A  
HETATM   17  C   UNL     1      -9.547   8.478  68.119  1.00  0.00    -0.143 A  
HETATM   18  O   UNL     1     -10.168   8.697  69.321  1.00  0.00    -0.201 OA 
HETATM   19  C   UNL     1     -10.732   9.926  69.558  1.00  0.00    -0.242 A  
HETATM   20  C   UNL     1     -11.494  10.026  70.726  1.00  0.00    -0.438 A  
HETATM   21  C   UNL     1     -12.087  11.237  71.078  1.00  0.00    -0.335 A  
HETATM   22  C   UNL     1     -11.918  12.348  70.259  1.00  0.00    -0.371 A  
HETATM   23  C   UNL     1     -11.173  12.245  69.081  1.00  0.00    -0.300 A  
HETATM   24  C   UNL     1     -10.564  11.031  68.717  1.00  0.00    -0.232 A  
ENDBRANCH   9  11
ENDBRANCH   8   9
ENDBRANCH   7   8
ENDBRANCH   6   7
ENDBRANCH   4   6
BRANCH   4  25
HETATM   25  C   UNL     1      -7.215  17.311  67.629  1.00  0.00    -0.162 C  
HETATM   26  C   UNL     1      -6.081  17.320  68.653  1.00  0.00    -0.165 C  
HETATM   27  C   UNL     1      -6.615  16.979  66.251  1.00  0.00    -0.104 C  
ENDBRANCH   4  25
ENDBRANCH   2   4
TORSDOF 7
ENDMDL
MODEL      258
REMARK 921   NORMALIZED FREE ENERGY PREDICTED BY IDOCK:   -3.03 KCAL/MOL
REMARK 922        TOTAL FREE ENERGY PREDICTED BY IDOCK:   -5.46 KCAL/MOL
REMARK 923 INTER-LIGAND FREE ENERGY PREDICTED BY IDOCK:   -4.67 KCAL/MOL
REMARK 924 INTRA-LIGAND FREE ENERGY PREDICTED BY IDOCK:   -0.79 KCAL/MOL
REMARK 927      BINDING AFFINITY PREDICTED BY RF-SCORE:    0.00 PKD
ROOT
HETATM    1  C   UNL     1     -10.223  17.469  67.909  1.00  0.00    -0.350 C  
HETATM    2  C   UNL     1      -9.661  16.089  67.546  1.00  0.00    -0.228 C  
HETATM    3  C   UNL     1      -8.288  15.845  68.172  1.00  0.00    -0.162 C  
ENDROOT
BRANCH   2   4
HETATM    4  N   UNL     1     -10.655  14.878  67.774  1.00  0.00    -0.258 N  
HETATM    5  C   UNL     1     -11.480  14.651  66.494  1.00  0.00    -0.351 C  
BRANCH   4   6
HETATM    6  C   UNL     1      -9.807  13.568  68.020  1.00  0.00    -0.238 C  
BRANCH   6   7
HETATM    7  C   UNL     1      -9.880  12.489  66.933  1.00  0.00    -0.227 C  
BRANCH   7   8
HETATM    8  O   UNL     1      -8.550  12.067  66.585  1.00  0.00    -0.187 OA 
BRANCH   8   9
HETATM    9  C   UNL     1      -8.220  10.764  66.870  1.00  0.00    -0.130 C  
HETATM   10  O   UNL     1      -7.285  10.498  67.620  1.00  0.00    -0.084 OA 
BRANCH   9  11
HETATM   11  C   UNL     1      -9.151   9.739  66.198  1.00  0.00    -0.198 C  
HETATM   12  C   UNL     1      -8.540   9.117  64.953  1.00  0.00    -0.208 A  
HETATM   13  C   UNL     1      -8.206   9.912  63.840  1.00  0.00    -0.156 A  
HETATM   14  C   UNL     1      -7.480   9.374  62.778  1.00  0.00    -0.107 A  
HETATM   15  C   UNL     1      -7.125   8.029  62.790  1.00  0.00    -0.087 A  
HETATM   16  C   UNL     1      -7.520   7.217  63.854  1.00  0.00    -0.103 A  
HETATM   17  C   UNL     1      -8.226   7.759  64.929  1.00  0.00    -0.107 A  
HETATM   18  O   UNL     1      -8.563   6.883  65.928  1.00  0.00    -0.143 OA 
HETATM   19  C   UNL     1      -9.317   7.340  66.980  1.00  0.00    -0.148 A  
HETATM   20  C   UNL     1      -9.769   6.360  67.869  1.00  0.00    -0.124 A  
HETATM   21  C   UNL     1     -10.518   6.718  68.988  1.00  0.00    -0.229 A  
HETATM   22  C   UNL     1     -10.817   8.057  69.215  1.00  0.00    -0.072 A  
HETATM   23  C   UNL     1     -10.384   9.036  68.316  1.00  0.00    -0.252 A  
HETATM   24  C   UNL     1      -9.622   8.689  67.186  1.00  0.00    -0.227 A  
ENDBRANCH   9  11
ENDBRANCH   8   9
ENDBRANCH   7   8
ENDBRANCH   6   7
ENDBRANCH   4   6
BRANCH   4  25
HETATM   25  C   UNL     1     -11.607  15.019  69.055  1.00  0.00    -0.319 C  
HETATM   26  C   UNL     1     -12.635  13.898  69.198  1.00  0.00     0.277 C  
HETATM   27  C   UNL     1     -10.817  15.117  70.373  1.00  0.00    -0.249 C  
ENDBRANCH   4  25
ENDBRANCH   2   4
TORSDOF 7
ENDMDL
MODEL      259
REMARK 921   NORMALIZED FREE ENERGY PREDICTED BY IDOCK:   -3.03 KCAL/MOL
REMARK 922        TOTAL FREE ENERGY PREDICTED BY IDOCK:   -5.46 KCAL/MOL
REMARK 923 INTER-LIGAND FREE ENERGY PREDICTED BY IDOCK:   -5.60 KCAL/MOL
REMARK 924 INTRA-LIGAND FREE ENERGY PREDICTED BY IDOCK:    0.14 KCAL/MOL
REMARK 927      BINDING AFFINITY PREDICTED BY RF-SCORE:    0.00 PKD
ROOT
HETATM    1  C   UNL     1      -9.281   4.060  67.929  1.00  0.00    -0.200 C  
HETATM    2  C   UNL     1      -9.493   5.574  68.039  1.00  0.00    -0.114 C  
HETATM    3  C   UNL     1     -10.584   5.931  69.049  1.00  0.00    -0.360 C  
ENDROOT
BRANCH   2   4
HETATM    4  N   UNL     1      -8.173   6.424  68.246  1.00  0.00    -0.116 N  
HETATM    5  C   UNL     1      -7.500   6.656  66.882  1.00  0.00    -0.087 C  
BRANCH   4   6
HETATM    6  C   UNL     1      -8.570   7.842  68.817  1.00  0.00    -0.128 C  
BRANCH   6   7
HETATM    7  C   UNL     1      -7.671   9.018  68.418  1.00  0.00    -0.098 C  
BRANCH   7   8
HETATM    8  O   UNL     1      -8.377   9.873  67.503  1.00  0.00    -0.114 OA 
BRANCH   8   9
HETATM    9  C   UNL     1      -9.286  10.747  68.050  1.00  0.00    -0.150 C  
HETATM   10  O   UNL     1      -9.130  11.196  69.182  1.00  0.00    -0.082 OA 
BRANCH   9  11
HETATM   11  C   UNL     1     -10.440  11.102  67.095  1.00  0.00    -0.270 C  
HETATM   12  C   UNL     1     -11.010  12.487  67.350  1.00  0.00    -0.297 A  
HETATM   13  C   UNL     1     -11.607  12.804  68.584  1.00  0.00    -0.352 A  
HETATM   14  C   UNL     1     -11.961  14.120  68.883  1.00  0.00    -0.376 A  
HETATM   15  C   UNL     1     -11.771  15.122  67.935  1.00  0.00    -0.275 A  
HETATM   16  C   UNL     1     -11.252  14.801  66.681  1.00  0.00    -0.346 A  
HETATM   17  C   UNL     1     -10.875  13.489  66.390  1.00  0.00    -0.290 A  
HETATM   18  O   UNL     1     -10.370  13.275  65.134  1.00  0.00    -0.308 OA 
HETATM   19  C   UNL     1     -10.046  11.994  64.762  1.00  0.00    -0.257 A  
HETATM   20  C   UNL     1      -9.701  11.824  63.418  1.00  0.00    -0.341 A  
HETATM   21  C   UNL     1      -9.326  10.570  62.941  1.00  0.00    -0.347 A  
HETATM   22  C   UNL     1      -9.299   9.484  63.810  1.00  0.00     0.061 A  
HETATM   23  C   UNL     1      -9.662   9.648  65.149  1.00  0.00    -0.287 A  
HETATM   24  C   UNL     1     -10.036  10.910  65.646  1.00  0.00    -0.318 A  
ENDBRANCH   9  11
ENDBRANCH   8   9
ENDBRANCH   7   8
ENDBRANCH   6   7
ENDBRANCH   4   6
BRANCH   4  25
HETATM   25  C   UNL     1      -7.137   5.811  69.302  1.00  0.00    -0.065 C  
HETATM   26  C   UNL     1      -5.686   5.794  68.821  1.00  0.00    -0.012 C  
HETATM   27  C   UNL     1      -7.182   6.529  70.663  1.00  0.00    -0.074 C  
ENDBRANCH   4  25
ENDBRANCH   2   4
TORSDOF 7
ENDMDL
MODEL      260
REMARK 921   NORMALIZED FREE ENERGY PREDICTED BY IDOCK:   -3.01 KCAL/MOL
REMARK 922        TOTAL FREE ENERGY PREDICTED BY IDOCK:   -5.43 KCAL/MOL
REMARK 923 INTER-LIGAND FREE ENERGY PREDICTED BY IDOCK:   -4.07 KCAL/MOL
REMARK 924 INTRA-LIGAND FREE ENERGY PREDICTED BY IDOCK:   -1.35 KCAL/MOL
REMARK 927      BINDING AFFINITY PREDICTED BY RF-SCORE:    0.00 PKD
ROOT
HETATM    1  C   UNL     1      -7.407   7.395  71.949  1.00  0.00    -0.079 C  
HETATM    2  C   UNL     1      -8.940   7.422  71.923  1.00  0.00    -0.125 C  
HETATM    3  C   UNL     1      -9.523   8.182  73.115  1.00  0.00    -0.316 C  
ENDROOT
BRANCH   2   4
HETATM    4  N   UNL     1      -9.580   7.872  70.546  1.00  0.00    -0.170 N  
HETATM    5  C   UNL     1      -9.730   9.404  70.533  1.00  0.00    -0.271 C  
BRANCH   4   6
HETATM    6  C   UNL     1      -8.586   7.491  69.379  1.00  0.00    -0.133 C  
BRANCH   6   7
HETATM    7  C   UNL     1      -8.927   8.030  67.985  1.00  0.00    -0.130 C  
BRANCH   7   8
HETATM    8  O   UNL     1      -8.901   6.952  67.034  1.00  0.00    -0.116 OA 
BRANCH   8   9
HETATM    9  C   UNL     1      -7.695   6.689  66.430  1.00  0.00    -0.102 C  
HETATM   10  O   UNL     1      -6.890   7.589  66.206  1.00  0.00    -0.058 OA 
BRANCH   9  11
HETATM   11  C   UNL     1      -7.479   5.196  66.126  1.00  0.00    -0.086 C  
HETATM   12  C   UNL     1      -7.630   4.317  67.357  1.00  0.00    -0.077 A  
HETATM   13  C   UNL     1      -6.771   4.469  68.461  1.00  0.00    -0.047 A  
HETATM   14  C   UNL     1      -7.025   3.794  69.655  1.00  0.00    -0.042 A  
HETATM   15  C   UNL     1      -8.107   2.923  69.743  1.00  0.00    -0.056 A  
HETATM   16  C   UNL     1      -8.917   2.708  68.628  1.00  0.00    -0.181 A  
HETATM   17  C   UNL     1      -8.678   3.401  67.440  1.00  0.00    -0.117 A  
HETATM   18  O   UNL     1      -9.532   3.126  66.404  1.00  0.00    -0.141 OA 
HETATM   19  C   UNL     1      -9.308   3.723  65.188  1.00  0.00    -0.157 A  
HETATM   20  C   UNL     1     -10.107   3.268  64.135  1.00  0.00    -0.175 A  
HETATM   21  C   UNL     1      -9.983   3.827  62.865  1.00  0.00    -0.157 A  
HETATM   22  C   UNL     1      -9.055   4.841  62.648  1.00  0.00    -0.087 A  
HETATM   23  C   UNL     1      -8.241   5.283  63.695  1.00  0.00    -0.126 A  
HETATM   24  C   UNL     1      -8.361   4.732  64.983  1.00  0.00    -0.132 A  
ENDBRANCH   9  11
ENDBRANCH   8   9
ENDBRANCH   7   8
ENDBRANCH   6   7
ENDBRANCH   4   6
BRANCH   4  25
HETATM   25  C   UNL     1     -10.965   7.155  70.181  1.00  0.00    -0.267 C  
HETATM   26  C   UNL     1     -10.856   5.644  69.983  1.00  0.00    -0.366 C  
HETATM   27  C   UNL     1     -12.065   7.424  71.224  1.00  0.00    -0.359 C  
ENDBRANCH   4  25
ENDBRANCH   2   4
TORSDOF 7
ENDMDL
MODEL      261
REMARK 921   NORMALIZED FREE ENERGY PREDICTED BY IDOCK:   -3.01 KCAL/MOL
REMARK 922        TOTAL FREE ENERGY PREDICTED BY IDOCK:   -5.42 KCAL/MOL
REMARK 923 INTER-LIGAND FREE ENERGY PREDICTED BY IDOCK:   -4.48 KCAL/MOL
REMARK 924 INTRA-LIGAND FREE ENERGY PREDICTED BY IDOCK:   -0.94 KCAL/MOL
REMARK 927      BINDING AFFINITY PREDICTED BY RF-SCORE:    0.00 PKD
ROOT
HETATM    1  C   UNL     1      -9.199  10.801  68.924  1.00  0.00    -0.180 C  
HETATM    2  C   UNL     1      -9.636  10.259  67.558  1.00  0.00    -0.156 C  
HETATM    3  C   UNL     1     -11.154  10.100  67.461  1.00  0.00    -0.251 C  
ENDROOT
BRANCH   2   4
HETATM    4  N   UNL     1      -9.025  11.014  66.308  1.00  0.00    -0.178 N  
HETATM    5  C   UNL     1      -7.804  11.836  66.760  1.00  0.00    -0.103 C  
BRANCH   4   6
HETATM    6  C   UNL     1      -8.505   9.940  65.273  1.00  0.00    -0.150 C  
BRANCH   6   7
HETATM    7  C   UNL     1      -8.711   8.469  65.649  1.00  0.00    -0.181 C  
BRANCH   7   8
HETATM    8  O   UNL     1      -7.552   7.985  66.349  1.00  0.00    -0.088 OA 
BRANCH   8   9
HETATM    9  C   UNL     1      -7.064   6.759  65.963  1.00  0.00    -0.069 C  
HETATM   10  O   UNL     1      -6.108   6.671  65.197  1.00  0.00    -0.036 OA 
BRANCH   9  11
HETATM   11  C   UNL     1      -7.804   5.577  66.614  1.00  0.00    -0.101 C  
HETATM   12  C   UNL     1      -8.561   5.976  67.870  1.00  0.00    -0.113 A  
HETATM   13  C   UNL     1      -7.878   6.483  68.991  1.00  0.00    -0.110 A  
HETATM   14  C   UNL     1      -8.584   7.019  70.068  1.00  0.00    -0.141 A  
HETATM   15  C   UNL     1      -9.976   7.007  70.061  1.00  0.00    -0.188 A  
HETATM   16  C   UNL     1     -10.659   6.434  68.988  1.00  0.00    -0.305 A  
HETATM   17  C   UNL     1      -9.953   5.920  67.898  1.00  0.00    -0.134 A  
HETATM   18  O   UNL     1     -10.713   5.385  66.891  1.00  0.00    -0.271 OA 
HETATM   19  C   UNL     1     -10.078   4.800  65.824  1.00  0.00    -0.214 A  
HETATM   20  C   UNL     1     -10.906   4.125  64.922  1.00  0.00    -0.096 A  
HETATM   21  C   UNL     1     -10.368   3.521  63.788  1.00  0.00    -0.241 A  
HETATM   22  C   UNL     1      -8.998   3.591  63.558  1.00  0.00    -0.095 A  
HETATM   23  C   UNL     1      -8.165   4.247  64.468  1.00  0.00    -0.101 A  
HETATM   24  C   UNL     1      -8.697   4.867  65.613  1.00  0.00    -0.135 A  
ENDBRANCH   9  11
ENDBRANCH   8   9
ENDBRANCH   7   8
ENDBRANCH   6   7
ENDBRANCH   4   6
BRANCH   4  25
HETATM   25  C   UNL     1     -10.063  11.925  65.497  1.00  0.00    -0.245 C  
HETATM   26  C   UNL     1      -9.914  13.424  65.750  1.00  0.00    -0.264 C  
HETATM   27  C   UNL     1      -9.999  11.686  63.977  1.00  0.00    -0.328 C  
ENDBRANCH   4  25
ENDBRANCH   2   4
TORSDOF 7
ENDMDL
MODEL      262
REMARK 921   NORMALIZED FREE ENERGY PREDICTED BY IDOCK:   -2.99 KCAL/MOL
REMARK 922        TOTAL FREE ENERGY PREDICTED BY IDOCK:   -5.39 KCAL/MOL
REMARK 923 INTER-LIGAND FREE ENERGY PREDICTED BY IDOCK:   -4.86 KCAL/MOL
REMARK 924 INTRA-LIGAND FREE ENERGY PREDICTED BY IDOCK:   -0.53 KCAL/MOL
REMARK 927      BINDING AFFINITY PREDICTED BY RF-SCORE:    0.00 PKD
ROOT
HETATM    1  C   UNL     1     -12.589  12.708  68.909  1.00  0.00     0.733 C  
HETATM    2  C   UNL     1     -11.753  13.340  70.027  1.00  0.00    -0.225 C  
HETATM    3  C   UNL     1     -10.292  13.529  69.617  1.00  0.00     0.631 C  
ENDROOT
BRANCH   2   4
HETATM    4  N   UNL     1     -12.374  14.645  70.674  1.00  0.00    -0.309 N  
HETATM    5  C   UNL     1     -11.340  15.282  71.621  1.00  0.00    -0.373 C  
BRANCH   4   6
HETATM    6  C   UNL     1     -12.661  15.691  69.526  1.00  0.00     0.136 C  
BRANCH   6   7
HETATM    7  C   UNL     1     -11.489  16.584  69.103  1.00  0.00    -0.084 C  
BRANCH   7   8
HETATM    8  O   UNL     1     -10.773  15.957  68.024  1.00  0.00    -0.280 OA 
BRANCH   8   9
HETATM    9  C   UNL     1      -9.627  16.583  67.596  1.00  0.00    -0.235 C  
HETATM   10  O   UNL     1      -9.348  17.718  67.974  1.00  0.00    -0.263 OA 
BRANCH   9  11
HETATM   11  C   UNL     1      -8.767  15.710  66.666  1.00  0.00    -0.333 C  
HETATM   12  C   UNL     1      -7.553  15.121  67.367  1.00  0.00    -0.232 A  
HETATM   13  C   UNL     1      -6.558  15.958  67.907  1.00  0.00    -0.160 A  
HETATM   14  C   UNL     1      -5.546  15.429  68.707  1.00  0.00    -0.093 A  
HETATM   15  C   UNL     1      -5.485  14.056  68.933  1.00  0.00    -0.082 A  
HETATM   16  C   UNL     1      -6.423  13.213  68.337  1.00  0.00    -0.086 A  
HETATM   17  C   UNL     1      -7.451  13.744  67.556  1.00  0.00    -0.169 A  
HETATM   18  O   UNL     1      -8.326  12.836  67.019  1.00  0.00    -0.178 OA 
HETATM   19  C   UNL     1      -9.318  13.289  66.185  1.00  0.00    -0.064 A  
HETATM   20  C   UNL     1     -10.063  12.298  65.538  1.00  0.00    -0.279 A  
HETATM   21  C   UNL     1     -11.114  12.647  64.693  1.00  0.00    -0.348 A  
HETATM   22  C   UNL     1     -11.417  13.989  64.492  1.00  0.00    -0.380 A  
HETATM   23  C   UNL     1     -10.660  14.982  65.121  1.00  0.00    -0.440 A  
HETATM   24  C   UNL     1      -9.601  14.643  65.982  1.00  0.00    -0.322 A  
ENDBRANCH   9  11
ENDBRANCH   8   9
ENDBRANCH   7   8
ENDBRANCH   6   7
ENDBRANCH   4   6
BRANCH   4  25
HETATM   25  C   UNL     1     -13.776  14.427  71.416  1.00  0.00    -0.348 C  
HETATM   26  C   UNL     1     -13.902  13.086  72.140  1.00  0.00    -0.450 C  
HETATM   27  C   UNL     1     -14.095  15.547  72.423  1.00  0.00    -0.627 C  
ENDBRANCH   4  25
ENDBRANCH   2   4
TORSDOF 7
ENDMDL
MODEL      263
REMARK 921   NORMALIZED FREE ENERGY PREDICTED BY IDOCK:   -2.91 KCAL/MOL
REMARK 922        TOTAL FREE ENERGY PREDICTED BY IDOCK:   -5.29 KCAL/MOL
REMARK 923 INTER-LIGAND FREE ENERGY PREDICTED BY IDOCK:   -4.56 KCAL/MOL
REMARK 924 INTRA-LIGAND FREE ENERGY PREDICTED BY IDOCK:   -0.74 KCAL/MOL
REMARK 927      BINDING AFFINITY PREDICTED BY RF-SCORE:    0.00 PKD
ROOT
HETATM    1  C   UNL     1      -8.917  14.011  67.598  1.00  0.00    -0.194 C  
HETATM    2  C   UNL     1     -10.434  13.988  67.380  1.00  0.00    -0.263 C  
HETATM    3  C   UNL     1     -11.065  15.366  67.580  1.00  0.00    -0.315 C  
ENDROOT
BRANCH   2   4
HETATM    4  N   UNL     1     -10.910  13.291  66.040  1.00  0.00    -0.272 N  
HETATM    5  C   UNL     1      -9.734  13.245  65.048  1.00  0.00     0.094 C  
BRANCH   4   6
HETATM    6  C   UNL     1     -11.307  11.797  66.361  1.00  0.00    -0.297 C  
BRANCH   6   7
HETATM    7  C   UNL     1     -10.882  11.252  67.729  1.00  0.00    -0.235 C  
BRANCH   7   8
HETATM    8  O   UNL     1     -11.307   9.883  67.854  1.00  0.00    -0.158 OA 
BRANCH   8   9
HETATM    9  C   UNL     1     -10.478   8.928  67.316  1.00  0.00    -0.277 C  
HETATM   10  O   UNL     1     -10.917   7.836  66.965  1.00  0.00    -0.247 OA 
BRANCH   9  11
HETATM   11  C   UNL     1      -9.018   9.394  67.179  1.00  0.00    -0.144 C  
HETATM   12  C   UNL     1      -8.120   8.845  68.276  1.00  0.00    -0.109 A  
HETATM   13  C   UNL     1      -8.354   9.165  69.626  1.00  0.00    -0.130 A  
HETATM   14  C   UNL     1      -7.649   8.518  70.640  1.00  0.00    -0.076 A  
HETATM   15  C   UNL     1      -6.668   7.584  70.317  1.00  0.00    -0.047 A  
HETATM   16  C   UNL     1      -6.377   7.320  68.979  1.00  0.00    -0.036 A  
HETATM   17  C   UNL     1      -7.099   7.949  67.963  1.00  0.00    -0.085 A  
HETATM   18  O   UNL     1      -6.743   7.619  66.682  1.00  0.00    -0.059 OA 
HETATM   19  C   UNL     1      -7.368   8.255  65.638  1.00  0.00    -0.072 A  
HETATM   20  C   UNL     1      -6.838   7.998  64.370  1.00  0.00    -0.064 A  
HETATM   21  C   UNL     1      -7.415   8.569  63.238  1.00  0.00    -0.109 A  
HETATM   22  C   UNL     1      -8.522   9.401  63.376  1.00  0.00    -0.202 A  
HETATM   23  C   UNL     1      -9.040   9.675  64.645  1.00  0.00    -0.286 A  
HETATM   24  C   UNL     1      -8.471   9.100  65.795  1.00  0.00    -0.152 A  
ENDBRANCH   9  11
ENDBRANCH   8   9
ENDBRANCH   7   8
ENDBRANCH   6   7
ENDBRANCH   4   6
BRANCH   4  25
HETATM   25  C   UNL     1     -12.207  13.945  65.365  1.00  0.00    -0.444 C  
HETATM   26  C   UNL     1     -11.901  15.059  64.365  1.00  0.00    -0.349 C  
HETATM   27  C   UNL     1     -13.100  12.904  64.665  1.00  0.00    -0.030 C  
ENDBRANCH   4  25
ENDBRANCH   2   4
TORSDOF 7
ENDMDL
MODEL      264
REMARK 921   NORMALIZED FREE ENERGY PREDICTED BY IDOCK:   -2.90 KCAL/MOL
REMARK 922        TOTAL FREE ENERGY PREDICTED BY IDOCK:   -5.27 KCAL/MOL
REMARK 923 INTER-LIGAND FREE ENERGY PREDICTED BY IDOCK:   -4.93 KCAL/MOL
REMARK 924 INTRA-LIGAND FREE ENERGY PREDICTED BY IDOCK:   -0.35 KCAL/MOL
REMARK 927      BINDING AFFINITY PREDICTED BY RF-SCORE:    0.00 PKD
ROOT
HETATM    1  C   UNL     1     -10.391  13.071  65.875  1.00  0.00    -0.296 C  
HETATM    2  C   UNL     1     -10.661  11.562  65.855  1.00  0.00    -0.272 C  
HETATM    3  C   UNL     1     -10.239  10.919  64.534  1.00  0.00    -0.422 C  
ENDROOT
BRANCH   2   4
HETATM    4  N   UNL     1     -10.125  10.768  67.115  1.00  0.00    -0.197 N  
HETATM    5  C   UNL     1     -10.986  11.119  68.341  1.00  0.00    -0.227 C  
BRANCH   4   6
HETATM    6  C   UNL     1     -10.302   9.221  66.850  1.00  0.00    -0.246 C  
BRANCH   6   7
HETATM    7  C   UNL     1      -9.435   8.276  67.690  1.00  0.00    -0.149 C  
BRANCH   7   8
HETATM    8  O   UNL     1     -10.220   7.735  68.767  1.00  0.00    -0.193 OA 
BRANCH   8   9
HETATM    9  C   UNL     1      -9.564   6.928  69.665  1.00  0.00    -0.146 C  
HETATM   10  O   UNL     1      -9.090   5.850  69.318  1.00  0.00    -0.122 OA 
BRANCH   9  11
HETATM   11  C   UNL     1      -9.469   7.537  71.076  1.00  0.00    -0.162 C  
HETATM   12  C   UNL     1      -9.869   6.559  72.167  1.00  0.00    -0.167 A  
HETATM   13  C   UNL     1     -11.171   6.028  72.217  1.00  0.00    -0.341 A  
HETATM   14  C   UNL     1     -11.482   4.996  73.102  1.00  0.00    -0.362 A  
HETATM   15  C   UNL     1     -10.514   4.519  73.981  1.00  0.00    -0.319 A  
HETATM   16  C   UNL     1      -9.243   5.094  73.991  1.00  0.00    -0.121 A  
HETATM   17  C   UNL     1      -8.923   6.110  73.089  1.00  0.00    -0.130 A  
HETATM   18  O   UNL     1      -7.648   6.606  73.172  1.00  0.00    -0.088 OA 
HETATM   19  C   UNL     1      -7.293   7.654  72.359  1.00  0.00    -0.078 A  
HETATM   20  C   UNL     1      -6.041   8.221  72.616  1.00  0.00    -0.068 A  
HETATM   21  C   UNL     1      -5.570   9.271  71.832  1.00  0.00    -0.072 A  
HETATM   22  C   UNL     1      -6.354   9.757  70.791  1.00  0.00    -0.095 A  
HETATM   23  C   UNL     1      -7.615   9.205  70.545  1.00  0.00    -0.130 A  
HETATM   24  C   UNL     1      -8.100   8.141  71.325  1.00  0.00    -0.119 A  
ENDBRANCH   9  11
ENDBRANCH   8   9
ENDBRANCH   7   8
ENDBRANCH   6   7
ENDBRANCH   4   6
BRANCH   4  25
HETATM   25  C   UNL     1      -8.567  10.973  67.428  1.00  0.00    -0.132 C  
HETATM   26  C   UNL     1      -7.687  11.087  66.184  1.00  0.00    -0.102 C  
HETATM   27  C   UNL     1      -8.298  12.199  68.320  1.00  0.00    -0.172 C  
ENDBRANCH   4  25
ENDBRANCH   2   4
TORSDOF 7
ENDMDL
MODEL      265
REMARK 921   NORMALIZED FREE ENERGY PREDICTED BY IDOCK:   -2.85 KCAL/MOL
REMARK 922        TOTAL FREE ENERGY PREDICTED BY IDOCK:   -5.20 KCAL/MOL
REMARK 923 INTER-LIGAND FREE ENERGY PREDICTED BY IDOCK:   -6.35 KCAL/MOL
REMARK 924 INTRA-LIGAND FREE ENERGY PREDICTED BY IDOCK:    1.14 KCAL/MOL
REMARK 927      BINDING AFFINITY PREDICTED BY RF-SCORE:    0.00 PKD
ROOT
HETATM    1  C   UNL     1     -11.813  14.597  73.897  1.00  0.00     0.046 C  
HETATM    2  C   UNL     1     -12.585  15.433  72.868  1.00  0.00    -0.419 C  
HETATM    3  C   UNL     1     -12.032  16.853  72.749  1.00  0.00     0.113 C  
ENDROOT
BRANCH   2   4
HETATM    4  N   UNL     1     -12.789  14.741  71.458  1.00  0.00    -0.311 N  
HETATM    5  C   UNL     1     -14.223  15.007  70.966  1.00  0.00    -0.176 C  
BRANCH   4   6
HETATM    6  C   UNL     1     -11.808  15.414  70.419  1.00  0.00    -0.335 C  
BRANCH   6   7
HETATM    7  C   UNL     1     -10.329  15.024  70.520  1.00  0.00     0.178 C  
BRANCH   7   8
HETATM    8  O   UNL     1      -9.688  15.241  69.250  1.00  0.00    -0.230 OA 
BRANCH   8   9
HETATM    9  C   UNL     1      -9.522  14.139  68.446  1.00  0.00    -0.214 C  
HETATM   10  O   UNL     1      -9.810  13.014  68.847  1.00  0.00    -0.034 OA 
BRANCH   9  11
HETATM   11  C   UNL     1      -8.997  14.484  67.041  1.00  0.00    -0.258 C  
HETATM   12  C   UNL     1     -10.103  14.559  66.002  1.00  0.00    -0.336 A  
HETATM   13  C   UNL     1     -10.887  13.429  65.700  1.00  0.00    -0.292 A  
HETATM   14  C   UNL     1     -12.014  13.545  64.887  1.00  0.00    -0.410 A  
HETATM   15  C   UNL     1     -12.342  14.776  64.326  1.00  0.00    -0.345 A  
HETATM   16  C   UNL     1     -11.526  15.883  64.558  1.00  0.00    -0.287 A  
HETATM   17  C   UNL     1     -10.411  15.774  65.391  1.00  0.00    -0.414 A  
HETATM   18  O   UNL     1      -9.676  16.918  65.562  1.00  0.00    -0.541 OA 
HETATM   19  C   UNL     1      -8.529  16.860  66.313  1.00  0.00    -0.287 A  
HETATM   20  C   UNL     1      -7.741  18.015  66.303  1.00  0.00    -0.293 A  
HETATM   21  C   UNL     1      -6.570  18.074  67.056  1.00  0.00    -0.203 A  
HETATM   22  C   UNL     1      -6.186  16.974  67.817  1.00  0.00    -0.154 A  
HETATM   23  C   UNL     1      -6.962  15.812  67.812  1.00  0.00    -0.173 A  
HETATM   24  C   UNL     1      -8.149  15.741  67.062  1.00  0.00    -0.272 A  
ENDBRANCH   9  11
ENDBRANCH   8   9
ENDBRANCH   7   8
ENDBRANCH   6   7
ENDBRANCH   4   6
BRANCH   4  25
HETATM   25  C   UNL     1     -12.447  13.177  71.419  1.00  0.00    -0.172 C  
HETATM   26  C   UNL     1     -13.574  12.276  71.924  1.00  0.00    -0.195 C  
HETATM   27  C   UNL     1     -12.039  12.694  70.016  1.00  0.00    -0.339 C  
ENDBRANCH   4  25
ENDBRANCH   2   4
TORSDOF 7
ENDMDL
MODEL      266
REMARK 921   NORMALIZED FREE ENERGY PREDICTED BY IDOCK:   -2.85 KCAL/MOL
REMARK 922        TOTAL FREE ENERGY PREDICTED BY IDOCK:   -5.20 KCAL/MOL
REMARK 923 INTER-LIGAND FREE ENERGY PREDICTED BY IDOCK:   -5.12 KCAL/MOL
REMARK 924 INTRA-LIGAND FREE ENERGY PREDICTED BY IDOCK:   -0.08 KCAL/MOL
REMARK 927      BINDING AFFINITY PREDICTED BY RF-SCORE:    0.00 PKD
ROOT
HETATM    1  C   UNL     1     -12.109  11.880  70.895  1.00  0.00    -0.237 C  
HETATM    2  C   UNL     1     -12.017  13.251  70.214  1.00  0.00    -0.300 C  
HETATM    3  C   UNL     1     -12.750  13.277  68.873  1.00  0.00     0.884 C  
ENDROOT
BRANCH   2   4
HETATM    4  N   UNL     1     -12.392  14.484  71.134  1.00  0.00    -0.323 N  
HETATM    5  C   UNL     1     -11.412  14.548  72.320  1.00  0.00     0.610 C  
BRANCH   4   6
HETATM    6  C   UNL     1     -12.201  15.812  70.301  1.00  0.00    -0.339 C  
BRANCH   6   7
HETATM    7  C   UNL     1     -10.782  16.114  69.806  1.00  0.00    -0.336 C  
BRANCH   7   8
HETATM    8  O   UNL     1     -10.349  15.066  68.922  1.00  0.00    -0.228 OA 
BRANCH   8   9
HETATM    9  C   UNL     1      -9.165  15.269  68.255  1.00  0.00    -0.189 C  
HETATM   10  O   UNL     1      -8.364  16.121  68.633  1.00  0.00    -0.187 OA 
BRANCH   9  11
HETATM   11  C   UNL     1      -8.965  14.316  67.063  1.00  0.00    -0.251 C  
HETATM   12  C   UNL     1      -8.675  12.888  67.494  1.00  0.00    -0.190 A  
HETATM   13  C   UNL     1      -7.525  12.583  68.248  1.00  0.00    -0.122 A  
HETATM   14  C   UNL     1      -7.356  11.312  68.798  1.00  0.00    -0.109 A  
HETATM   15  C   UNL     1      -8.303  10.320  68.559  1.00  0.00    -0.116 A  
HETATM   16  C   UNL     1      -9.405  10.594  67.749  1.00  0.00    -0.154 A  
HETATM   17  C   UNL     1      -9.588  11.872  67.218  1.00  0.00    -0.177 A  
HETATM   18  O   UNL     1     -10.704  12.044  66.440  1.00  0.00    -0.242 OA 
HETATM   19  C   UNL     1     -10.904  13.258  65.832  1.00  0.00    -0.277 A  
HETATM   20  C   UNL     1     -11.963  13.310  64.920  1.00  0.00    -0.417 A  
HETATM   21  C   UNL     1     -12.272  14.501  64.269  1.00  0.00    -0.441 A  
HETATM   22  C   UNL     1     -11.520  15.642  64.529  1.00  0.00    -0.304 A  
HETATM   23  C   UNL     1     -10.448  15.587  65.425  1.00  0.00    -0.429 A  
HETATM   24  C   UNL     1     -10.129  14.393  66.094  1.00  0.00    -0.323 A  
ENDBRANCH   9  11
ENDBRANCH   8   9
ENDBRANCH   7   8
ENDBRANCH   6   7
ENDBRANCH   4   6
BRANCH   4  25
HETATM   25  C   UNL     1     -13.911  14.510  71.641  1.00  0.00    -0.434 C  
HETATM   26  C   UNL     1     -14.402  13.183  72.218  1.00  0.00    -0.090 C  
HETATM   27  C   UNL     1     -14.169  15.612  72.684  1.00  0.00    -0.394 C  
ENDBRANCH   4  25
ENDBRANCH   2   4
TORSDOF 7
ENDMDL
MODEL      267
REMARK 921   NORMALIZED FREE ENERGY PREDICTED BY IDOCK:   -2.82 KCAL/MOL
REMARK 922        TOTAL FREE ENERGY PREDICTED BY IDOCK:   -5.16 KCAL/MOL
REMARK 923 INTER-LIGAND FREE ENERGY PREDICTED BY IDOCK:   -5.50 KCAL/MOL
REMARK 924 INTRA-LIGAND FREE ENERGY PREDICTED BY IDOCK:    0.34 KCAL/MOL
REMARK 927      BINDING AFFINITY PREDICTED BY RF-SCORE:    0.00 PKD
ROOT
HETATM    1  C   UNL     1     -10.967  13.056  68.933  1.00  0.00    -0.271 C  
HETATM    2  C   UNL     1     -10.336  11.801  68.318  1.00  0.00    -0.206 C  
HETATM    3  C   UNL     1     -11.385  10.868  67.712  1.00  0.00    -0.366 C  
ENDROOT
BRANCH   2   4
HETATM    4  N   UNL     1      -9.125  12.071  67.335  1.00  0.00    -0.173 N  
HETATM    5  C   UNL     1      -8.009  12.811  68.096  1.00  0.00    -0.156 C  
BRANCH   4   6
HETATM    6  C   UNL     1      -8.530  10.683  66.872  1.00  0.00    -0.127 C  
BRANCH   6   7
HETATM    7  C   UNL     1      -7.574   9.987  67.847  1.00  0.00    -0.089 C  
BRANCH   7   8
HETATM    8  O   UNL     1      -8.252   8.887  68.480  1.00  0.00    -0.114 OA 
BRANCH   8   9
HETATM    9  C   UNL     1      -8.610   9.057  69.796  1.00  0.00    -0.138 C  
HETATM   10  O   UNL     1      -8.103   9.942  70.480  1.00  0.00    -0.230 OA 
BRANCH   9  11
HETATM   11  C   UNL     1      -9.699   8.075  70.263  1.00  0.00    -0.175 C  
HETATM   12  C   UNL     1     -10.024   7.018  69.220  1.00  0.00    -0.163 A  
HETATM   13  C   UNL     1     -10.545   7.382  67.964  1.00  0.00    -0.235 A  
HETATM   14  C   UNL     1     -10.669   6.436  66.947  1.00  0.00    -0.408 A  
HETATM   15  C   UNL     1     -10.324   5.109  67.188  1.00  0.00    -0.246 A  
HETATM   16  C   UNL     1      -9.881   4.726  68.454  1.00  0.00    -0.187 A  
HETATM   17  C   UNL     1      -9.734   5.677  69.465  1.00  0.00    -0.154 A  
HETATM   18  O   UNL     1      -9.287   5.205  70.672  1.00  0.00    -0.147 OA 
HETATM   19  C   UNL     1      -9.187   6.077  71.727  1.00  0.00    -0.145 A  
HETATM   20  C   UNL     1      -8.893   5.498  72.965  1.00  0.00    -0.120 A  
HETATM   21  C   UNL     1      -8.740   6.295  74.096  1.00  0.00    -0.133 A  
HETATM   22  C   UNL     1      -8.885   7.675  73.989  1.00  0.00    -0.305 A  
HETATM   23  C   UNL     1      -9.200   8.254  72.757  1.00  0.00    -0.336 A  
HETATM   24  C   UNL     1      -9.350   7.461  71.605  1.00  0.00    -0.162 A  
ENDBRANCH   9  11
ENDBRANCH   8   9
ENDBRANCH   7   8
ENDBRANCH   6   7
ENDBRANCH   4   6
BRANCH   4  25
HETATM   25  C   UNL     1      -9.511  12.844  65.986  1.00  0.00    -0.103 C  
HETATM   26  C   UNL     1     -10.309  12.005  64.989  1.00  0.00    -0.318 C  
HETATM   27  C   UNL     1     -10.289  14.146  66.250  1.00  0.00    -0.294 C  
ENDBRANCH   4  25
ENDBRANCH   2   4
TORSDOF 7
ENDMDL
MODEL      268
REMARK 921   NORMALIZED FREE ENERGY PREDICTED BY IDOCK:   -2.79 KCAL/MOL
REMARK 922        TOTAL FREE ENERGY PREDICTED BY IDOCK:   -5.12 KCAL/MOL
REMARK 923 INTER-LIGAND FREE ENERGY PREDICTED BY IDOCK:   -4.55 KCAL/MOL
REMARK 924 INTRA-LIGAND FREE ENERGY PREDICTED BY IDOCK:   -0.57 KCAL/MOL
REMARK 927      BINDING AFFINITY PREDICTED BY RF-SCORE:    0.00 PKD
ROOT
HETATM    1  C   UNL     1      -9.127   2.714  71.072  1.00  0.00    -0.181 C  
HETATM    2  C   UNL     1      -9.113   4.226  71.327  1.00  0.00    -0.127 C  
HETATM    3  C   UNL     1      -9.879   4.603  72.594  1.00  0.00    -0.197 C  
ENDROOT
BRANCH   2   4
HETATM    4  N   UNL     1      -7.684   4.904  71.258  1.00  0.00    -0.085 N  
HETATM    5  C   UNL     1      -7.177   4.872  69.804  1.00  0.00    -0.055 C  
BRANCH   4   6
HETATM    6  C   UNL     1      -7.826   6.424  71.667  1.00  0.00    -0.101 C  
BRANCH   6   7
HETATM    7  C   UNL     1      -6.703   7.364  71.215  1.00  0.00    -0.050 C  
BRANCH   7   8
HETATM    8  O   UNL     1      -7.060   7.970  69.961  1.00  0.00    -0.048 OA 
BRANCH   8   9
HETATM    9  C   UNL     1      -7.762   9.151  70.023  1.00  0.00    -0.088 C  
HETATM   10  O   UNL     1      -7.298  10.133  70.596  1.00  0.00    -0.306 OA 
BRANCH   9  11
HETATM   11  C   UNL     1      -9.112   9.096  69.286  1.00  0.00    -0.146 C  
HETATM   12  C   UNL     1      -9.026   8.371  67.953  1.00  0.00    -0.138 A  
HETATM   13  C   UNL     1      -8.202   8.858  66.920  1.00  0.00    -0.112 A  
HETATM   14  C   UNL     1      -7.982   8.098  65.772  1.00  0.00    -0.105 A  
HETATM   15  C   UNL     1      -8.619   6.870  65.619  1.00  0.00    -0.119 A  
HETATM   16  C   UNL     1      -9.498   6.417  66.604  1.00  0.00    -0.191 A  
HETATM   17  C   UNL     1      -9.701   7.166  67.764  1.00  0.00    -0.138 A  
HETATM   18  O   UNL     1     -10.577   6.635  68.675  1.00  0.00    -0.196 OA 
HETATM   19  C   UNL     1     -10.872   7.356  69.805  1.00  0.00    -0.234 A  
HETATM   20  C   UNL     1     -11.898   6.838  70.601  1.00  0.00    -0.442 A  
HETATM   21  C   UNL     1     -12.258   7.475  71.787  1.00  0.00    -0.345 A  
HETATM   22  C   UNL     1     -11.593   8.634  72.174  1.00  0.00    -0.440 A  
HETATM   23  C   UNL     1     -10.581   9.165  71.369  1.00  0.00    -0.412 A  
HETATM   24  C   UNL     1     -10.203   8.528  70.173  1.00  0.00    -0.202 A  
ENDBRANCH   9  11
ENDBRANCH   8   9
ENDBRANCH   7   8
ENDBRANCH   6   7
ENDBRANCH   4   6
BRANCH   4  25
HETATM   25  C   UNL     1      -6.597   4.290  72.260  1.00  0.00    -0.022 C  
HETATM   26  C   UNL     1      -7.086   4.139  73.700  1.00  0.00    -0.061 C  
HETATM   27  C   UNL     1      -6.060   2.926  71.790  1.00  0.00    -0.014 C  
ENDBRANCH   4  25
ENDBRANCH   2   4
TORSDOF 7
ENDMDL
MODEL      269
REMARK 921   NORMALIZED FREE ENERGY PREDICTED BY IDOCK:   -2.72 KCAL/MOL
REMARK 922        TOTAL FREE ENERGY PREDICTED BY IDOCK:   -5.02 KCAL/MOL
REMARK 923 INTER-LIGAND FREE ENERGY PREDICTED BY IDOCK:   -6.07 KCAL/MOL
REMARK 924 INTRA-LIGAND FREE ENERGY PREDICTED BY IDOCK:    1.04 KCAL/MOL
REMARK 927      BINDING AFFINITY PREDICTED BY RF-SCORE:    0.00 PKD
ROOT
HETATM    1  C   UNL     1      -6.729   6.020  71.216  1.00  0.00    -0.058 C  
HETATM    2  C   UNL     1      -7.383   7.406  71.254  1.00  0.00    -0.076 C  
HETATM    3  C   UNL     1      -6.600   8.388  72.126  1.00  0.00    -0.082 C  
ENDROOT
BRANCH   2   4
HETATM    4  N   UNL     1      -7.753   8.013  69.840  1.00  0.00    -0.097 N  
HETATM    5  C   UNL     1      -7.767   6.886  68.792  1.00  0.00    -0.110 C  
BRANCH   4   6
HETATM    6  C   UNL     1      -9.217   8.602  69.909  1.00  0.00    -0.155 C  
BRANCH   6   7
HETATM    7  C   UNL     1      -9.489   9.867  69.087  1.00  0.00    -0.196 C  
BRANCH   7   8
HETATM    8  O   UNL     1     -10.887   9.935  68.760  1.00  0.00    -0.219 OA 
BRANCH   8   9
HETATM    9  C   UNL     1     -11.382  11.171  68.417  1.00  0.00    -0.288 C  
HETATM   10  O   UNL     1     -12.145  11.304  67.464  1.00  0.00    -0.530 OA 
BRANCH   9  11
HETATM   11  C   UNL     1     -10.914  12.297  69.356  1.00  0.00    -0.092 C  
HETATM   12  C   UNL     1     -10.314  13.476  68.608  1.00  0.00    -0.220 A  
HETATM   13  C   UNL     1      -9.158  13.317  67.821  1.00  0.00    -0.202 A  
HETATM   14  C   UNL     1      -8.718  14.349  66.993  1.00  0.00    -0.244 A  
HETATM   15  C   UNL     1      -9.394  15.566  66.980  1.00  0.00    -0.239 A  
HETATM   16  C   UNL     1     -10.495  15.756  67.816  1.00  0.00    -0.283 A  
HETATM   17  C   UNL     1     -10.951  14.716  68.627  1.00  0.00    -0.256 A  
HETATM   18  O   UNL     1     -12.042  14.998  69.408  1.00  0.00    -0.295 OA 
HETATM   19  C   UNL     1     -12.496  14.040  70.279  1.00  0.00    -0.338 A  
HETATM   20  C   UNL     1     -13.498  14.453  71.163  1.00  0.00    -0.368 A  
HETATM   21  C   UNL     1     -14.052  13.552  72.069  1.00  0.00    -0.389 A  
HETATM   22  C   UNL     1     -13.600  12.236  72.093  1.00  0.00    -0.348 A  
HETATM   23  C   UNL     1     -12.584  11.827  71.225  1.00  0.00    -0.401 A  
HETATM   24  C   UNL     1     -12.022  12.725  70.300  1.00  0.00    -0.358 A  
ENDBRANCH   9  11
ENDBRANCH   8   9
ENDBRANCH   7   8
ENDBRANCH   6   7
ENDBRANCH   4   6
BRANCH   4  25
HETATM   25  C   UNL     1      -6.825   9.229  69.365  1.00  0.00    -0.049 C  
HETATM   26  C   UNL     1      -6.727   9.388  67.848  1.00  0.00    -0.067 C  
HETATM   27  C   UNL     1      -7.263  10.579  69.961  1.00  0.00    -0.105 C  
ENDBRANCH   4  25
ENDBRANCH   2   4
TORSDOF 7
ENDMDL
MODEL      270
REMARK 921   NORMALIZED FREE ENERGY PREDICTED BY IDOCK:   -2.65 KCAL/MOL
REMARK 922        TOTAL FREE ENERGY PREDICTED BY IDOCK:   -4.92 KCAL/MOL
REMARK 923 INTER-LIGAND FREE ENERGY PREDICTED BY IDOCK:   -3.76 KCAL/MOL
REMARK 924 INTRA-LIGAND FREE ENERGY PREDICTED BY IDOCK:   -1.16 KCAL/MOL
REMARK 927      BINDING AFFINITY PREDICTED BY RF-SCORE:    0.00 PKD
ROOT
HETATM    1  C   UNL     1      -8.738   7.017  69.030  1.00  0.00    -0.128 C  
HETATM    2  C   UNL     1      -8.847   8.541  69.160  1.00  0.00    -0.142 C  
HETATM    3  C   UNL     1      -9.522   8.961  70.466  1.00  0.00    -0.243 C  
ENDROOT
BRANCH   2   4
HETATM    4  N   UNL     1      -7.504   9.335  68.890  1.00  0.00    -0.074 N  
HETATM    5  C   UNL     1      -6.330   8.341  68.830  1.00  0.00    -0.049 C  
BRANCH   4   6
HETATM    6  C   UNL     1      -7.601  10.026  67.473  1.00  0.00    -0.091 C  
BRANCH   6   7
HETATM    7  C   UNL     1      -8.917   9.840  66.708  1.00  0.00    -0.138 C  
BRANCH   7   8
HETATM    8  O   UNL     1      -9.527  11.123  66.485  1.00  0.00    -0.185 OA 
BRANCH   8   9
HETATM    9  C   UNL     1     -10.634  11.147  65.671  1.00  0.00    -0.223 C  
HETATM   10  O   UNL     1     -10.705  10.428  64.677  1.00  0.00    -0.049 OA 
BRANCH   9  11
HETATM   11  C   UNL     1     -11.731  12.108  66.162  1.00  0.00    -0.384 C  
HETATM   12  C   UNL     1     -11.869  12.119  67.675  1.00  0.00    -0.316 A  
HETATM   13  C   UNL     1     -12.235  10.953  68.373  1.00  0.00     0.296 A  
HETATM   14  C   UNL     1     -12.182  10.915  69.766  1.00  0.00    -0.381 A  
HETATM   15  C   UNL     1     -11.814  12.054  70.478  1.00  0.00    -0.215 A  
HETATM   16  C   UNL     1     -11.526  13.235  69.796  1.00  0.00    -0.228 A  
HETATM   17  C   UNL     1     -11.555  13.268  68.401  1.00  0.00    -0.337 A  
HETATM   18  O   UNL     1     -11.250  14.472  67.822  1.00  0.00    -0.275 OA 
HETATM   19  C   UNL     1     -11.329  14.588  66.457  1.00  0.00    -0.352 A  
HETATM   20  C   UNL     1     -11.175  15.882  65.950  1.00  0.00     0.065 A  
HETATM   21  C   UNL     1     -11.207  16.107  64.576  1.00  0.00    -0.275 A  
HETATM   22  C   UNL     1     -11.398  15.037  63.708  1.00  0.00     0.891 A  
HETATM   23  C   UNL     1     -11.573  13.746  64.214  1.00  0.00    -0.395 A  
HETATM   24  C   UNL     1     -11.535  13.503  65.598  1.00  0.00    -0.330 A  
ENDBRANCH   9  11
ENDBRANCH   8   9
ENDBRANCH   7   8
ENDBRANCH   6   7
ENDBRANCH   4   6
BRANCH   4  25
HETATM   25  C   UNL     1      -7.201  10.519  69.925  1.00  0.00    -0.130 C  
HETATM   26  C   UNL     1      -6.042  10.238  70.879  1.00  0.00    -0.027 C  
HETATM   27  C   UNL     1      -6.932  11.864  69.225  1.00  0.00    -0.046 C  
ENDBRANCH   4  25
ENDBRANCH   2   4
TORSDOF 7
ENDMDL
MODEL      271
REMARK 921   NORMALIZED FREE ENERGY PREDICTED BY IDOCK:   -2.65 KCAL/MOL
REMARK 922        TOTAL FREE ENERGY PREDICTED BY IDOCK:   -4.92 KCAL/MOL
REMARK 923 INTER-LIGAND FREE ENERGY PREDICTED BY IDOCK:   -3.95 KCAL/MOL
REMARK 924 INTRA-LIGAND FREE ENERGY PREDICTED BY IDOCK:   -0.97 KCAL/MOL
REMARK 927      BINDING AFFINITY PREDICTED BY RF-SCORE:    0.00 PKD
ROOT
HETATM    1  C   UNL     1      -7.607  10.325  65.239  1.00  0.00    -0.143 C  
HETATM    2  C   UNL     1      -7.487  10.784  66.697  1.00  0.00    -0.135 C  
HETATM    3  C   UNL     1      -6.584  12.009  66.842  1.00  0.00    -0.048 C  
ENDROOT
BRANCH   2   4
HETATM    4  N   UNL     1      -8.862  10.951  67.464  1.00  0.00    -0.133 N  
HETATM    5  C   UNL     1      -9.918  10.037  66.816  1.00  0.00    -0.210 C  
BRANCH   4   6
HETATM    6  C   UNL     1      -8.673  10.461  68.953  1.00  0.00    -0.157 C  
BRANCH   6   7
HETATM    7  C   UNL     1      -8.220   9.009  69.146  1.00  0.00    -0.121 C  
BRANCH   7   8
HETATM    8  O   UNL     1      -8.378   8.635  70.525  1.00  0.00    -0.117 OA 
BRANCH   8   9
HETATM    9  C   UNL     1      -9.527   7.956  70.853  1.00  0.00    -0.156 C  
HETATM   10  O   UNL     1     -10.529   8.555  71.237  1.00  0.00    -0.202 OA 
BRANCH   9  11
HETATM   11  C   UNL     1      -9.414   6.435  70.650  1.00  0.00    -0.176 C  
HETATM   12  C   UNL     1      -9.565   6.023  69.195  1.00  0.00    -0.156 A  
HETATM   13  C   UNL     1     -10.760   6.276  68.495  1.00  0.00    -0.354 A  
HETATM   14  C   UNL     1     -10.832   6.067  67.118  1.00  0.00    -0.414 A  
HETATM   15  C   UNL     1      -9.732   5.556  66.434  1.00  0.00    -0.182 A  
HETATM   16  C   UNL     1      -8.571   5.230  67.134  1.00  0.00    -0.105 A  
HETATM   17  C   UNL     1      -8.489   5.461  68.509  1.00  0.00    -0.096 A  
HETATM   18  O   UNL     1      -7.305   5.114  69.106  1.00  0.00    -0.056 OA 
HETATM   19  C   UNL     1      -7.186   5.252  70.466  1.00  0.00    -0.065 A  
HETATM   20  C   UNL     1      -6.021   4.720  71.028  1.00  0.00    -0.017 A  
HETATM   21  C   UNL     1      -5.786   4.832  72.396  1.00  0.00    -0.012 A  
HETATM   22  C   UNL     1      -6.719   5.474  73.204  1.00  0.00    -0.074 A  
HETATM   23  C   UNL     1      -7.894   5.988  72.647  1.00  0.00    -0.104 A  
HETATM   24  C   UNL     1      -8.140   5.888  71.267  1.00  0.00    -0.118 A  
ENDBRANCH   9  11
ENDBRANCH   8   9
ENDBRANCH   7   8
ENDBRANCH   6   7
ENDBRANCH   4   6
BRANCH   4  25
HETATM   25  C   UNL     1      -9.395  12.458  67.573  1.00  0.00    -0.181 C  
HETATM   26  C   UNL     1     -10.045  12.988  66.295  1.00  0.00    -0.283 C  
HETATM   27  C   UNL     1     -10.388  12.653  68.733  1.00  0.00    -0.132 C  
ENDBRANCH   4  25
ENDBRANCH   2   4
TORSDOF 7
ENDMDL
MODEL      272
REMARK 921   NORMALIZED FREE ENERGY PREDICTED BY IDOCK:   -2.65 KCAL/MOL
REMARK 922        TOTAL FREE ENERGY PREDICTED BY IDOCK:   -4.91 KCAL/MOL
REMARK 923 INTER-LIGAND FREE ENERGY PREDICTED BY IDOCK:   -4.39 KCAL/MOL
REMARK 924 INTRA-LIGAND FREE ENERGY PREDICTED BY IDOCK:   -0.52 KCAL/MOL
REMARK 927      BINDING AFFINITY PREDICTED BY RF-SCORE:    0.00 PKD
ROOT
HETATM    1  C   UNL     1      -8.596  14.665  66.502  1.00  0.00    -0.023 C  
HETATM    2  C   UNL     1      -8.049  15.936  67.163  1.00  0.00    -0.207 C  
HETATM    3  C   UNL     1      -9.126  17.008  67.328  1.00  0.00    -0.229 C  
ENDROOT
BRANCH   2   4
HETATM    4  N   UNL     1      -7.222  15.698  68.493  1.00  0.00    -0.117 N  
HETATM    5  C   UNL     1      -8.193  15.378  69.644  1.00  0.00    -0.127 C  
BRANCH   4   6
HETATM    6  C   UNL     1      -6.301  14.430  68.295  1.00  0.00    -0.118 C  
BRANCH   6   7
HETATM    7  C   UNL     1      -6.638  13.198  69.143  1.00  0.00    -0.104 C  
BRANCH   7   8
HETATM    8  O   UNL     1      -7.299  12.218  68.324  1.00  0.00    -0.092 OA 
BRANCH   8   9
HETATM    9  C   UNL     1      -6.856  10.922  68.433  1.00  0.00    -0.068 C  
HETATM   10  O   UNL     1      -5.659  10.669  68.540  1.00  0.00    -0.041 OA 
BRANCH   9  11
HETATM   11  C   UNL     1      -7.996   9.888  68.444  1.00  0.00    -0.096 C  
HETATM   12  C   UNL     1      -8.083   9.121  69.752  1.00  0.00    -0.111 A  
HETATM   13  C   UNL     1      -7.014   8.312  70.185  1.00  0.00    -0.040 A  
HETATM   14  C   UNL     1      -7.018   7.759  71.465  1.00  0.00    -0.058 A  
HETATM   15  C   UNL     1      -8.109   7.963  72.307  1.00  0.00    -0.161 A  
HETATM   16  C   UNL     1      -9.205   8.699  71.856  1.00  0.00    -0.345 A  
HETATM   17  C   UNL     1      -9.191   9.273  70.583  1.00  0.00    -0.264 A  
HETATM   18  O   UNL     1     -10.311   9.982  70.234  1.00  0.00    -0.273 OA 
HETATM   19  C   UNL     1     -10.389  10.512  68.970  1.00  0.00    -0.213 A  
HETATM   20  C   UNL     1     -11.624  11.071  68.625  1.00  0.00    -0.385 A  
HETATM   21  C   UNL     1     -11.803  11.664  67.377  1.00  0.00    -0.170 A  
HETATM   22  C   UNL     1     -10.746  11.695  66.473  1.00  0.00    -0.313 A  
HETATM   23  C   UNL     1      -9.517  11.119  66.809  1.00  0.00    -0.203 A  
HETATM   24  C   UNL     1      -9.321  10.524  68.068  1.00  0.00    -0.150 A  
ENDBRANCH   9  11
ENDBRANCH   8   9
ENDBRANCH   7   8
ENDBRANCH   6   7
ENDBRANCH   4   6
BRANCH   4  25
HETATM   25  C   UNL     1      -6.230  16.891  68.892  1.00  0.00    -0.173 C  
HETATM   26  C   UNL     1      -5.245  16.541  70.006  1.00  0.00    -0.174 C  
HETATM   27  C   UNL     1      -5.427  17.422  67.690  1.00  0.00    -0.137 C  
ENDBRANCH   4  25
ENDBRANCH   2   4
TORSDOF 7
ENDMDL
MODEL      273
REMARK 921   NORMALIZED FREE ENERGY PREDICTED BY IDOCK:   -2.59 KCAL/MOL
REMARK 922        TOTAL FREE ENERGY PREDICTED BY IDOCK:   -4.84 KCAL/MOL
REMARK 923 INTER-LIGAND FREE ENERGY PREDICTED BY IDOCK:   -3.93 KCAL/MOL
REMARK 924 INTRA-LIGAND FREE ENERGY PREDICTED BY IDOCK:   -0.91 KCAL/MOL
REMARK 927      BINDING AFFINITY PREDICTED BY RF-SCORE:    0.00 PKD
ROOT
HETATM    1  C   UNL     1      -7.186   7.742  72.096  1.00  0.00    -0.079 C  
HETATM    2  C   UNL     1      -8.658   7.415  72.373  1.00  0.00    -0.116 C  
HETATM    3  C   UNL     1      -9.155   8.055  73.670  1.00  0.00    -0.299 C  
ENDROOT
BRANCH   2   4
HETATM    4  N   UNL     1      -9.641   7.665  71.158  1.00  0.00    -0.159 N  
HETATM    5  C   UNL     1     -10.294   9.051  71.310  1.00  0.00    -0.313 C  
BRANCH   4   6
HETATM    6  C   UNL     1      -8.798   7.692  69.823  1.00  0.00    -0.140 C  
BRANCH   6   7
HETATM    7  C   UNL     1      -9.237   8.699  68.754  1.00  0.00    -0.142 C  
BRANCH   7   8
HETATM    8  O   UNL     1      -8.639   8.352  67.493  1.00  0.00    -0.127 OA 
BRANCH   8   9
HETATM    9  C   UNL     1      -7.289   8.098  67.499  1.00  0.00    -0.093 C  
HETATM   10  O   UNL     1      -6.531   8.720  68.238  1.00  0.00    -0.058 OA 
BRANCH   9  11
HETATM   11  C   UNL     1      -6.878   6.966  66.540  1.00  0.00    -0.068 C  
HETATM   12  C   UNL     1      -7.660   5.684  66.775  1.00  0.00    -0.092 A  
HETATM   13  C   UNL     1      -7.577   5.005  68.005  1.00  0.00    -0.083 A  
HETATM   14  C   UNL     1      -8.430   3.938  68.284  1.00  0.00    -0.107 A  
HETATM   15  C   UNL     1      -9.338   3.504  67.322  1.00  0.00    -0.239 A  
HETATM   16  C   UNL     1      -9.371   4.123  66.072  1.00  0.00    -0.164 A  
HETATM   17  C   UNL     1      -8.534   5.206  65.800  1.00  0.00    -0.124 A  
HETATM   18  O   UNL     1      -8.646   5.750  64.547  1.00  0.00    -0.090 OA 
HETATM   19  C   UNL     1      -7.801   6.773  64.194  1.00  0.00    -0.106 A  
HETATM   20  C   UNL     1      -7.852   7.162  62.851  1.00  0.00    -0.119 A  
HETATM   21  C   UNL     1      -7.058   8.211  62.393  1.00  0.00    -0.090 A  
HETATM   22  C   UNL     1      -6.211   8.870  63.278  1.00  0.00    -0.089 A  
HETATM   23  C   UNL     1      -6.145   8.469  64.615  1.00  0.00    -0.065 A  
HETATM   24  C   UNL     1      -6.945   7.416  65.093  1.00  0.00    -0.058 A  
ENDBRANCH   9  11
ENDBRANCH   8   9
ENDBRANCH   7   8
ENDBRANCH   6   7
ENDBRANCH   4   6
BRANCH   4  25
HETATM   25  C   UNL     1     -10.749   6.529  70.943  1.00  0.00    -0.242 C  
HETATM   26  C   UNL     1     -10.325   5.141  71.422  1.00  0.00    -0.273 C  
HETATM   27  C   UNL     1     -12.093   6.877  71.608  1.00  0.00    -0.394 C  
ENDBRANCH   4  25
ENDBRANCH   2   4
TORSDOF 7
ENDMDL
MODEL      274
REMARK 921   NORMALIZED FREE ENERGY PREDICTED BY IDOCK:   -2.57 KCAL/MOL
REMARK 922        TOTAL FREE ENERGY PREDICTED BY IDOCK:   -4.80 KCAL/MOL
REMARK 923 INTER-LIGAND FREE ENERGY PREDICTED BY IDOCK:   -4.27 KCAL/MOL
REMARK 924 INTRA-LIGAND FREE ENERGY PREDICTED BY IDOCK:   -0.54 KCAL/MOL
REMARK 927      BINDING AFFINITY PREDICTED BY RF-SCORE:    0.00 PKD
ROOT
HETATM    1  C   UNL     1     -10.124  15.202  69.626  1.00  0.00    -0.202 C  
HETATM    2  C   UNL     1      -9.510  14.913  68.251  1.00  0.00    -0.210 C  
HETATM    3  C   UNL     1      -7.991  15.086  68.250  1.00  0.00    -0.128 C  
ENDROOT
BRANCH   2   4
HETATM    4  N   UNL     1      -9.965  13.550  67.586  1.00  0.00    -0.225 N  
HETATM    5  C   UNL     1      -9.412  13.476  66.151  1.00  0.00    -0.141 C  
BRANCH   4   6
HETATM    6  C   UNL     1      -9.324  12.354  68.395  1.00  0.00    -0.158 C  
BRANCH   6   7
HETATM    7  C   UNL     1     -10.274  11.528  69.268  1.00  0.00     0.078 C  
BRANCH   7   8
HETATM    8  O   UNL     1      -9.751  10.197  69.420  1.00  0.00    -0.207 OA 
BRANCH   8   9
HETATM    9  C   UNL     1     -10.669   9.179  69.516  1.00  0.00    -0.215 C  
HETATM   10  O   UNL     1     -11.736   9.342  70.102  1.00  0.00    -0.163 OA 
BRANCH   9  11
HETATM   11  C   UNL     1     -10.229   7.891  68.797  1.00  0.00    -0.218 C  
HETATM   12  C   UNL     1      -9.558   8.163  67.461  1.00  0.00    -0.196 A  
HETATM   13  C   UNL     1     -10.260   8.798  66.418  1.00  0.00    -0.256 A  
HETATM   14  C   UNL     1      -9.594   9.212  65.265  1.00  0.00    -0.087 A  
HETATM   15  C   UNL     1      -8.235   8.951  65.117  1.00  0.00    -0.143 A  
HETATM   16  C   UNL     1      -7.550   8.253  66.112  1.00  0.00    -0.085 A  
HETATM   17  C   UNL     1      -8.210   7.860  67.277  1.00  0.00    -0.122 A  
HETATM   18  O   UNL     1      -7.451   7.186  68.198  1.00  0.00    -0.094 OA 
HETATM   19  C   UNL     1      -8.058   6.712  69.334  1.00  0.00    -0.119 A  
HETATM   20  C   UNL     1      -7.268   5.889  70.143  1.00  0.00    -0.072 A  
HETATM   21  C   UNL     1      -7.775   5.377  71.335  1.00  0.00    -0.108 A  
HETATM   22  C   UNL     1      -9.077   5.687  71.716  1.00  0.00    -0.145 A  
HETATM   23  C   UNL     1      -9.875   6.493  70.899  1.00  0.00    -0.201 A  
HETATM   24  C   UNL     1      -9.372   7.022  69.697  1.00  0.00    -0.149 A  
ENDBRANCH   9  11
ENDBRANCH   8   9
ENDBRANCH   7   8
ENDBRANCH   6   7
ENDBRANCH   4   6
BRANCH   4  25
HETATM   25  C   UNL     1     -11.545  13.283  67.608  1.00  0.00    -0.346 C  
HETATM   26  C   UNL     1     -12.393  14.550  67.713  1.00  0.00     0.032 C  
HETATM   27  C   UNL     1     -12.028  12.482  66.386  1.00  0.00    -0.386 C  
ENDBRANCH   4  25
ENDBRANCH   2   4
TORSDOF 7
ENDMDL
MODEL      275
REMARK 921   NORMALIZED FREE ENERGY PREDICTED BY IDOCK:   -2.56 KCAL/MOL
REMARK 922        TOTAL FREE ENERGY PREDICTED BY IDOCK:   -4.79 KCAL/MOL
REMARK 923 INTER-LIGAND FREE ENERGY PREDICTED BY IDOCK:   -4.59 KCAL/MOL
REMARK 924 INTRA-LIGAND FREE ENERGY PREDICTED BY IDOCK:   -0.20 KCAL/MOL
REMARK 927      BINDING AFFINITY PREDICTED BY RF-SCORE:    0.00 PKD
ROOT
HETATM    1  C   UNL     1      -6.624   3.901  67.314  1.00  0.00    -0.046 C  
HETATM    2  C   UNL     1      -7.605   4.487  66.292  1.00  0.00    -0.090 C  
HETATM    3  C   UNL     1      -6.885   5.184  65.138  1.00  0.00    -0.049 C  
ENDROOT
BRANCH   2   4
HETATM    4  N   UNL     1      -8.729   3.490  65.792  1.00  0.00    -0.116 N  
HETATM    5  C   UNL     1      -8.604   2.160  66.556  1.00  0.00    -0.111 C  
BRANCH   4   6
HETATM    6  C   UNL     1     -10.141   4.101  66.150  1.00  0.00    -0.124 C  
BRANCH   6   7
HETATM    7  C   UNL     1     -10.173   5.145  67.272  1.00  0.00    -0.190 C  
BRANCH   7   8
HETATM    8  O   UNL     1     -10.520   6.428  66.723  1.00  0.00    -0.229 OA 
BRANCH   8   9
HETATM    9  C   UNL     1     -10.275   7.525  67.513  1.00  0.00    -0.223 C  
HETATM   10  O   UNL     1     -10.710   8.633  67.210  1.00  0.00    -0.271 OA 
BRANCH   9  11
HETATM   11  C   UNL     1      -9.464   7.195  68.779  1.00  0.00    -0.141 C  
HETATM   12  C   UNL     1      -8.123   7.909  68.822  1.00  0.00    -0.126 A  
HETATM   13  C   UNL     1      -7.147   7.668  67.837  1.00  0.00    -0.085 A  
HETATM   14  C   UNL     1      -5.998   8.455  67.772  1.00  0.00    -0.047 A  
HETATM   15  C   UNL     1      -5.785   9.454  68.718  1.00  0.00    -0.040 A  
HETATM   16  C   UNL     1      -6.710   9.646  69.744  1.00  0.00    -0.062 A  
HETATM   17  C   UNL     1      -7.873   8.875  69.796  1.00  0.00    -0.090 A  
HETATM   18  O   UNL     1      -8.723   9.143  70.837  1.00  0.00    -0.208 OA 
HETATM   19  C   UNL     1      -9.850   8.373  70.984  1.00  0.00    -0.187 A  
HETATM   20  C   UNL     1     -10.579   8.585  72.158  1.00  0.00    -0.419 A  
HETATM   21  C   UNL     1     -11.755   7.878  72.394  1.00  0.00    -0.423 A  
HETATM   22  C   UNL     1     -12.202   6.955  71.454  1.00  0.00    -0.418 A  
HETATM   23  C   UNL     1     -11.465   6.726  70.289  1.00  0.00    -0.414 A  
HETATM   24  C   UNL     1     -10.279   7.438  70.035  1.00  0.00    -0.211 A  
ENDBRANCH   9  11
ENDBRANCH   8   9
ENDBRANCH   7   8
ENDBRANCH   6   7
ENDBRANCH   4   6
BRANCH   4  25
HETATM   25  C   UNL     1      -8.756   3.244  64.210  1.00  0.00    -0.093 C  
HETATM   26  C   UNL     1      -9.037   4.500  63.385  1.00  0.00    -0.114 C  
HETATM   27  C   UNL     1      -7.457   2.607  63.686  1.00  0.00    -0.062 C  
ENDBRANCH   4  25
ENDBRANCH   2   4
TORSDOF 7
ENDMDL
MODEL      276
REMARK 921   NORMALIZED FREE ENERGY PREDICTED BY IDOCK:   -2.52 KCAL/MOL
REMARK 922        TOTAL FREE ENERGY PREDICTED BY IDOCK:   -4.74 KCAL/MOL
REMARK 923 INTER-LIGAND FREE ENERGY PREDICTED BY IDOCK:   -4.69 KCAL/MOL
REMARK 924 INTRA-LIGAND FREE ENERGY PREDICTED BY IDOCK:   -0.05 KCAL/MOL
REMARK 927      BINDING AFFINITY PREDICTED BY RF-SCORE:    0.00 PKD
ROOT
HETATM    1  C   UNL     1     -10.219  10.381  69.537  1.00  0.00    -0.258 C  
HETATM    2  C   UNL     1      -9.702   9.860  68.191  1.00  0.00    -0.144 C  
HETATM    3  C   UNL     1     -10.840   9.468  67.249  1.00  0.00    -0.188 C  
ENDROOT
BRANCH   2   4
HETATM    4  N   UNL     1      -8.621  10.778  67.487  1.00  0.00    -0.125 N  
HETATM    5  C   UNL     1      -7.940  11.664  68.546  1.00  0.00    -0.144 C  
BRANCH   4   6
HETATM    6  C   UNL     1      -7.501   9.853  66.864  1.00  0.00    -0.092 C  
BRANCH   6   7
HETATM    7  C   UNL     1      -7.675   8.342  67.054  1.00  0.00    -0.093 C  
BRANCH   7   8
HETATM    8  O   UNL     1      -7.534   8.014  68.447  1.00  0.00    -0.098 OA 
BRANCH   8   9
HETATM    9  C   UNL     1      -6.958   6.801  68.741  1.00  0.00    -0.079 C  
HETATM   10  O   UNL     1      -5.739   6.686  68.830  1.00  0.00    -0.016 OA 
BRANCH   9  11
HETATM   11  C   UNL     1      -7.986   5.679  68.972  1.00  0.00    -0.096 C  
HETATM   12  C   UNL     1      -9.103   6.089  69.917  1.00  0.00    -0.147 A  
HETATM   13  C   UNL     1      -8.824   6.444  71.250  1.00  0.00    -0.138 A  
HETATM   14  C   UNL     1      -9.818   6.994  72.059  1.00  0.00    -0.171 A  
HETATM   15  C   UNL     1     -11.110   7.148  71.565  1.00  0.00    -0.267 A  
HETATM   16  C   UNL     1     -11.412   6.726  70.270  1.00  0.00    -0.414 A  
HETATM   17  C   UNL     1     -10.412   6.198  69.451  1.00  0.00    -0.256 A  
HETATM   18  O   UNL     1     -10.805   5.818  68.194  1.00  0.00    -0.241 OA 
HETATM   19  C   UNL     1      -9.885   5.227  67.365  1.00  0.00    -0.160 A  
HETATM   20  C   UNL     1     -10.393   4.710  66.169  1.00  0.00    -0.310 A  
HETATM   21  C   UNL     1      -9.541   4.115  65.241  1.00  0.00    -0.186 A  
HETATM   22  C   UNL     1      -8.179   4.035  65.512  1.00  0.00    -0.105 A  
HETATM   23  C   UNL     1      -7.672   4.533  66.716  1.00  0.00    -0.090 A  
HETATM   24  C   UNL     1      -8.520   5.141  67.658  1.00  0.00    -0.105 A  
ENDBRANCH   9  11
ENDBRANCH   8   9
ENDBRANCH   7   8
ENDBRANCH   6   7
ENDBRANCH   4   6
BRANCH   4  25
HETATM   25  C   UNL     1      -9.175  11.659  66.269  1.00  0.00    -0.217 C  
HETATM   26  C   UNL     1      -9.652  10.841  65.069  1.00  0.00    -0.305 C  
HETATM   27  C   UNL     1     -10.317  12.602  66.691  1.00  0.00    -0.249 C  
ENDBRANCH   4  25
ENDBRANCH   2   4
TORSDOF 7
ENDMDL
MODEL      277
REMARK 921   NORMALIZED FREE ENERGY PREDICTED BY IDOCK:   -2.52 KCAL/MOL
REMARK 922        TOTAL FREE ENERGY PREDICTED BY IDOCK:   -4.73 KCAL/MOL
REMARK 923 INTER-LIGAND FREE ENERGY PREDICTED BY IDOCK:   -5.27 KCAL/MOL
REMARK 924 INTRA-LIGAND FREE ENERGY PREDICTED BY IDOCK:    0.54 KCAL/MOL
REMARK 927      BINDING AFFINITY PREDICTED BY RF-SCORE:    0.00 PKD
ROOT
HETATM    1  C   UNL     1      -9.693  20.733  66.770  1.00  0.00    -0.228 C  
HETATM    2  C   UNL     1      -8.924  19.942  67.835  1.00  0.00    -0.305 C  
HETATM    3  C   UNL     1      -9.720  19.798  69.132  1.00  0.00    -0.319 C  
ENDROOT
BRANCH   2   4
HETATM    4  N   UNL     1      -8.317  18.566  67.340  1.00  0.00    -0.254 N  
HETATM    5  C   UNL     1      -7.365  18.016  68.417  1.00  0.00    -0.261 C  
BRANCH   4   6
HETATM    6  C   UNL     1      -9.492  17.523  67.182  1.00  0.00    -0.259 C  
BRANCH   6   7
HETATM    7  C   UNL     1     -10.572  17.535  68.270  1.00  0.00    -0.354 C  
BRANCH   7   8
HETATM    8  O   UNL     1     -10.285  16.513  69.241  1.00  0.00    -0.269 OA 
BRANCH   8   9
HETATM    9  C   UNL     1     -11.123  15.424  69.258  1.00  0.00    -0.280 C  
HETATM   10  O   UNL     1     -12.228  15.483  69.791  1.00  0.00    -0.355 OA 
BRANCH   9  11
HETATM   11  C   UNL     1     -10.545  14.200  68.525  1.00  0.00    -0.257 C  
HETATM   12  C   UNL     1     -11.065  14.065  67.103  1.00  0.00    -0.313 A  
HETATM   13  C   UNL     1     -12.437  13.874  66.854  1.00  0.00    -0.201 A  
HETATM   14  C   UNL     1     -12.936  13.935  65.553  1.00  0.00    -0.375 A  
HETATM   15  C   UNL     1     -12.066  14.135  64.485  1.00  0.00    -0.489 A  
HETATM   16  C   UNL     1     -10.696  14.248  64.718  1.00  0.00    -0.435 A  
HETATM   17  C   UNL     1     -10.198  14.211  66.022  1.00  0.00    -0.308 A  
HETATM   18  O   UNL     1      -8.839  14.336  66.148  1.00  0.00     0.016 OA 
HETATM   19  C   UNL     1      -8.281  14.238  67.399  1.00  0.00    -0.202 A  
HETATM   20  C   UNL     1      -6.883  14.201  67.435  1.00  0.00    -0.033 A  
HETATM   21  C   UNL     1      -6.213  14.133  68.654  1.00  0.00    -0.088 A  
HETATM   22  C   UNL     1      -6.943  14.098  69.839  1.00  0.00     0.097 A  
HETATM   23  C   UNL     1      -8.340  14.114  69.803  1.00  0.00     0.909 A  
HETATM   24  C   UNL     1      -9.029  14.190  68.579  1.00  0.00    -0.174 A  
ENDBRANCH   9  11
ENDBRANCH   8   9
ENDBRANCH   7   8
ENDBRANCH   6   7
ENDBRANCH   4   6
BRANCH   4  25
HETATM   25  C   UNL     1      -7.597  18.622  65.910  1.00  0.00    -0.149 C  
HETATM   26  C   UNL     1      -6.911  19.952  65.605  1.00  0.00    -0.315 C  
HETATM   27  C   UNL     1      -6.566  17.495  65.721  1.00  0.00    -0.067 C  
ENDBRANCH   4  25
ENDBRANCH   2   4
TORSDOF 7
ENDMDL
MODEL      278
REMARK 921   NORMALIZED FREE ENERGY PREDICTED BY IDOCK:   -2.51 KCAL/MOL
REMARK 922        TOTAL FREE ENERGY PREDICTED BY IDOCK:   -4.72 KCAL/MOL
REMARK 923 INTER-LIGAND FREE ENERGY PREDICTED BY IDOCK:   -5.21 KCAL/MOL
REMARK 924 INTRA-LIGAND FREE ENERGY PREDICTED BY IDOCK:    0.50 KCAL/MOL
REMARK 927      BINDING AFFINITY PREDICTED BY RF-SCORE:    0.00 PKD
ROOT
HETATM    1  C   UNL     1     -10.666  12.662  63.789  1.00  0.00    -0.454 C  
HETATM    2  C   UNL     1     -11.484  13.548  64.736  1.00  0.00    -0.346 C  
HETATM    3  C   UNL     1     -12.649  12.790  65.371  1.00  0.00    -0.387 C  
ENDROOT
BRANCH   2   4
HETATM    4  N   UNL     1     -10.635  14.357  65.800  1.00  0.00    -0.305 N  
HETATM    5  C   UNL     1      -9.268  13.673  65.983  1.00  0.00     0.100 C  
BRANCH   4   6
HETATM    6  C   UNL     1     -10.359  15.805  65.232  1.00  0.00    -0.357 C  
BRANCH   6   7
HETATM    7  C   UNL     1      -9.414  16.693  66.048  1.00  0.00    -0.251 C  
BRANCH   7   8
HETATM    8  O   UNL     1      -8.064  16.510  65.586  1.00  0.00    -0.030 OA 
BRANCH   8   9
HETATM    9  C   UNL     1      -7.196  17.557  65.783  1.00  0.00    -0.011 C  
HETATM   10  O   UNL     1      -6.679  18.137  64.832  1.00  0.00    -0.203 OA 
BRANCH   9  11
HETATM   11  C   UNL     1      -7.000  17.916  67.267  1.00  0.00    -0.204 C  
HETATM   12  C   UNL     1      -8.133  18.763  67.822  1.00  0.00    -0.276 A  
HETATM   13  C   UNL     1      -8.401  20.041  67.295  1.00  0.00    -0.381 A  
HETATM   14  C   UNL     1      -9.548  20.737  67.676  1.00  0.00    -0.378 A  
HETATM   15  C   UNL     1     -10.410  20.191  68.623  1.00  0.00    -0.307 A  
HETATM   16  C   UNL     1     -10.109  18.960  69.207  1.00  0.00    -0.091 A  
HETATM   17  C   UNL     1      -8.974  18.251  68.809  1.00  0.00    -0.219 A  
HETATM   18  O   UNL     1      -8.767  17.050  69.435  1.00  0.00     0.018 OA 
HETATM   19  C   UNL     1      -7.632  16.337  69.139  1.00  0.00    -0.227 A  
HETATM   20  C   UNL     1      -7.399  15.212  69.936  1.00  0.00    -0.068 A  
HETATM   21  C   UNL     1      -6.292  14.401  69.701  1.00  0.00    -0.140 A  
HETATM   22  C   UNL     1      -5.415  14.717  68.669  1.00  0.00    -0.094 A  
HETATM   23  C   UNL     1      -5.635  15.852  67.884  1.00  0.00    -0.150 A  
HETATM   24  C   UNL     1      -6.752  16.676  68.106  1.00  0.00    -0.148 A  
ENDBRANCH   9  11
ENDBRANCH   8   9
ENDBRANCH   7   8
ENDBRANCH   6   7
ENDBRANCH   4   6
BRANCH   4  25
HETATM   25  C   UNL     1     -11.360  14.580  67.211  1.00  0.00    -0.350 C  
HETATM   26  C   UNL     1     -10.572  14.057  68.411  1.00  0.00    -0.259 C  
HETATM   27  C   UNL     1     -11.706  16.058  67.472  1.00  0.00     0.305 C  
ENDBRANCH   4  25
ENDBRANCH   2   4
TORSDOF 7
ENDMDL
MODEL      279
REMARK 921   NORMALIZED FREE ENERGY PREDICTED BY IDOCK:   -2.48 KCAL/MOL
REMARK 922        TOTAL FREE ENERGY PREDICTED BY IDOCK:   -4.68 KCAL/MOL
REMARK 923 INTER-LIGAND FREE ENERGY PREDICTED BY IDOCK:   -3.52 KCAL/MOL
REMARK 924 INTRA-LIGAND FREE ENERGY PREDICTED BY IDOCK:   -1.16 KCAL/MOL
REMARK 927      BINDING AFFINITY PREDICTED BY RF-SCORE:    0.00 PKD
ROOT
HETATM    1  C   UNL     1      -9.105   7.987  73.167  1.00  0.00    -0.341 C  
HETATM    2  C   UNL     1      -8.374   6.640  73.216  1.00  0.00    -0.119 C  
HETATM    3  C   UNL     1      -8.705   5.851  74.483  1.00  0.00    -0.120 C  
ENDROOT
BRANCH   2   4
HETATM    4  N   UNL     1      -8.497   5.761  71.905  1.00  0.00    -0.126 N  
HETATM    5  C   UNL     1      -9.212   4.441  72.245  1.00  0.00    -0.122 C  
BRANCH   4   6
HETATM    6  C   UNL     1      -9.406   6.529  70.866  1.00  0.00    -0.161 C  
BRANCH   6   7
HETATM    7  C   UNL     1      -8.696   7.139  69.652  1.00  0.00    -0.141 C  
BRANCH   7   8
HETATM    8  O   UNL     1      -9.664   7.776  68.800  1.00  0.00    -0.153 OA 
BRANCH   8   9
HETATM    9  C   UNL     1      -9.810   7.258  67.536  1.00  0.00    -0.155 C  
HETATM   10  O   UNL     1     -10.917   6.953  67.101  1.00  0.00    -0.361 OA 
BRANCH   9  11
HETATM   11  C   UNL     1      -8.483   7.156  66.762  1.00  0.00    -0.121 C  
HETATM   12  C   UNL     1      -8.224   5.760  66.221  1.00  0.00    -0.109 A  
HETATM   13  C   UNL     1      -8.084   4.664  67.093  1.00  0.00    -0.102 A  
HETATM   14  C   UNL     1      -8.031   3.363  66.593  1.00  0.00    -0.081 A  
HETATM   15  C   UNL     1      -8.065   3.145  65.219  1.00  0.00    -0.086 A  
HETATM   16  C   UNL     1      -8.124   4.232  64.346  1.00  0.00    -0.095 A  
HETATM   17  C   UNL     1      -8.202   5.533  64.846  1.00  0.00    -0.136 A  
HETATM   18  O   UNL     1      -8.263   6.532  63.910  1.00  0.00    -0.069 OA 
HETATM   19  C   UNL     1      -8.271   7.837  64.336  1.00  0.00    -0.037 A  
HETATM   20  C   UNL     1      -8.160   8.802  63.330  1.00  0.00    -0.170 A  
HETATM   21  C   UNL     1      -8.187  10.157  63.650  1.00  0.00    -0.166 A  
HETATM   22  C   UNL     1      -8.322  10.547  64.978  1.00  0.00    -0.140 A  
HETATM   23  C   UNL     1      -8.413   9.584  65.987  1.00  0.00    -0.132 A  
HETATM   24  C   UNL     1      -8.394   8.213  65.677  1.00  0.00    -0.148 A  
ENDBRANCH   9  11
ENDBRANCH   8   9
ENDBRANCH   7   8
ENDBRANCH   6   7
ENDBRANCH   4   6
BRANCH   4  25
HETATM   25  C   UNL     1      -7.114   5.488  71.145  1.00  0.00    -0.067 C  
HETATM   26  C   UNL     1      -5.869   5.774  71.984  1.00  0.00    -0.030 C  
HETATM   27  C   UNL     1      -7.008   4.050  70.605  1.00  0.00    -0.033 C  
ENDBRANCH   4  25
ENDBRANCH   2   4
TORSDOF 7
ENDMDL
MODEL      280
REMARK 921   NORMALIZED FREE ENERGY PREDICTED BY IDOCK:   -2.44 KCAL/MOL
REMARK 922        TOTAL FREE ENERGY PREDICTED BY IDOCK:   -4.62 KCAL/MOL
REMARK 923 INTER-LIGAND FREE ENERGY PREDICTED BY IDOCK:   -4.38 KCAL/MOL
REMARK 924 INTRA-LIGAND FREE ENERGY PREDICTED BY IDOCK:   -0.24 KCAL/MOL
REMARK 927      BINDING AFFINITY PREDICTED BY RF-SCORE:    0.00 PKD
ROOT
HETATM    1  C   UNL     1     -12.243  13.491  68.333  1.00  0.00    -0.150 C  
HETATM    2  C   UNL     1     -11.380  14.660  67.844  1.00  0.00    -0.315 C  
HETATM    3  C   UNL     1     -11.273  15.773  68.887  1.00  0.00    -0.332 C  
ENDROOT
BRANCH   2   4
HETATM    4  N   UNL     1      -9.971  14.251  67.248  1.00  0.00    -0.249 N  
HETATM    5  C   UNL     1      -8.888  14.450  68.323  1.00  0.00    -0.182 C  
BRANCH   4   6
HETATM    6  C   UNL     1     -10.000  12.712  66.896  1.00  0.00    -0.230 C  
BRANCH   6   7
HETATM    7  C   UNL     1      -8.827  11.869  67.409  1.00  0.00    -0.171 C  
BRANCH   7   8
HETATM    8  O   UNL     1      -9.225  10.489  67.486  1.00  0.00    -0.142 OA 
BRANCH   8   9
HETATM    9  C   UNL     1      -9.173   9.899  68.726  1.00  0.00    -0.147 C  
HETATM   10  O   UNL     1     -10.015  10.151  69.583  1.00  0.00    -0.223 OA 
BRANCH   9  11
HETATM   11  C   UNL     1      -8.009   8.903  68.878  1.00  0.00    -0.104 C  
HETATM   12  C   UNL     1      -7.881   8.359  70.291  1.00  0.00    -0.096 A  
HETATM   13  C   UNL     1      -7.610   9.219  71.373  1.00  0.00     0.091 A  
HETATM   14  C   UNL     1      -7.676   8.750  72.684  1.00  0.00     0.128 A  
HETATM   15  C   UNL     1      -7.960   7.409  72.929  1.00  0.00    -0.120 A  
HETATM   16  C   UNL     1      -8.152   6.535  71.860  1.00  0.00    -0.104 A  
HETATM   17  C   UNL     1      -8.111   7.008  70.547  1.00  0.00    -0.114 A  
HETATM   18  O   UNL     1      -8.317   6.074  69.566  1.00  0.00    -0.112 OA 
HETATM   19  C   UNL     1      -8.220   6.462  68.253  1.00  0.00    -0.116 A  
HETATM   20  C   UNL     1      -8.271   5.429  67.312  1.00  0.00    -0.104 A  
HETATM   21  C   UNL     1      -8.211   5.715  65.950  1.00  0.00    -0.119 A  
HETATM   22  C   UNL     1      -8.097   7.037  65.529  1.00  0.00    -0.132 A  
HETATM   23  C   UNL     1      -8.026   8.069  66.469  1.00  0.00    -0.102 A  
HETATM   24  C   UNL     1      -8.092   7.794  67.847  1.00  0.00    -0.126 A  
ENDBRANCH   9  11
ENDBRANCH   8   9
ENDBRANCH   7   8
ENDBRANCH   6   7
ENDBRANCH   4   6
BRANCH   4  25
HETATM   25  C   UNL     1      -9.574  14.995  65.886  1.00  0.00    -0.321 C  
HETATM   26  C   UNL     1     -10.768  15.465  65.056  1.00  0.00    -0.460 C  
HETATM   27  C   UNL     1      -8.646  16.202  66.119  1.00  0.00    -0.331 C  
ENDBRANCH   4  25
ENDBRANCH   2   4
TORSDOF 7
ENDMDL
MODEL      281
REMARK 921   NORMALIZED FREE ENERGY PREDICTED BY IDOCK:   -2.42 KCAL/MOL
REMARK 922        TOTAL FREE ENERGY PREDICTED BY IDOCK:   -4.59 KCAL/MOL
REMARK 923 INTER-LIGAND FREE ENERGY PREDICTED BY IDOCK:   -3.58 KCAL/MOL
REMARK 924 INTRA-LIGAND FREE ENERGY PREDICTED BY IDOCK:   -1.02 KCAL/MOL
REMARK 927      BINDING AFFINITY PREDICTED BY RF-SCORE:    0.00 PKD
ROOT
HETATM    1  C   UNL     1      -7.284   7.384  72.179  1.00  0.00    -0.068 C  
HETATM    2  C   UNL     1      -8.810   7.234  72.157  1.00  0.00    -0.127 C  
HETATM    3  C   UNL     1      -9.477   7.972  73.318  1.00  0.00    -0.336 C  
ENDROOT
BRANCH   2   4
HETATM    4  N   UNL     1      -9.495   7.546  70.765  1.00  0.00    -0.163 N  
HETATM    5  C   UNL     1     -10.012   8.996  70.768  1.00  0.00    -0.245 C  
BRANCH   4   6
HETATM    6  C   UNL     1      -8.403   7.444  69.629  1.00  0.00    -0.132 C  
BRANCH   6   7
HETATM    7  C   UNL     1      -8.870   7.738  68.199  1.00  0.00    -0.125 C  
BRANCH   7   8
HETATM    8  O   UNL     1      -8.516   6.639  67.343  1.00  0.00    -0.120 OA 
BRANCH   8   9
HETATM    9  C   UNL     1      -9.454   6.249  66.418  1.00  0.00    -0.133 C  
HETATM   10  O   UNL     1     -10.654   6.393  66.635  1.00  0.00    -0.231 OA 
BRANCH   9  11
HETATM   11  C   UNL     1      -8.837   5.677  65.128  1.00  0.00    -0.055 C  
HETATM   12  C   UNL     1      -7.850   6.630  64.475  1.00  0.00    -0.115 A  
HETATM   13  C   UNL     1      -8.268   7.891  64.009  1.00  0.00    -0.026 A  
HETATM   14  C   UNL     1      -7.333   8.833  63.581  1.00  0.00    -0.103 A  
HETATM   15  C   UNL     1      -5.979   8.510  63.565  1.00  0.00    -0.073 A  
HETATM   16  C   UNL     1      -5.565   7.235  63.952  1.00  0.00    -0.037 A  
HETATM   17  C   UNL     1      -6.498   6.300  64.403  1.00  0.00    -0.034 A  
HETATM   18  O   UNL     1      -5.994   5.078  64.767  1.00  0.00    -0.020 OA 
HETATM   19  C   UNL     1      -6.867   4.092  65.154  1.00  0.00    -0.053 A  
HETATM   20  C   UNL     1      -6.304   2.826  65.343  1.00  0.00    -0.024 A  
HETATM   21  C   UNL     1      -7.095   1.760  65.765  1.00  0.00    -0.051 A  
HETATM   22  C   UNL     1      -8.453   1.961  65.994  1.00  0.00    -0.106 A  
HETATM   23  C   UNL     1      -9.021   3.220  65.785  1.00  0.00    -0.145 A  
HETATM   24  C   UNL     1      -8.233   4.306  65.366  1.00  0.00    -0.109 A  
ENDBRANCH   9  11
ENDBRANCH   8   9
ENDBRANCH   7   8
ENDBRANCH   6   7
ENDBRANCH   4   6
BRANCH   4  25
HETATM   25  C   UNL     1     -10.653   6.524  70.339  1.00  0.00    -0.233 C  
HETATM   26  C   UNL     1     -10.178   5.085  70.144  1.00  0.00    -0.329 C  
HETATM   27  C   UNL     1     -11.828   6.511  71.334  1.00  0.00    -0.384 C  
ENDBRANCH   4  25
ENDBRANCH   2   4
TORSDOF 7
ENDMDL
MODEL      282
REMARK 921   NORMALIZED FREE ENERGY PREDICTED BY IDOCK:   -2.35 KCAL/MOL
REMARK 922        TOTAL FREE ENERGY PREDICTED BY IDOCK:   -4.49 KCAL/MOL
REMARK 923 INTER-LIGAND FREE ENERGY PREDICTED BY IDOCK:   -4.96 KCAL/MOL
REMARK 924 INTRA-LIGAND FREE ENERGY PREDICTED BY IDOCK:    0.47 KCAL/MOL
REMARK 927      BINDING AFFINITY PREDICTED BY RF-SCORE:    0.00 PKD
ROOT
HETATM    1  C   UNL     1     -10.059  11.347  63.174  1.00  0.00    -0.390 C  
HETATM    2  C   UNL     1     -11.008  12.494  63.539  1.00  0.00    -0.420 C  
HETATM    3  C   UNL     1     -12.467  12.153  63.234  1.00  0.00    -0.528 C  
ENDROOT
BRANCH   2   4
HETATM    4  N   UNL     1     -10.816  13.088  64.994  1.00  0.00    -0.296 N  
HETATM    5  C   UNL     1      -9.317  13.328  65.249  1.00  0.00     0.524 C  
BRANCH   4   6
HETATM    6  C   UNL     1     -11.531  14.495  65.064  1.00  0.00    -0.382 C  
BRANCH   6   7
HETATM    7  C   UNL     1     -11.205  15.370  66.280  1.00  0.00    -0.162 C  
BRANCH   7   8
HETATM    8  O   UNL     1     -10.159  16.295  65.938  1.00  0.00    -0.323 OA 
BRANCH   8   9
HETATM    9  C   UNL     1     -10.153  17.496  66.607  1.00  0.00    -0.328 C  
HETATM   10  O   UNL     1     -10.699  18.488  66.130  1.00  0.00    -0.365 OA 
BRANCH   9  11
HETATM   11  C   UNL     1      -9.448  17.430  67.973  1.00  0.00    -0.281 C  
HETATM   12  C   UNL     1     -10.206  16.587  68.986  1.00  0.00    -0.285 A  
HETATM   13  C   UNL     1     -11.503  16.948  69.396  1.00  0.00     0.506 A  
HETATM   14  C   UNL     1     -12.265  16.081  70.179  1.00  0.00    -0.102 A  
HETATM   15  C   UNL     1     -11.724  14.871  70.602  1.00  0.00    -0.357 A  
HETATM   16  C   UNL     1     -10.412  14.541  70.264  1.00  0.00     0.395 A  
HETATM   17  C   UNL     1      -9.656  15.397  69.461  1.00  0.00    -0.257 A  
HETATM   18  O   UNL     1      -8.381  14.984  69.178  1.00  0.00    -0.184 OA 
HETATM   19  C   UNL     1      -7.564  15.813  68.450  1.00  0.00    -0.130 A  
HETATM   20  C   UNL     1      -6.229  15.408  68.347  1.00  0.00    -0.109 A  
HETATM   21  C   UNL     1      -5.321  16.160  67.606  1.00  0.00    -0.159 A  
HETATM   22  C   UNL     1      -5.748  17.322  66.971  1.00  0.00    -0.198 A  
HETATM   23  C   UNL     1      -7.076  17.739  67.090  1.00  0.00    -0.201 A  
HETATM   24  C   UNL     1      -8.005  16.985  67.829  1.00  0.00    -0.192 A  
ENDBRANCH   9  11
ENDBRANCH   8   9
ENDBRANCH   7   8
ENDBRANCH   6   7
ENDBRANCH   4   6
BRANCH   4  25
HETATM   25  C   UNL     1     -11.467  12.216  66.169  1.00  0.00    -0.371 C  
HETATM   26  C   UNL     1     -11.033  10.751  66.178  1.00  0.00    -0.037 C  
HETATM   27  C   UNL     1     -11.194  12.805  67.565  1.00  0.00    -0.332 C  
ENDBRANCH   4  25
ENDBRANCH   2   4
TORSDOF 7
ENDMDL
MODEL      283
REMARK 921   NORMALIZED FREE ENERGY PREDICTED BY IDOCK:   -2.30 KCAL/MOL
REMARK 922        TOTAL FREE ENERGY PREDICTED BY IDOCK:   -4.42 KCAL/MOL
REMARK 923 INTER-LIGAND FREE ENERGY PREDICTED BY IDOCK:   -3.59 KCAL/MOL
REMARK 924 INTRA-LIGAND FREE ENERGY PREDICTED BY IDOCK:   -0.83 KCAL/MOL
REMARK 927      BINDING AFFINITY PREDICTED BY RF-SCORE:    0.00 PKD
ROOT
HETATM    1  C   UNL     1      -9.573  10.473  64.922  1.00  0.00    -0.334 C  
HETATM    2  C   UNL     1      -8.791   9.478  64.056  1.00  0.00    -0.212 C  
HETATM    3  C   UNL     1      -8.863   9.829  62.570  1.00  0.00    -0.258 C  
ENDROOT
BRANCH   2   4
HETATM    4  N   UNL     1      -7.312   9.186  64.539  1.00  0.00    -0.098 N  
HETATM    5  C   UNL     1      -6.739  10.448  65.211  1.00  0.00    -0.100 C  
BRANCH   4   6
HETATM    6  C   UNL     1      -7.354   8.053  65.639  1.00  0.00    -0.079 C  
BRANCH   6   7
HETATM    7  C   UNL     1      -8.654   7.249  65.746  1.00  0.00    -0.131 C  
BRANCH   7   8
HETATM    8  O   UNL     1      -9.309   7.558  66.989  1.00  0.00    -0.136 OA 
BRANCH   8   9
HETATM    9  C   UNL     1      -8.758   7.022  68.128  1.00  0.00    -0.127 C  
HETATM   10  O   UNL     1      -8.183   5.937  68.103  1.00  0.00    -0.108 OA 
BRANCH   9  11
HETATM   11  C   UNL     1      -8.910   7.929  69.363  1.00  0.00    -0.145 C  
HETATM   12  C   UNL     1      -9.997   7.453  70.312  1.00  0.00    -0.188 A  
HETATM   13  C   UNL     1     -11.339   7.382  69.893  1.00  0.00    -0.098 A  
HETATM   14  C   UNL     1     -12.301   6.774  70.699  1.00  0.00    -0.231 A  
HETATM   15  C   UNL     1     -11.947   6.278  71.950  1.00  0.00    -0.342 A  
HETATM   16  C   UNL     1     -10.635   6.414  72.404  1.00  0.00    -0.240 A  
HETATM   17  C   UNL     1      -9.665   7.001  71.588  1.00  0.00    -0.160 A  
HETATM   18  O   UNL     1      -8.405   7.083  72.120  1.00  0.00    -0.104 OA 
HETATM   19  C   UNL     1      -7.423   7.712  71.396  1.00  0.00    -0.079 A  
HETATM   20  C   UNL     1      -6.212   7.913  72.067  1.00  0.00    -0.041 A  
HETATM   21  C   UNL     1      -5.138   8.515  71.415  1.00  0.00    -0.029 A  
HETATM   22  C   UNL     1      -5.277   8.920  70.091  1.00  0.00    -0.028 A  
HETATM   23  C   UNL     1      -6.493   8.738  69.426  1.00  0.00    -0.045 A  
HETATM   24  C   UNL     1      -7.582   8.125  70.070  1.00  0.00    -0.077 A  
ENDBRANCH   9  11
ENDBRANCH   8   9
ENDBRANCH   7   8
ENDBRANCH   6   7
ENDBRANCH   4   6
BRANCH   4  25
HETATM   25  C   UNL     1      -6.326   8.643  63.400  1.00  0.00    -0.085 C  
HETATM   26  C   UNL     1      -5.340   9.685  62.874  1.00  0.00    -0.083 C  
HETATM   27  C   UNL     1      -5.524   7.407  63.850  1.00  0.00    -0.037 C  
ENDBRANCH   4  25
ENDBRANCH   2   4
TORSDOF 7
ENDMDL
MODEL      284
REMARK 921   NORMALIZED FREE ENERGY PREDICTED BY IDOCK:   -2.27 KCAL/MOL
REMARK 922        TOTAL FREE ENERGY PREDICTED BY IDOCK:   -4.38 KCAL/MOL
REMARK 923 INTER-LIGAND FREE ENERGY PREDICTED BY IDOCK:   -4.80 KCAL/MOL
REMARK 924 INTRA-LIGAND FREE ENERGY PREDICTED BY IDOCK:    0.43 KCAL/MOL
REMARK 927      BINDING AFFINITY PREDICTED BY RF-SCORE:    0.00 PKD
ROOT
HETATM    1  C   UNL     1      -9.326   2.501  71.200  1.00  0.00    -0.212 C  
HETATM    2  C   UNL     1      -9.516   4.018  71.317  1.00  0.00    -0.163 C  
HETATM    3  C   UNL     1     -10.542   4.389  72.388  1.00  0.00    -0.172 C  
ENDROOT
BRANCH   2   4
HETATM    4  N   UNL     1      -8.178   4.854  71.444  1.00  0.00    -0.109 N  
HETATM    5  C   UNL     1      -7.343   4.673  70.163  1.00  0.00    -0.050 C  
BRANCH   4   6
HETATM    6  C   UNL     1      -8.547   6.387  71.545  1.00  0.00    -0.130 C  
BRANCH   6   7
HETATM    7  C   UNL     1      -7.403   7.384  71.329  1.00  0.00    -0.076 C  
BRANCH   7   8
HETATM    8  O   UNL     1      -7.521   7.973  70.022  1.00  0.00    -0.071 OA 
BRANCH   8   9
HETATM    9  C   UNL     1      -8.319   9.087  69.916  1.00  0.00    -0.134 C  
HETATM   10  O   UNL     1      -8.026  10.132  70.492  1.00  0.00    -0.157 OA 
BRANCH   9  11
HETATM   11  C   UNL     1      -9.537   8.879  68.999  1.00  0.00    -0.158 C  
HETATM   12  C   UNL     1     -10.583   9.970  69.153  1.00  0.00    -0.240 A  
HETATM   13  C   UNL     1     -11.236  10.173  70.384  1.00  0.00    -0.402 A  
HETATM   14  C   UNL     1     -12.055  11.286  70.575  1.00  0.00    -0.481 A  
HETATM   15  C   UNL     1     -12.273  12.176  69.528  1.00  0.00    -0.169 A  
HETATM   16  C   UNL     1     -11.692  11.938  68.283  1.00  0.00    -0.385 A  
HETATM   17  C   UNL     1     -10.853  10.838  68.096  1.00  0.00    -0.236 A  
HETATM   18  O   UNL     1     -10.325  10.693  66.840  1.00  0.00    -0.217 OA 
HETATM   19  C   UNL     1      -9.547   9.594  66.573  1.00  0.00    -0.196 A  
HETATM   20  C   UNL     1      -9.187   9.419  65.234  1.00  0.00    -0.299 A  
HETATM   21  C   UNL     1      -8.374   8.352  64.857  1.00  0.00    -0.159 A  
HETATM   22  C   UNL     1      -7.924   7.457  65.823  1.00  0.00    -0.118 A  
HETATM   23  C   UNL     1      -8.300   7.619  67.159  1.00  0.00    -0.121 A  
HETATM   24  C   UNL     1      -9.115   8.695  67.553  1.00  0.00    -0.146 A  
ENDBRANCH   9  11
ENDBRANCH   8   9
ENDBRANCH   7   8
ENDBRANCH   6   7
ENDBRANCH   4   6
BRANCH   4  25
HETATM   25  C   UNL     1      -7.305   4.536  72.749  1.00  0.00    -0.083 C  
HETATM   26  C   UNL     1      -8.099   4.558  74.055  1.00  0.00    -0.097 C  
HETATM   27  C   UNL     1      -6.570   3.187  72.656  1.00  0.00    -0.022 C  
ENDBRANCH   4  25
ENDBRANCH   2   4
TORSDOF 7
ENDMDL
MODEL      285
REMARK 921   NORMALIZED FREE ENERGY PREDICTED BY IDOCK:   -2.22 KCAL/MOL
REMARK 922        TOTAL FREE ENERGY PREDICTED BY IDOCK:   -4.31 KCAL/MOL
REMARK 923 INTER-LIGAND FREE ENERGY PREDICTED BY IDOCK:   -4.12 KCAL/MOL
REMARK 924 INTRA-LIGAND FREE ENERGY PREDICTED BY IDOCK:   -0.19 KCAL/MOL
REMARK 927      BINDING AFFINITY PREDICTED BY RF-SCORE:    0.00 PKD
ROOT
HETATM    1  C   UNL     1      -6.088   5.632  66.015  1.00  0.00    -0.029 C  
HETATM    2  C   UNL     1      -7.499   6.113  65.656  1.00  0.00    -0.082 C  
HETATM    3  C   UNL     1      -7.781   6.002  64.158  1.00  0.00    -0.108 C  
ENDROOT
BRANCH   2   4
HETATM    4  N   UNL     1      -8.662   5.502  66.539  1.00  0.00    -0.117 N  
HETATM    5  C   UNL     1      -8.157   5.312  67.981  1.00  0.00    -0.099 C  
BRANCH   4   6
HETATM    6  C   UNL     1      -9.852   6.540  66.596  1.00  0.00    -0.148 C  
BRANCH   6   7
HETATM    7  C   UNL     1      -9.878   7.488  67.800  1.00  0.00    -0.155 C  
BRANCH   7   8
HETATM    8  O   UNL     1      -9.706   8.843  67.348  1.00  0.00    -0.159 OA 
BRANCH   8   9
HETATM    9  C   UNL     1      -8.847   9.632  68.075  1.00  0.00    -0.119 C  
HETATM   10  O   UNL     1      -8.467   9.292  69.192  1.00  0.00    -0.125 OA 
BRANCH   9  11
HETATM   11  C   UNL     1      -8.415  10.907  67.330  1.00  0.00    -0.125 C  
HETATM   12  C   UNL     1      -9.589  11.793  66.947  1.00  0.00    -0.204 A  
HETATM   13  C   UNL     1     -10.588  11.325  66.073  1.00  0.00    -0.314 A  
HETATM   14  C   UNL     1     -11.753  12.064  65.869  1.00  0.00    -0.312 A  
HETATM   15  C   UNL     1     -11.911  13.298  66.493  1.00  0.00    -0.448 A  
HETATM   16  C   UNL     1     -10.891  13.803  67.299  1.00  0.00    -0.292 A  
HETATM   17  C   UNL     1      -9.735  13.054  67.523  1.00  0.00    -0.206 A  
HETATM   18  O   UNL     1      -8.793  13.632  68.335  1.00  0.00    -0.179 OA 
HETATM   19  C   UNL     1      -7.605  12.976  68.538  1.00  0.00    -0.121 A  
HETATM   20  C   UNL     1      -6.628  13.697  69.231  1.00  0.00    -0.110 A  
HETATM   21  C   UNL     1      -5.395  13.116  69.518  1.00  0.00    -0.079 A  
HETATM   22  C   UNL     1      -5.139  11.811  69.108  1.00  0.00    -0.047 A  
HETATM   23  C   UNL     1      -6.106  11.096  68.397  1.00  0.00    -0.045 A  
HETATM   24  C   UNL     1      -7.357  11.669  68.107  1.00  0.00    -0.092 A  
ENDBRANCH   9  11
ENDBRANCH   8   9
ENDBRANCH   7   8
ENDBRANCH   6   7
ENDBRANCH   4   6
BRANCH   4  25
HETATM   25  C   UNL     1      -9.301   4.149  65.969  1.00  0.00    -0.164 C  
HETATM   26  C   UNL     1      -9.424   3.029  67.003  1.00  0.00    -0.097 C  
HETATM   27  C   UNL     1     -10.685   4.368  65.332  1.00  0.00    -0.145 C  
ENDBRANCH   4  25
ENDBRANCH   2   4
TORSDOF 7
ENDMDL
MODEL      286
REMARK 921   NORMALIZED FREE ENERGY PREDICTED BY IDOCK:   -2.16 KCAL/MOL
REMARK 922        TOTAL FREE ENERGY PREDICTED BY IDOCK:   -4.23 KCAL/MOL
REMARK 923 INTER-LIGAND FREE ENERGY PREDICTED BY IDOCK:   -3.64 KCAL/MOL
REMARK 924 INTRA-LIGAND FREE ENERGY PREDICTED BY IDOCK:   -0.59 KCAL/MOL
REMARK 927      BINDING AFFINITY PREDICTED BY RF-SCORE:    0.00 PKD
ROOT
HETATM    1  C   UNL     1     -10.860  16.070  69.488  1.00  0.00    -0.317 C  
HETATM    2  C   UNL     1     -10.230  16.653  68.218  1.00  0.00    -0.281 C  
HETATM    3  C   UNL     1      -9.084  17.615  68.532  1.00  0.00    -0.279 C  
ENDROOT
BRANCH   2   4
HETATM    4  N   UNL     1      -9.843  15.589  67.111  1.00  0.00    -0.233 N  
HETATM    5  C   UNL     1      -9.671  16.304  65.759  1.00  0.00    -0.264 C  
BRANCH   4   6
HETATM    6  C   UNL     1      -8.443  14.959  67.485  1.00  0.00    -0.185 C  
BRANCH   6   7
HETATM    7  C   UNL     1      -8.452  13.844  68.537  1.00  0.00    -0.127 C  
BRANCH   7   8
HETATM    8  O   UNL     1      -7.226  13.097  68.455  1.00  0.00    -0.091 OA 
BRANCH   8   9
HETATM    9  C   UNL     1      -7.069  12.066  69.350  1.00  0.00     0.085 C  
HETATM   10  O   UNL     1      -6.727  12.282  70.510  1.00  0.00     0.283 OA 
BRANCH   9  11
HETATM   11  C   UNL     1      -7.400  10.686  68.754  1.00  0.00    -0.100 C  
HETATM   12  C   UNL     1      -8.859  10.301  68.937  1.00  0.00    -0.157 A  
HETATM   13  C   UNL     1      -9.408  10.150  70.224  1.00  0.00     0.144 A  
HETATM   14  C   UNL     1     -10.782   9.979  70.392  1.00  0.00    -0.369 A  
HETATM   15  C   UNL     1     -11.614   9.905  69.279  1.00  0.00     0.034 A  
HETATM   16  C   UNL     1     -11.066   9.976  67.998  1.00  0.00    -0.263 A  
HETATM   17  C   UNL     1      -9.694  10.171  67.829  1.00  0.00    -0.153 A  
HETATM   18  O   UNL     1      -9.253  10.233  66.533  1.00  0.00    -0.149 OA 
HETATM   19  C   UNL     1      -7.906  10.354  66.299  1.00  0.00    -0.132 A  
HETATM   20  C   UNL     1      -7.512  10.238  64.962  1.00  0.00    -0.120 A  
HETATM   21  C   UNL     1      -6.171  10.375  64.610  1.00  0.00    -0.080 A  
HETATM   22  C   UNL     1      -5.223  10.624  65.597  1.00  0.00    -0.118 A  
HETATM   23  C   UNL     1      -5.613  10.720  66.936  1.00  0.00    -0.057 A  
HETATM   24  C   UNL     1      -6.964  10.592  67.305  1.00  0.00    -0.087 A  
ENDBRANCH   9  11
ENDBRANCH   8   9
ENDBRANCH   7   8
ENDBRANCH   6   7
ENDBRANCH   4   6
BRANCH   4  25
HETATM   25  C   UNL     1     -10.851  14.351  66.984  1.00  0.00    -0.297 C  
HETATM   26  C   UNL     1     -12.233  14.720  66.445  1.00  0.00    -0.031 C  
HETATM   27  C   UNL     1     -10.285  13.213  66.116  1.00  0.00    -0.291 C  
ENDBRANCH   4  25
ENDBRANCH   2   4
TORSDOF 7
ENDMDL
MODEL      287
REMARK 921   NORMALIZED FREE ENERGY PREDICTED BY IDOCK:   -2.09 KCAL/MOL
REMARK 922        TOTAL FREE ENERGY PREDICTED BY IDOCK:   -4.13 KCAL/MOL
REMARK 923 INTER-LIGAND FREE ENERGY PREDICTED BY IDOCK:   -6.33 KCAL/MOL
REMARK 924 INTRA-LIGAND FREE ENERGY PREDICTED BY IDOCK:    2.20 KCAL/MOL
REMARK 927      BINDING AFFINITY PREDICTED BY RF-SCORE:    0.00 PKD
ROOT
HETATM    1  C   UNL     1      -8.972   2.813  68.172  1.00  0.00    -0.198 C  
HETATM    2  C   UNL     1      -9.581   4.078  68.788  1.00  0.00    -0.130 C  
HETATM    3  C   UNL     1      -9.556   4.044  70.316  1.00  0.00    -0.271 C  
ENDROOT
BRANCH   2   4
HETATM    4  N   UNL     1      -9.030   5.442  68.203  1.00  0.00    -0.108 N  
HETATM    5  C   UNL     1      -9.575   5.640  66.777  1.00  0.00    -0.146 C  
BRANCH   4   6
HETATM    6  C   UNL     1      -9.587   6.631  69.083  1.00  0.00    -0.135 C  
BRANCH   6   7
HETATM    7  C   UNL     1      -8.573   7.694  69.520  1.00  0.00    -0.132 C  
BRANCH   7   8
HETATM    8  O   UNL     1      -9.215   8.980  69.562  1.00  0.00    -0.146 OA 
BRANCH   8   9
HETATM    9  C   UNL     1     -10.438   9.041  70.186  1.00  0.00    -0.214 C  
HETATM   10  O   UNL     1     -10.596   8.582  71.314  1.00  0.00    -0.211 OA 
BRANCH   9  11
HETATM   11  C   UNL     1     -11.514   9.757  69.350  1.00  0.00    -0.015 C  
HETATM   12  C   UNL     1     -12.126  10.945  70.072  1.00  0.00    -0.433 A  
HETATM   13  C   UNL     1     -12.830  10.770  71.278  1.00  0.00    -0.540 A  
HETATM   14  C   UNL     1     -13.230  11.873  72.031  1.00  0.00    -0.461 A  
HETATM   15  C   UNL     1     -12.979  13.161  71.565  1.00  0.00    -0.412 A  
HETATM   16  C   UNL     1     -12.351  13.342  70.333  1.00  0.00    -0.365 A  
HETATM   17  C   UNL     1     -11.928  12.238  69.589  1.00  0.00    -0.279 A  
HETATM   18  O   UNL     1     -11.316  12.518  68.396  1.00  0.00    -0.247 OA 
HETATM   19  C   UNL     1     -10.940  11.475  67.586  1.00  0.00    -0.242 A  
HETATM   20  C   UNL     1     -10.481  11.833  66.314  1.00  0.00    -0.281 A  
HETATM   21  C   UNL     1     -10.046  10.855  65.423  1.00  0.00    -0.336 A  
HETATM   22  C   UNL     1     -10.073   9.517  65.803  1.00  0.00    -0.223 A  
HETATM   23  C   UNL     1     -10.551   9.156  67.066  1.00  0.00    -0.266 A  
HETATM   24  C   UNL     1     -10.986  10.134  67.978  1.00  0.00    -0.326 A  
ENDBRANCH   9  11
ENDBRANCH   8   9
ENDBRANCH   7   8
ENDBRANCH   6   7
ENDBRANCH   4   6
BRANCH   4  25
HETATM   25  C   UNL     1      -7.436   5.595  68.236  1.00  0.00    -0.077 C  
HETATM   26  C   UNL     1      -6.901   6.766  67.414  1.00  0.00    -0.073 C  
HETATM   27  C   UNL     1      -6.882   5.719  69.667  1.00  0.00    -0.061 C  
ENDBRANCH   4  25
ENDBRANCH   2   4
TORSDOF 7
ENDMDL
MODEL      288
REMARK 921   NORMALIZED FREE ENERGY PREDICTED BY IDOCK:   -2.05 KCAL/MOL
REMARK 922        TOTAL FREE ENERGY PREDICTED BY IDOCK:   -4.08 KCAL/MOL
REMARK 923 INTER-LIGAND FREE ENERGY PREDICTED BY IDOCK:   -4.32 KCAL/MOL
REMARK 924 INTRA-LIGAND FREE ENERGY PREDICTED BY IDOCK:    0.24 KCAL/MOL
REMARK 927      BINDING AFFINITY PREDICTED BY RF-SCORE:    0.00 PKD
ROOT
HETATM    1  C   UNL     1      -5.127  18.620  69.859  1.00  0.00    -0.193 C  
HETATM    2  C   UNL     1      -6.601  18.805  69.479  1.00  0.00    -0.200 C  
HETATM    3  C   UNL     1      -7.190  20.087  70.066  1.00  0.00     0.190 C  
ENDROOT
BRANCH   2   4
HETATM    4  N   UNL     1      -6.923  18.640  67.937  1.00  0.00    -0.218 N  
HETATM    5  C   UNL     1      -5.903  19.451  67.117  1.00  0.00    -0.174 C  
BRANCH   4   6
HETATM    6  C   UNL     1      -6.736  17.122  67.541  1.00  0.00    -0.138 C  
BRANCH   6   7
HETATM    7  C   UNL     1      -6.783  16.104  68.686  1.00  0.00    -0.128 C  
BRANCH   7   8
HETATM    8  O   UNL     1      -6.985  14.786  68.148  1.00  0.00    -0.102 OA 
BRANCH   8   9
HETATM    9  C   UNL     1      -7.335  13.801  69.040  1.00  0.00    -0.036 C  
HETATM   10  O   UNL     1      -6.678  13.608  70.059  1.00  0.00     0.013 OA 
BRANCH   9  11
HETATM   11  C   UNL     1      -8.612  13.041  68.639  1.00  0.00     0.045 C  
HETATM   12  C   UNL     1      -9.388  13.737  67.533  1.00  0.00    -0.222 A  
HETATM   13  C   UNL     1      -9.920  15.026  67.728  1.00  0.00    -0.229 A  
HETATM   14  C   UNL     1     -10.468  15.735  66.659  1.00  0.00    -0.302 A  
HETATM   15  C   UNL     1     -10.538  15.148  65.399  1.00  0.00    -0.410 A  
HETATM   16  C   UNL     1     -10.083  13.842  65.216  1.00  0.00    -0.312 A  
HETATM   17  C   UNL     1      -9.512  13.140  66.279  1.00  0.00    -0.185 A  
HETATM   18  O   UNL     1      -9.090  11.866  65.999  1.00  0.00    -0.199 OA 
HETATM   19  C   UNL     1      -8.583  11.099  67.019  1.00  0.00    -0.147 A  
HETATM   20  C   UNL     1      -8.334   9.761  66.701  1.00  0.00    -0.124 A  
HETATM   21  C   UNL     1      -7.792   8.901  67.654  1.00  0.00    -0.101 A  
HETATM   22  C   UNL     1      -7.501   9.382  68.927  1.00  0.00    -0.074 A  
HETATM   23  C   UNL     1      -7.769  10.714  69.252  1.00  0.00    -0.142 A  
HETATM   24  C   UNL     1      -8.310  11.594  68.298  1.00  0.00    -0.159 A  
ENDBRANCH   9  11
ENDBRANCH   8   9
ENDBRANCH   7   8
ENDBRANCH   6   7
ENDBRANCH   4   6
BRANCH   4  25
HETATM   25  C   UNL     1      -8.423  19.012  67.518  1.00  0.00    -0.282 C  
HETATM   26  C   UNL     1      -8.848  18.463  66.157  1.00  0.00    -0.117 C  
HETATM   27  C   UNL     1      -9.460  18.560  68.563  1.00  0.00    -0.375 C  
ENDBRANCH   4  25
ENDBRANCH   2   4
TORSDOF 7
ENDMDL
MODEL      289
REMARK 921   NORMALIZED FREE ENERGY PREDICTED BY IDOCK:   -2.01 KCAL/MOL
REMARK 922        TOTAL FREE ENERGY PREDICTED BY IDOCK:   -4.01 KCAL/MOL
REMARK 923 INTER-LIGAND FREE ENERGY PREDICTED BY IDOCK:   -4.48 KCAL/MOL
REMARK 924 INTRA-LIGAND FREE ENERGY PREDICTED BY IDOCK:    0.47 KCAL/MOL
REMARK 927      BINDING AFFINITY PREDICTED BY RF-SCORE:    0.00 PKD
ROOT
HETATM    1  C   UNL     1      -6.663   4.150  66.244  1.00  0.00    -0.053 C  
HETATM    2  C   UNL     1      -7.759   4.701  65.324  1.00  0.00    -0.086 C  
HETATM    3  C   UNL     1      -7.196   5.189  63.988  1.00  0.00    -0.050 C  
ENDROOT
BRANCH   2   4
HETATM    4  N   UNL     1      -9.020   3.761  65.143  1.00  0.00    -0.126 N  
HETATM    5  C   UNL     1      -8.805   2.465  65.946  1.00  0.00    -0.128 C  
BRANCH   4   6
HETATM    6  C   UNL     1     -10.282   4.485  65.758  1.00  0.00    -0.265 C  
BRANCH   6   7
HETATM    7  C   UNL     1     -10.197   4.871  67.240  1.00  0.00    -0.137 C  
BRANCH   7   8
HETATM    8  O   UNL     1     -10.763   6.180  67.427  1.00  0.00    -0.248 OA 
BRANCH   8   9
HETATM    9  C   UNL     1     -10.944   6.595  68.725  1.00  0.00    -0.260 C  
HETATM   10  O   UNL     1     -11.809   6.090  69.436  1.00  0.00     0.116 OA 
BRANCH   9  11
HETATM   11  C   UNL     1      -9.949   7.685  69.160  1.00  0.00    -0.181 C  
HETATM   12  C   UNL     1     -10.506   9.090  68.997  1.00  0.00    -0.235 A  
HETATM   13  C   UNL     1     -10.865   9.578  67.726  1.00  0.00    -0.258 A  
HETATM   14  C   UNL     1     -11.544  10.790  67.600  1.00  0.00    -0.087 A  
HETATM   15  C   UNL     1     -11.826  11.550  68.732  1.00  0.00    -0.394 A  
HETATM   16  C   UNL     1     -11.404  11.109  69.986  1.00  0.00    -0.326 A  
HETATM   17  C   UNL     1     -10.745   9.885  70.117  1.00  0.00    -0.308 A  
HETATM   18  O   UNL     1     -10.376   9.535  71.389  1.00  0.00    -0.302 OA 
HETATM   19  C   UNL     1      -9.664   8.377  71.576  1.00  0.00    -0.210 A  
HETATM   20  C   UNL     1      -9.173   8.171  72.869  1.00  0.00    -0.343 A  
HETATM   21  C   UNL     1      -8.462   7.013  73.175  1.00  0.00    -0.136 A  
HETATM   22  C   UNL     1      -8.240   6.061  72.185  1.00  0.00    -0.111 A  
HETATM   23  C   UNL     1      -8.712   6.275  70.887  1.00  0.00    -0.136 A  
HETATM   24  C   UNL     1      -9.437   7.436  70.566  1.00  0.00    -0.161 A  
ENDBRANCH   9  11
ENDBRANCH   8   9
ENDBRANCH   7   8
ENDBRANCH   6   7
ENDBRANCH   4   6
BRANCH   4  25
HETATM   25  C   UNL     1      -9.409   3.439  63.623  1.00  0.00    -0.108 C  
HETATM   26  C   UNL     1      -9.817   4.665  62.807  1.00  0.00     0.127 C  
HETATM   27  C   UNL     1      -8.284   2.710  62.865  1.00  0.00    -0.073 C  
ENDBRANCH   4  25
ENDBRANCH   2   4
TORSDOF 7
ENDMDL
MODEL      290
REMARK 921   NORMALIZED FREE ENERGY PREDICTED BY IDOCK:   -1.86 KCAL/MOL
REMARK 922        TOTAL FREE ENERGY PREDICTED BY IDOCK:   -3.81 KCAL/MOL
REMARK 923 INTER-LIGAND FREE ENERGY PREDICTED BY IDOCK:   -4.39 KCAL/MOL
REMARK 924 INTRA-LIGAND FREE ENERGY PREDICTED BY IDOCK:    0.58 KCAL/MOL
REMARK 927      BINDING AFFINITY PREDICTED BY RF-SCORE:    0.00 PKD
ROOT
HETATM    1  C   UNL     1      -5.443   1.661  68.308  1.00  0.00    -0.017 C  
HETATM    2  C   UNL     1      -6.423   2.659  67.680  1.00  0.00    -0.036 C  
HETATM    3  C   UNL     1      -7.644   1.963  67.076  1.00  0.00    -0.061 C  
ENDROOT
BRANCH   2   4
HETATM    4  N   UNL     1      -6.818   3.883  68.602  1.00  0.00    -0.046 N  
HETATM    5  C   UNL     1      -5.758   4.990  68.457  1.00  0.00    -0.016 C  
BRANCH   4   6
HETATM    6  C   UNL     1      -8.188   4.481  68.089  1.00  0.00    -0.090 C  
BRANCH   6   7
HETATM    7  C   UNL     1      -8.513   5.916  68.518  1.00  0.00    -0.111 C  
BRANCH   7   8
HETATM    8  O   UNL     1      -8.945   5.921  69.889  1.00  0.00    -0.136 OA 
BRANCH   8   9
HETATM    9  C   UNL     1     -10.287   5.725  70.116  1.00  0.00    -0.256 C  
HETATM   10  O   UNL     1     -11.037   5.379  69.208  1.00  0.00    -0.053 OA 
BRANCH   9  11
HETATM   11  C   UNL     1     -10.695   5.943  71.584  1.00  0.00    -0.308 C  
HETATM   12  C   UNL     1      -9.511   6.255  72.484  1.00  0.00    -0.143 A  
HETATM   13  C   UNL     1      -8.471   5.322  72.655  1.00  0.00    -0.117 A  
HETATM   14  C   UNL     1      -7.303   5.679  73.329  1.00  0.00    -0.095 A  
HETATM   15  C   UNL     1      -7.182   6.950  73.883  1.00  0.00    -0.093 A  
HETATM   16  C   UNL     1      -8.240   7.854  73.784  1.00  0.00    -0.277 A  
HETATM   17  C   UNL     1      -9.400   7.506  73.089  1.00  0.00    -0.206 A  
HETATM   18  O   UNL     1     -10.380   8.463  73.042  1.00  0.00    -0.192 OA 
HETATM   19  C   UNL     1     -11.572   8.158  72.433  1.00  0.00    -0.399 A  
HETATM   20  C   UNL     1     -12.583   9.113  72.573  1.00  0.00    -0.311 A  
HETATM   21  C   UNL     1     -13.824   8.917  71.969  1.00  0.00    -0.511 A  
HETATM   22  C   UNL     1     -14.052   7.762  71.228  1.00  0.00    -0.365 A  
HETATM   23  C   UNL     1     -13.049   6.797  71.105  1.00  0.00    -0.096 A  
HETATM   24  C   UNL     1     -11.791   6.985  71.703  1.00  0.00    -0.348 A  
ENDBRANCH   9  11
ENDBRANCH   8   9
ENDBRANCH   7   8
ENDBRANCH   6   7
ENDBRANCH   4   6
BRANCH   4  25
HETATM   25  C   UNL     1      -7.060   3.517  70.142  1.00  0.00    -0.041 C  
HETATM   26  C   UNL     1      -8.039   2.365  70.367  1.00  0.00    -0.055 C  
HETATM   27  C   UNL     1      -5.753   3.188  70.886  1.00  0.00    -0.013 C  
ENDBRANCH   4  25
ENDBRANCH   2   4
TORSDOF 7
ENDMDL
MODEL      291
REMARK 921   NORMALIZED FREE ENERGY PREDICTED BY IDOCK:   -1.86 KCAL/MOL
REMARK 922        TOTAL FREE ENERGY PREDICTED BY IDOCK:   -3.80 KCAL/MOL
REMARK 923 INTER-LIGAND FREE ENERGY PREDICTED BY IDOCK:   -5.97 KCAL/MOL
REMARK 924 INTRA-LIGAND FREE ENERGY PREDICTED BY IDOCK:    2.17 KCAL/MOL
REMARK 927      BINDING AFFINITY PREDICTED BY RF-SCORE:    0.00 PKD
ROOT
HETATM    1  C   UNL     1     -12.500  12.236  63.420  1.00  0.00    -0.592 C  
HETATM    2  C   UNL     1     -11.585  13.280  64.071  1.00  0.00    -0.409 C  
HETATM    3  C   UNL     1     -12.351  14.538  64.484  1.00  0.00    -0.434 C  
ENDROOT
BRANCH   2   4
HETATM    4  N   UNL     1     -10.655  12.730  65.228  1.00  0.00    -0.284 N  
HETATM    5  C   UNL     1      -9.522  11.890  64.611  1.00  0.00     0.072 C  
BRANCH   4   6
HETATM    6  C   UNL     1      -9.980  13.956  65.960  1.00  0.00    -0.310 C  
BRANCH   6   7
HETATM    7  C   UNL     1     -10.870  14.759  66.917  1.00  0.00    -0.316 C  
BRANCH   7   8
HETATM    8  O   UNL     1     -10.475  14.495  68.274  1.00  0.00    -0.233 OA 
BRANCH   8   9
HETATM    9  C   UNL     1      -9.765  15.482  68.914  1.00  0.00    -0.223 C  
HETATM   10  O   UNL     1     -10.225  16.057  69.897  1.00  0.00    -0.258 OA 
BRANCH   9  11
HETATM   11  C   UNL     1      -8.376  15.729  68.299  1.00  0.00    -0.163 C  
HETATM   12  C   UNL     1      -7.922  17.173  68.433  1.00  0.00    -0.250 A  
HETATM   13  C   UNL     1      -8.648  18.216  67.826  1.00  0.00    -0.258 A  
HETATM   14  C   UNL     1      -8.338  19.547  68.101  1.00  0.00    -0.359 A  
HETATM   15  C   UNL     1      -7.271  19.853  68.941  1.00  0.00    -0.294 A  
HETATM   16  C   UNL     1      -6.499  18.826  69.483  1.00  0.00    -0.249 A  
HETATM   17  C   UNL     1      -6.822  17.492  69.228  1.00  0.00    -0.196 A  
HETATM   18  O   UNL     1      -6.008  16.556  69.811  1.00  0.00    -0.190 OA 
HETATM   19  C   UNL     1      -6.232  15.228  69.542  1.00  0.00    -0.131 A  
HETATM   20  C   UNL     1      -5.264  14.343  70.027  1.00  0.00    -0.094 A  
HETATM   21  C   UNL     1      -5.408  12.971  69.837  1.00  0.00    -0.096 A  
HETATM   22  C   UNL     1      -6.521  12.484  69.157  1.00  0.00    -0.099 A  
HETATM   23  C   UNL     1      -7.478  13.369  68.654  1.00  0.00    -0.104 A  
HETATM   24  C   UNL     1      -7.349  14.756  68.846  1.00  0.00    -0.130 A  
ENDBRANCH   9  11
ENDBRANCH   8   9
ENDBRANCH   7   8
ENDBRANCH   6   7
ENDBRANCH   4   6
BRANCH   4  25
HETATM   25  C   UNL     1     -11.418  11.913  66.375  1.00  0.00    -0.304 C  
HETATM   26  C   UNL     1     -10.492  11.213  67.369  1.00  0.00    -0.255 C  
HETATM   27  C   UNL     1     -12.404  12.787  67.171  1.00  0.00     0.189 C  
ENDBRANCH   4  25
ENDBRANCH   2   4
TORSDOF 7
ENDMDL
MODEL      292
REMARK 921   NORMALIZED FREE ENERGY PREDICTED BY IDOCK:   -1.78 KCAL/MOL
REMARK 922        TOTAL FREE ENERGY PREDICTED BY IDOCK:   -3.69 KCAL/MOL
REMARK 923 INTER-LIGAND FREE ENERGY PREDICTED BY IDOCK:   -3.53 KCAL/MOL
REMARK 924 INTRA-LIGAND FREE ENERGY PREDICTED BY IDOCK:   -0.16 KCAL/MOL
REMARK 927      BINDING AFFINITY PREDICTED BY RF-SCORE:    0.00 PKD
ROOT
HETATM    1  C   UNL     1      -5.971   9.604  67.366  1.00  0.00    -0.048 C  
HETATM    2  C   UNL     1      -7.173   9.245  66.486  1.00  0.00    -0.086 C  
HETATM    3  C   UNL     1      -6.883   8.053  65.573  1.00  0.00    -0.059 C  
ENDROOT
BRANCH   2   4
HETATM    4  N   UNL     1      -8.549   9.098  67.256  1.00  0.00    -0.118 N  
HETATM    5  C   UNL     1      -9.632   8.619  66.272  1.00  0.00    -0.252 C  
BRANCH   4   6
HETATM    6  C   UNL     1      -8.394   7.977  68.358  1.00  0.00    -0.127 C  
BRANCH   6   7
HETATM    7  C   UNL     1      -9.687   7.466  69.003  1.00  0.00    -0.160 C  
BRANCH   7   8
HETATM    8  O   UNL     1      -9.664   7.747  70.413  1.00  0.00    -0.178 OA 
BRANCH   8   9
HETATM    9  C   UNL     1      -9.978   6.708  71.256  1.00  0.00    -0.180 C  
HETATM   10  O   UNL     1     -11.141   6.490  71.586  1.00  0.00    -0.240 OA 
BRANCH   9  11
HETATM   11  C   UNL     1      -8.755   5.873  71.676  1.00  0.00    -0.136 C  
HETATM   12  C   UNL     1      -7.732   6.680  72.458  1.00  0.00    -0.098 A  
HETATM   13  C   UNL     1      -7.085   7.785  71.872  1.00  0.00    -0.067 A  
HETATM   14  C   UNL     1      -6.290   8.632  72.644  1.00  0.00    -0.071 A  
HETATM   15  C   UNL     1      -6.090   8.357  73.994  1.00  0.00    -0.133 A  
HETATM   16  C   UNL     1      -6.665   7.221  74.563  1.00  0.00    -0.096 A  
HETATM   17  C   UNL     1      -7.481   6.386  73.798  1.00  0.00    -0.085 A  
HETATM   18  O   UNL     1      -8.004   5.299  74.448  1.00  0.00    -0.101 OA 
HETATM   19  C   UNL     1      -8.758   4.402  73.733  1.00  0.00    -0.105 A  
HETATM   20  C   UNL     1      -9.114   3.233  74.414  1.00  0.00    -0.099 A  
HETATM   21  C   UNL     1      -9.903   2.269  73.792  1.00  0.00    -0.135 A  
HETATM   22  C   UNL     1     -10.334   2.473  72.485  1.00  0.00    -0.212 A  
HETATM   23  C   UNL     1      -9.963   3.631  71.795  1.00  0.00    -0.210 A  
HETATM   24  C   UNL     1      -9.172   4.615  72.414  1.00  0.00    -0.149 A  
ENDBRANCH   9  11
ENDBRANCH   8   9
ENDBRANCH   7   8
ENDBRANCH   6   7
ENDBRANCH   4   6
BRANCH   4  25
HETATM   25  C   UNL     1      -9.025  10.410  68.042  1.00  0.00    -0.129 C  
HETATM   26  C   UNL     1      -8.186  10.742  69.275  1.00  0.00    -0.087 C  
HETATM   27  C   UNL     1      -9.069  11.658  67.141  1.00  0.00    -0.171 C  
ENDBRANCH   4  25
ENDBRANCH   2   4
TORSDOF 7
ENDMDL
MODEL      293
REMARK 921   NORMALIZED FREE ENERGY PREDICTED BY IDOCK:   -1.69 KCAL/MOL
REMARK 922        TOTAL FREE ENERGY PREDICTED BY IDOCK:   -3.56 KCAL/MOL
REMARK 923 INTER-LIGAND FREE ENERGY PREDICTED BY IDOCK:   -4.94 KCAL/MOL
REMARK 924 INTRA-LIGAND FREE ENERGY PREDICTED BY IDOCK:    1.37 KCAL/MOL
REMARK 927      BINDING AFFINITY PREDICTED BY RF-SCORE:    0.00 PKD
ROOT
HETATM    1  C   UNL     1      -9.880  20.762  67.621  1.00  0.00    -0.353 C  
HETATM    2  C   UNL     1      -9.379  19.413  68.149  1.00  0.00    -0.342 C  
HETATM    3  C   UNL     1      -9.806  19.167  69.596  1.00  0.00     0.159 C  
ENDROOT
BRANCH   2   4
HETATM    4  N   UNL     1      -9.675  18.172  67.211  1.00  0.00    -0.289 N  
HETATM    5  C   UNL     1      -8.354  17.673  66.598  1.00  0.00    -0.260 C  
BRANCH   4   6
HETATM    6  C   UNL     1     -10.252  16.997  68.094  1.00  0.00    -0.322 C  
BRANCH   6   7
HETATM    7  C   UNL     1      -9.370  16.511  69.250  1.00  0.00    -0.135 C  
BRANCH   7   8
HETATM    8  O   UNL     1      -8.576  15.395  68.812  1.00  0.00    -0.164 OA 
BRANCH   8   9
HETATM    9  C   UNL     1      -9.258  14.273  68.405  1.00  0.00    -0.196 C  
HETATM   10  O   UNL     1     -10.138  13.778  69.106  1.00  0.00    -0.049 OA 
BRANCH   9  11
HETATM   11  C   UNL     1      -8.829  13.769  67.016  1.00  0.00    -0.230 C  
HETATM   12  C   UNL     1      -7.714  12.739  67.082  1.00  0.00    -0.072 A  
HETATM   13  C   UNL     1      -6.457  13.072  67.621  1.00  0.00    -0.162 A  
HETATM   14  C   UNL     1      -5.500  12.083  67.850  1.00  0.00    -0.060 A  
HETATM   15  C   UNL     1      -5.767  10.763  67.497  1.00  0.00    -0.044 A  
HETATM   16  C   UNL     1      -6.981  10.439  66.891  1.00  0.00    -0.093 A  
HETATM   17  C   UNL     1      -7.949  11.424  66.683  1.00  0.00    -0.148 A  
HETATM   18  O   UNL     1      -9.110  11.006  66.086  1.00  0.00    -0.180 OA 
HETATM   19  C   UNL     1     -10.073  11.939  65.792  1.00  0.00    -0.241 A  
HETATM   20  C   UNL     1     -11.151  11.475  65.032  1.00  0.00    -0.268 A  
HETATM   21  C   UNL     1     -12.199  12.331  64.702  1.00  0.00    -0.454 A  
HETATM   22  C   UNL     1     -12.166  13.654  65.130  1.00  0.00    -0.461 A  
HETATM   23  C   UNL     1     -11.080  14.125  65.871  1.00  0.00    -0.306 A  
HETATM   24  C   UNL     1     -10.018  13.270  66.217  1.00  0.00    -0.291 A  
ENDBRANCH   9  11
ENDBRANCH   8   9
ENDBRANCH   7   8
ENDBRANCH   6   7
ENDBRANCH   4   6
BRANCH   4  25
HETATM   25  C   UNL     1     -10.773  18.434  66.074  1.00  0.00    -0.185 C  
HETATM   26  C   UNL     1     -10.565  19.726  65.286  1.00  0.00     0.050 C  
HETATM   27  C   UNL     1     -10.876  17.271  65.071  1.00  0.00     0.158 C  
ENDBRANCH   4  25
ENDBRANCH   2   4
TORSDOF 7
ENDMDL
MODEL      294
REMARK 921   NORMALIZED FREE ENERGY PREDICTED BY IDOCK:   -1.66 KCAL/MOL
REMARK 922        TOTAL FREE ENERGY PREDICTED BY IDOCK:   -3.52 KCAL/MOL
REMARK 923 INTER-LIGAND FREE ENERGY PREDICTED BY IDOCK:   -2.96 KCAL/MOL
REMARK 924 INTRA-LIGAND FREE ENERGY PREDICTED BY IDOCK:   -0.56 KCAL/MOL
REMARK 927      BINDING AFFINITY PREDICTED BY RF-SCORE:    0.00 PKD
ROOT
HETATM    1  C   UNL     1      -7.329  11.327  66.764  1.00  0.00    -0.146 C  
HETATM    2  C   UNL     1      -7.360  10.536  68.077  1.00  0.00    -0.089 C  
HETATM    3  C   UNL     1      -7.020  11.410  69.284  1.00  0.00    -0.115 C  
ENDROOT
BRANCH   2   4
HETATM    4  N   UNL     1      -8.663   9.667  68.306  1.00  0.00    -0.119 N  
HETATM    5  C   UNL     1      -8.399   8.224  67.839  1.00  0.00    -0.128 C  
BRANCH   4   6
HETATM    6  C   UNL     1      -8.964   9.606  69.855  1.00  0.00    -0.221 C  
BRANCH   6   7
HETATM    7  C   UNL     1      -8.940   8.218  70.505  1.00  0.00    -0.147 C  
BRANCH   7   8
HETATM    8  O   UNL     1      -7.594   7.711  70.505  1.00  0.00    -0.078 OA 
BRANCH   8   9
HETATM    9  C   UNL     1      -7.148   7.143  71.673  1.00  0.00    -0.069 C  
HETATM   10  O   UNL     1      -6.627   7.826  72.551  1.00  0.00    -0.058 OA 
BRANCH   9  11
HETATM   11  C   UNL     1      -7.408   5.628  71.752  1.00  0.00    -0.092 C  
HETATM   12  C   UNL     1      -8.724   5.292  72.434  1.00  0.00    -0.125 A  
HETATM   13  C   UNL     1      -8.952   5.650  73.776  1.00  0.00    -0.123 A  
HETATM   14  C   UNL     1     -10.219   5.507  74.342  1.00  0.00    -0.297 A  
HETATM   15  C   UNL     1     -11.256   4.960  73.593  1.00  0.00    -0.299 A  
HETATM   16  C   UNL     1     -11.018   4.531  72.287  1.00  0.00     0.047 A  
HETATM   17  C   UNL     1      -9.756   4.695  71.711  1.00  0.00    -0.169 A  
HETATM   18  O   UNL     1      -9.623   4.249  70.423  1.00  0.00    -0.161 OA 
HETATM   19  C   UNL     1      -8.389   4.318  69.825  1.00  0.00    -0.061 A  
HETATM   20  C   UNL     1      -8.285   3.690  68.579  1.00  0.00    -0.084 A  
HETATM   21  C   UNL     1      -7.086   3.725  67.872  1.00  0.00    -0.055 A  
HETATM   22  C   UNL     1      -5.989   4.388  68.412  1.00  0.00    -0.027 A  
HETATM   23  C   UNL     1      -6.085   4.998  69.666  1.00  0.00    -0.022 A  
HETATM   24  C   UNL     1      -7.291   4.976  70.387  1.00  0.00    -0.055 A  
ENDBRANCH   9  11
ENDBRANCH   8   9
ENDBRANCH   7   8
ENDBRANCH   6   7
ENDBRANCH   4   6
BRANCH   4  25
HETATM   25  C   UNL     1      -9.992  10.255  67.633  1.00  0.00    -0.179 C  
HETATM   26  C   UNL     1     -11.112   9.230  67.457  1.00  0.00     0.138 C  
HETATM   27  C   UNL     1     -10.562  11.461  68.402  1.00  0.00    -0.230 C  
ENDBRANCH   4  25
ENDBRANCH   2   4
TORSDOF 7
ENDMDL
MODEL      295
REMARK 921   NORMALIZED FREE ENERGY PREDICTED BY IDOCK:   -1.65 KCAL/MOL
REMARK 922        TOTAL FREE ENERGY PREDICTED BY IDOCK:   -3.51 KCAL/MOL
REMARK 923 INTER-LIGAND FREE ENERGY PREDICTED BY IDOCK:   -3.96 KCAL/MOL
REMARK 924 INTRA-LIGAND FREE ENERGY PREDICTED BY IDOCK:    0.45 KCAL/MOL
REMARK 927      BINDING AFFINITY PREDICTED BY RF-SCORE:    0.00 PKD
ROOT
HETATM    1  C   UNL     1      -5.421   9.967  67.355  1.00  0.00    -0.039 C  
HETATM    2  C   UNL     1      -6.446   9.652  66.259  1.00  0.00    -0.070 C  
HETATM    3  C   UNL     1      -6.196   8.290  65.611  1.00  0.00    -0.045 C  
ENDROOT
BRANCH   2   4
HETATM    4  N   UNL     1      -7.959   9.856  66.677  1.00  0.00    -0.112 N  
HETATM    5  C   UNL     1      -8.821   9.996  65.409  1.00  0.00    -0.173 C  
BRANCH   4   6
HETATM    6  C   UNL     1      -8.453   8.560  67.434  1.00  0.00    -0.127 C  
BRANCH   6   7
HETATM    7  C   UNL     1      -9.913   8.553  67.901  1.00  0.00    -0.181 C  
BRANCH   7   8
HETATM    8  O   UNL     1      -9.971   8.188  69.291  1.00  0.00    -0.179 OA 
BRANCH   8   9
HETATM    9  C   UNL     1     -10.308   6.886  69.574  1.00  0.00    -0.207 C  
HETATM   10  O   UNL     1     -11.377   6.413  69.196  1.00  0.00    -0.364 OA 
BRANCH   9  11
HETATM   11  C   UNL     1      -9.215   6.128  70.348  1.00  0.00    -0.162 C  
HETATM   12  C   UNL     1      -9.754   5.404  71.571  1.00  0.00    -0.209 A  
HETATM   13  C   UNL     1     -10.351   6.119  72.626  1.00  0.00    -0.219 A  
HETATM   14  C   UNL     1     -11.007   5.445  73.656  1.00  0.00    -0.274 A  
HETATM   15  C   UNL     1     -11.031   4.054  73.671  1.00  0.00    -0.345 A  
HETATM   16  C   UNL     1     -10.375   3.338  72.669  1.00  0.00    -0.217 A  
HETATM   17  C   UNL     1      -9.738   4.011  71.625  1.00  0.00    -0.172 A  
HETATM   18  O   UNL     1      -9.128   3.221  70.687  1.00  0.00    -0.095 OA 
HETATM   19  C   UNL     1      -8.425   3.823  69.673  1.00  0.00    -0.060 A  
HETATM   20  C   UNL     1      -7.687   2.961  68.855  1.00  0.00    -0.048 A  
HETATM   21  C   UNL     1      -6.962   3.464  67.777  1.00  0.00    -0.050 A  
HETATM   22  C   UNL     1      -6.972   4.832  67.520  1.00  0.00    -0.061 A  
HETATM   23  C   UNL     1      -7.692   5.696  68.349  1.00  0.00    -0.092 A  
HETATM   24  C   UNL     1      -8.435   5.201  69.436  1.00  0.00    -0.090 A  
ENDBRANCH   9  11
ENDBRANCH   8   9
ENDBRANCH   7   8
ENDBRANCH   6   7
ENDBRANCH   4   6
BRANCH   4  25
HETATM   25  C   UNL     1      -8.222  11.070  67.688  1.00  0.00    -0.117 C  
HETATM   26  C   UNL     1      -7.153  11.229  68.768  1.00  0.00    -0.096 C  
HETATM   27  C   UNL     1      -8.379  12.420  66.965  1.00  0.00    -0.157 C  
ENDBRANCH   4  25
ENDBRANCH   2   4
TORSDOF 7
ENDMDL
MODEL      296
REMARK 921   NORMALIZED FREE ENERGY PREDICTED BY IDOCK:   -1.54 KCAL/MOL
REMARK 922        TOTAL FREE ENERGY PREDICTED BY IDOCK:   -3.35 KCAL/MOL
REMARK 923 INTER-LIGAND FREE ENERGY PREDICTED BY IDOCK:   -3.68 KCAL/MOL
REMARK 924 INTRA-LIGAND FREE ENERGY PREDICTED BY IDOCK:    0.33 KCAL/MOL
REMARK 927      BINDING AFFINITY PREDICTED BY RF-SCORE:    0.00 PKD
ROOT
HETATM    1  C   UNL     1      -6.938   6.774  65.058  1.00  0.00    -0.051 C  
HETATM    2  C   UNL     1      -6.707   7.834  66.140  1.00  0.00    -0.053 C  
HETATM    3  C   UNL     1      -5.697   8.894  65.702  1.00  0.00    -0.050 C  
ENDROOT
BRANCH   2   4
HETATM    4  N   UNL     1      -8.023   8.468  66.752  1.00  0.00    -0.094 N  
HETATM    5  C   UNL     1      -8.648   9.428  65.724  1.00  0.00    -0.145 C  
BRANCH   4   6
HETATM    6  C   UNL     1      -9.069   7.312  67.005  1.00  0.00    -0.135 C  
BRANCH   6   7
HETATM    7  C   UNL     1      -8.538   6.040  67.677  1.00  0.00    -0.106 C  
BRANCH   7   8
HETATM    8  O   UNL     1      -9.644   5.234  68.120  1.00  0.00    -0.118 OA 
BRANCH   8   9
HETATM    9  C   UNL     1     -10.491   5.801  69.041  1.00  0.00    -0.266 C  
HETATM   10  O   UNL     1     -11.357   6.601  68.696  1.00  0.00    -0.201 OA 
BRANCH   9  11
HETATM   11  C   UNL     1     -10.255   5.298  70.477  1.00  0.00    -0.334 C  
HETATM   12  C   UNL     1      -9.218   4.190  70.549  1.00  0.00    -0.194 A  
HETATM   13  C   UNL     1      -9.429   2.963  69.891  1.00  0.00    -0.173 A  
HETATM   14  C   UNL     1      -8.404   2.021  69.804  1.00  0.00    -0.074 A  
HETATM   15  C   UNL     1      -7.178   2.271  70.415  1.00  0.00    -0.033 A  
HETATM   16  C   UNL     1      -6.989   3.450  71.134  1.00  0.00    -0.032 A  
HETATM   17  C   UNL     1      -8.006   4.405  71.202  1.00  0.00    -0.081 A  
HETATM   18  O   UNL     1      -7.722   5.533  71.927  1.00  0.00    -0.100 OA 
HETATM   19  C   UNL     1      -8.705   6.477  72.089  1.00  0.00    -0.131 A  
HETATM   20  C   UNL     1      -8.405   7.514  72.978  1.00  0.00    -0.166 A  
HETATM   21  C   UNL     1      -9.320   8.542  73.195  1.00  0.00    -0.071 A  
HETATM   22  C   UNL     1     -10.538   8.530  72.522  1.00  0.00    -0.308 A  
HETATM   23  C   UNL     1     -10.847   7.484  71.649  1.00  0.00    -0.249 A  
HETATM   24  C   UNL     1      -9.930   6.444  71.416  1.00  0.00    -0.206 A  
ENDBRANCH   9  11
ENDBRANCH   8   9
ENDBRANCH   7   8
ENDBRANCH   6   7
ENDBRANCH   4   6
BRANCH   4  25
HETATM   25  C   UNL     1      -7.829   9.189  68.169  1.00  0.00    -0.099 C  
HETATM   26  C   UNL     1      -9.079   9.896  68.690  1.00  0.00    -0.132 C  
HETATM   27  C   UNL     1      -7.332   8.225  69.261  1.00  0.00    -0.076 C  
ENDBRANCH   4  25
ENDBRANCH   2   4
TORSDOF 7
ENDMDL
MODEL      297
REMARK 921   NORMALIZED FREE ENERGY PREDICTED BY IDOCK:   -1.52 KCAL/MOL
REMARK 922        TOTAL FREE ENERGY PREDICTED BY IDOCK:   -3.33 KCAL/MOL
REMARK 923 INTER-LIGAND FREE ENERGY PREDICTED BY IDOCK:   -4.88 KCAL/MOL
REMARK 924 INTRA-LIGAND FREE ENERGY PREDICTED BY IDOCK:    1.55 KCAL/MOL
REMARK 927      BINDING AFFINITY PREDICTED BY RF-SCORE:    0.00 PKD
ROOT
HETATM    1  C   UNL     1     -10.336  15.533  71.406  1.00  0.00     0.904 C  
HETATM    2  C   UNL     1     -11.629  14.845  71.860  1.00  0.00    -0.260 C  
HETATM    3  C   UNL     1     -12.493  15.761  72.728  1.00  0.00    -0.558 C  
ENDROOT
BRANCH   2   4
HETATM    4  N   UNL     1     -12.457  14.144  70.707  1.00  0.00    -0.343 N  
HETATM    5  C   UNL     1     -13.424  15.167  70.083  1.00  0.00     0.390 C  
BRANCH   4   6
HETATM    6  C   UNL     1     -11.458  13.694  69.569  1.00  0.00    -0.263 C  
BRANCH   6   7
HETATM    7  C   UNL     1     -12.069  13.411  68.192  1.00  0.00    -0.232 C  
BRANCH   7   8
HETATM    8  O   UNL     1     -11.646  12.114  67.737  1.00  0.00    -0.311 OA 
BRANCH   8   9
HETATM    9  C   UNL     1     -10.306  11.828  67.844  1.00  0.00    -0.193 C  
HETATM   10  O   UNL     1      -9.843  11.345  68.873  1.00  0.00    -0.191 OA 
BRANCH   9  11
HETATM   11  C   UNL     1      -9.514  12.137  66.561  1.00  0.00    -0.235 C  
HETATM   12  C   UNL     1      -8.496  11.059  66.224  1.00  0.00    -0.165 A  
HETATM   13  C   UNL     1      -7.436  10.770  67.104  1.00  0.00    -0.102 A  
HETATM   14  C   UNL     1      -6.616   9.664  66.885  1.00  0.00    -0.067 A  
HETATM   15  C   UNL     1      -6.811   8.866  65.760  1.00  0.00    -0.072 A  
HETATM   16  C   UNL     1      -7.810   9.193  64.844  1.00  0.00    -0.117 A  
HETATM   17  C   UNL     1      -8.648  10.286  65.075  1.00  0.00    -0.180 A  
HETATM   18  O   UNL     1      -9.602  10.521  64.120  1.00  0.00    -0.260 OA 
HETATM   19  C   UNL     1     -10.412  11.622  64.254  1.00  0.00    -0.331 A  
HETATM   20  C   UNL     1     -11.242  11.897  63.163  1.00  0.00    -0.248 A  
HETATM   21  C   UNL     1     -12.125  12.974  63.205  1.00  0.00    -0.499 A  
HETATM   22  C   UNL     1     -12.175  13.777  64.340  1.00  0.00    -0.440 A  
HETATM   23  C   UNL     1     -11.332  13.516  65.423  1.00  0.00    -0.302 A  
HETATM   24  C   UNL     1     -10.440  12.428  65.396  1.00  0.00    -0.306 A  
ENDBRANCH   9  11
ENDBRANCH   8   9
ENDBRANCH   7   8
ENDBRANCH   6   7
ENDBRANCH   4   6
BRANCH   4  25
HETATM   25  C   UNL     1     -13.232  12.814  71.148  1.00  0.00     0.048 C  
HETATM   26  C   UNL     1     -12.352  11.567  71.214  1.00  0.00    -0.314 C  
HETATM   27  C   UNL     1     -13.949  12.966  72.502  1.00  0.00    -0.229 C  
ENDBRANCH   4  25
ENDBRANCH   2   4
TORSDOF 7
ENDMDL
MODEL      298
REMARK 921   NORMALIZED FREE ENERGY PREDICTED BY IDOCK:   -1.49 KCAL/MOL
REMARK 922        TOTAL FREE ENERGY PREDICTED BY IDOCK:   -3.29 KCAL/MOL
REMARK 923 INTER-LIGAND FREE ENERGY PREDICTED BY IDOCK:   -3.09 KCAL/MOL
REMARK 924 INTRA-LIGAND FREE ENERGY PREDICTED BY IDOCK:   -0.20 KCAL/MOL
REMARK 927      BINDING AFFINITY PREDICTED BY RF-SCORE:    0.00 PKD
ROOT
HETATM    1  C   UNL     1      -5.346   9.986  67.313  1.00  0.00    -0.041 C  
HETATM    2  C   UNL     1      -6.404   9.752  66.229  1.00  0.00    -0.070 C  
HETATM    3  C   UNL     1      -6.230   8.400  65.536  1.00  0.00    -0.045 C  
ENDROOT
BRANCH   2   4
HETATM    4  N   UNL     1      -7.899  10.012  66.682  1.00  0.00    -0.110 N  
HETATM    5  C   UNL     1      -8.764  10.291  65.440  1.00  0.00    -0.169 C  
BRANCH   4   6
HETATM    6  C   UNL     1      -8.460   8.697  67.353  1.00  0.00    -0.123 C  
BRANCH   6   7
HETATM    7  C   UNL     1      -9.832   8.802  68.028  1.00  0.00    -0.169 C  
BRANCH   7   8
HETATM    8  O   UNL     1      -9.791   8.140  69.304  1.00  0.00    -0.175 OA 
BRANCH   8   9
HETATM    9  C   UNL     1     -10.315   6.871  69.360  1.00  0.00    -0.204 C  
HETATM   10  O   UNL     1     -11.445   6.635  68.938  1.00  0.00    -0.192 OA 
BRANCH   9  11
HETATM   11  C   UNL     1      -9.341   5.835  69.947  1.00  0.00    -0.177 C  
HETATM   12  C   UNL     1      -8.159   5.555  69.035  1.00  0.00    -0.095 A  
HETATM   13  C   UNL     1      -8.353   5.009  67.751  1.00  0.00    -0.105 A  
HETATM   14  C   UNL     1      -7.292   4.926  66.850  1.00  0.00    -0.085 A  
HETATM   15  C   UNL     1      -6.019   5.336  67.235  1.00  0.00    -0.026 A  
HETATM   16  C   UNL     1      -5.804   5.805  68.531  1.00  0.00    -0.019 A  
HETATM   17  C   UNL     1      -6.870   5.912  69.427  1.00  0.00    -0.062 A  
HETATM   18  O   UNL     1      -6.559   6.389  70.673  1.00  0.00    -0.049 OA 
HETATM   19  C   UNL     1      -7.550   6.452  71.622  1.00  0.00    -0.095 A  
HETATM   20  C   UNL     1      -7.130   6.783  72.914  1.00  0.00    -0.075 A  
HETATM   21  C   UNL     1      -8.057   6.903  73.946  1.00  0.00    -0.135 A  
HETATM   22  C   UNL     1      -9.407   6.690  73.685  1.00  0.00    -0.173 A  
HETATM   23  C   UNL     1      -9.827   6.340  72.399  1.00  0.00    -0.176 A  
HETATM   24  C   UNL     1      -8.902   6.221  71.346  1.00  0.00    -0.139 A  
ENDBRANCH   9  11
ENDBRANCH   8   9
ENDBRANCH   7   8
ENDBRANCH   6   7
ENDBRANCH   4   6
BRANCH   4  25
HETATM   25  C   UNL     1      -8.079  11.165  67.779  1.00  0.00    -0.117 C  
HETATM   26  C   UNL     1      -6.948  11.237  68.805  1.00  0.00    -0.091 C  
HETATM   27  C   UNL     1      -8.249  12.560  67.152  1.00  0.00    -0.168 C  
ENDBRANCH   4  25
ENDBRANCH   2   4
TORSDOF 7
ENDMDL
MODEL      299
REMARK 921   NORMALIZED FREE ENERGY PREDICTED BY IDOCK:   -1.41 KCAL/MOL
REMARK 922        TOTAL FREE ENERGY PREDICTED BY IDOCK:   -3.17 KCAL/MOL
REMARK 923 INTER-LIGAND FREE ENERGY PREDICTED BY IDOCK:   -4.16 KCAL/MOL
REMARK 924 INTRA-LIGAND FREE ENERGY PREDICTED BY IDOCK:    0.99 KCAL/MOL
REMARK 927      BINDING AFFINITY PREDICTED BY RF-SCORE:    0.00 PKD
ROOT
HETATM    1  C   UNL     1     -10.130  15.419  71.321  1.00  0.00     1.238 C  
HETATM    2  C   UNL     1     -11.452  14.851  71.848  1.00  0.00    -0.172 C  
HETATM    3  C   UNL     1     -12.241  15.882  72.655  1.00  0.00    -0.603 C  
ENDROOT
BRANCH   2   4
HETATM    4  N   UNL     1     -12.345  14.115  70.768  1.00  0.00    -0.346 N  
HETATM    5  C   UNL     1     -13.230  15.151  70.050  1.00  0.00     0.244 C  
BRANCH   4   6
HETATM    6  C   UNL     1     -11.397  13.478  69.677  1.00  0.00    -0.152 C  
BRANCH   6   7
HETATM    7  C   UNL     1     -12.026  13.177  68.312  1.00  0.00    -0.291 C  
BRANCH   7   8
HETATM    8  O   UNL     1     -11.200  12.239  67.599  1.00  0.00    -0.254 OA 
BRANCH   8   9
HETATM    9  C   UNL     1      -9.917  12.071  68.060  1.00  0.00    -0.197 C  
HETATM   10  O   UNL     1      -9.646  11.191  68.872  1.00  0.00    -0.198 OA 
BRANCH   9  11
HETATM   11  C   UNL     1      -8.910  13.050  67.429  1.00  0.00    -0.203 C  
HETATM   12  C   UNL     1      -9.584  14.168  66.651  1.00  0.00    -0.301 A  
HETATM   13  C   UNL     1     -10.385  13.882  65.529  1.00  0.00    -0.347 A  
HETATM   14  C   UNL     1     -11.148  14.885  64.930  1.00  0.00    -0.424 A  
HETATM   15  C   UNL     1     -11.081  16.189  65.411  1.00  0.00    -0.126 A  
HETATM   16  C   UNL     1     -10.230  16.494  66.474  1.00  0.00    -0.305 A  
HETATM   17  C   UNL     1      -9.484  15.487  67.089  1.00  0.00    -0.215 A  
HETATM   18  O   UNL     1      -8.683  15.884  68.127  1.00  0.00    -0.168 OA 
HETATM   19  C   UNL     1      -7.872  14.954  68.729  1.00  0.00    -0.149 A  
HETATM   20  C   UNL     1      -6.959  15.460  69.660  1.00  0.00    -0.184 A  
HETATM   21  C   UNL     1      -6.109  14.599  70.351  1.00  0.00    -0.173 A  
HETATM   22  C   UNL     1      -6.171  13.231  70.107  1.00  0.00    -0.050 A  
HETATM   23  C   UNL     1      -7.068  12.726  69.162  1.00  0.00     0.032 A  
HETATM   24  C   UNL     1      -7.936  13.583  68.463  1.00  0.00    -0.119 A  
ENDBRANCH   9  11
ENDBRANCH   8   9
ENDBRANCH   7   8
ENDBRANCH   6   7
ENDBRANCH   4   6
BRANCH   4  25
HETATM   25  C   UNL     1     -13.224  12.901  71.333  1.00  0.00    -0.176 C  
HETATM   26  C   UNL     1     -12.534  11.540  71.260  1.00  0.00    -0.399 C  
HETATM   27  C   UNL     1     -13.685  13.128  72.784  1.00  0.00    -0.124 C  
ENDBRANCH   4  25
ENDBRANCH   2   4
TORSDOF 7
ENDMDL
MODEL      300
REMARK 921   NORMALIZED FREE ENERGY PREDICTED BY IDOCK:   -1.14 KCAL/MOL
REMARK 922        TOTAL FREE ENERGY PREDICTED BY IDOCK:   -2.79 KCAL/MOL
REMARK 923 INTER-LIGAND FREE ENERGY PREDICTED BY IDOCK:   -3.35 KCAL/MOL
REMARK 924 INTRA-LIGAND FREE ENERGY PREDICTED BY IDOCK:    0.56 KCAL/MOL
REMARK 927      BINDING AFFINITY PREDICTED BY RF-SCORE:    0.00 PKD
ROOT
HETATM    1  C   UNL     1      -5.204   9.162  67.229  1.00  0.00    -0.037 C  
HETATM    2  C   UNL     1      -6.352   9.082  66.217  1.00  0.00    -0.065 C  
HETATM    3  C   UNL     1      -6.110   8.009  65.154  1.00  0.00    -0.045 C  
ENDROOT
BRANCH   2   4
HETATM    4  N   UNL     1      -7.800   8.991  66.850  1.00  0.00    -0.101 N  
HETATM    5  C   UNL     1      -8.808   8.588  65.758  1.00  0.00    -0.190 C  
BRANCH   4   6
HETATM    6  C   UNL     1      -7.806   7.844  67.935  1.00  0.00    -0.127 C  
BRANCH   6   7
HETATM    7  C   UNL     1      -9.178   7.390  68.447  1.00  0.00    -0.138 C  
BRANCH   7   8
HETATM    8  O   UNL     1      -9.234   7.548  69.876  1.00  0.00    -0.148 OA 
BRANCH   8   9
HETATM    9  C   UNL     1      -9.816   6.527  70.588  1.00  0.00    -0.183 C  
HETATM   10  O   UNL     1     -10.541   5.704  70.036  1.00  0.00    -0.275 OA 
BRANCH   9  11
HETATM   11  C   UNL     1      -9.429   6.527  72.078  1.00  0.00    -0.151 C  
HETATM   12  C   UNL     1      -9.589   5.162  72.727  1.00  0.00    -0.165 A  
HETATM   13  C   UNL     1     -10.852   4.544  72.802  1.00  0.00    -0.239 A  
HETATM   14  C   UNL     1     -10.969   3.222  73.228  1.00  0.00    -0.263 A  
HETATM   15  C   UNL     1      -9.838   2.519  73.632  1.00  0.00    -0.149 A  
HETATM   16  C   UNL     1      -8.594   3.150  73.634  1.00  0.00    -0.074 A  
HETATM   17  C   UNL     1      -8.472   4.467  73.185  1.00  0.00    -0.094 A  
HETATM   18  O   UNL     1      -7.208   4.997  73.220  1.00  0.00    -0.082 OA 
HETATM   19  C   UNL     1      -7.033   6.309  72.857  1.00  0.00    -0.079 A  
HETATM   20  C   UNL     1      -5.755   6.832  73.080  1.00  0.00    -0.046 A  
HETATM   21  C   UNL     1      -5.460   8.145  72.721  1.00  0.00    -0.040 A  
HETATM   22  C   UNL     1      -6.446   8.937  72.140  1.00  0.00    -0.010 A  
HETATM   23  C   UNL     1      -7.729   8.422  71.936  1.00  0.00    -0.157 A  
HETATM   24  C   UNL     1      -8.038   7.096  72.287  1.00  0.00    -0.103 A  
ENDBRANCH   9  11
ENDBRANCH   8   9
ENDBRANCH   7   8
ENDBRANCH   6   7
ENDBRANCH   4   6
BRANCH   4  25
HETATM   25  C   UNL     1      -8.283  10.311  67.619  1.00  0.00    -0.114 C  
HETATM   26  C   UNL     1      -7.170  11.322  67.891  1.00  0.00    -0.086 C  
HETATM   27  C   UNL     1      -9.425  11.040  66.887  1.00  0.00    -0.197 C  
ENDBRANCH   4  25
ENDBRANCH   2   4
TORSDOF 7
ENDMDL
MODEL      301
REMARK 921   NORMALIZED FREE ENERGY PREDICTED BY IDOCK:   -1.13 KCAL/MOL
REMARK 922        TOTAL FREE ENERGY PREDICTED BY IDOCK:   -2.78 KCAL/MOL
REMARK 923 INTER-LIGAND FREE ENERGY PREDICTED BY IDOCK:   -4.85 KCAL/MOL
REMARK 924 INTRA-LIGAND FREE ENERGY PREDICTED BY IDOCK:    2.07 KCAL/MOL
REMARK 927      BINDING AFFINITY PREDICTED BY RF-SCORE:    0.00 PKD
ROOT
HETATM    1  C   UNL     1      -6.609   6.670  70.784  1.00  0.00    -0.053 C  
HETATM    2  C   UNL     1      -6.495   8.185  70.986  1.00  0.00    -0.038 C  
HETATM    3  C   UNL     1      -5.461   8.548  72.052  1.00  0.00    -0.043 C  
ENDROOT
BRANCH   2   4
HETATM    4  N   UNL     1      -6.319   9.028  69.658  1.00  0.00    -0.039 N  
HETATM    5  C   UNL     1      -5.847   8.098  68.526  1.00  0.00    -0.040 C  
BRANCH   4   6
HETATM    6  C   UNL     1      -7.728   9.602  69.233  1.00  0.00    -0.095 C  
BRANCH   6   7
HETATM    7  C   UNL     1      -7.728  10.951  68.506  1.00  0.00    -0.119 C  
BRANCH   7   8
HETATM    8  O   UNL     1      -8.885  11.038  67.656  1.00  0.00    -0.130 OA 
BRANCH   8   9
HETATM    9  C   UNL     1      -9.302  12.300  67.306  1.00  0.00    -0.185 C  
HETATM   10  O   UNL     1      -8.492  13.178  67.021  1.00  0.00    -0.194 OA 
BRANCH   9  11
HETATM   11  C   UNL     1     -10.834  12.450  67.281  1.00  0.00    -0.279 C  
HETATM   12  C   UNL     1     -11.342  13.466  68.290  1.00  0.00    -0.330 A  
HETATM   13  C   UNL     1     -11.138  13.276  69.669  1.00  0.00    -0.001 A  
HETATM   14  C   UNL     1     -11.439  14.291  70.577  1.00  0.00    -0.151 A  
HETATM   15  C   UNL     1     -11.994  15.485  70.125  1.00  0.00    -0.389 A  
HETATM   16  C   UNL     1     -12.272  15.650  68.768  1.00  0.00     0.023 A  
HETATM   17  C   UNL     1     -11.948  14.644  67.855  1.00  0.00    -0.264 A  
HETATM   18  O   UNL     1     -12.254  14.903  66.544  1.00  0.00    -0.126 OA 
HETATM   19  C   UNL     1     -12.024  13.926  65.608  1.00  0.00    -0.392 A  
HETATM   20  C   UNL     1     -12.516  14.191  64.326  1.00  0.00    -0.301 A  
HETATM   21  C   UNL     1     -12.313  13.280  63.292  1.00  0.00    -0.317 A  
HETATM   22  C   UNL     1     -11.618  12.100  63.543  1.00  0.00    -0.562 A  
HETATM   23  C   UNL     1     -11.144  11.825  64.828  1.00  0.00    -0.356 A  
HETATM   24  C   UNL     1     -11.336  12.739  65.879  1.00  0.00    -0.363 A  
ENDBRANCH   9  11
ENDBRANCH   8   9
ENDBRANCH   7   8
ENDBRANCH   6   7
ENDBRANCH   4   6
BRANCH   4  25
HETATM   25  C   UNL     1      -5.359  10.304  69.792  1.00  0.00    -0.038 C  
HETATM   26  C   UNL     1      -5.416  11.260  68.601  1.00  0.00    -0.043 C  
HETATM   27  C   UNL     1      -5.627  11.116  71.072  1.00  0.00    -0.031 C  
ENDBRANCH   4  25
ENDBRANCH   2   4
TORSDOF 7
ENDMDL
MODEL      302
REMARK 921   NORMALIZED FREE ENERGY PREDICTED BY IDOCK:   -0.79 KCAL/MOL
REMARK 922        TOTAL FREE ENERGY PREDICTED BY IDOCK:   -2.30 KCAL/MOL
REMARK 923 INTER-LIGAND FREE ENERGY PREDICTED BY IDOCK:   -3.63 KCAL/MOL
REMARK 924 INTRA-LIGAND FREE ENERGY PREDICTED BY IDOCK:    1.33 KCAL/MOL
REMARK 927      BINDING AFFINITY PREDICTED BY RF-SCORE:    0.00 PKD
ROOT
HETATM    1  C   UNL     1      -9.545  20.994  67.642  1.00  0.00    -0.192 C  
HETATM    2  C   UNL     1      -9.285  19.837  68.613  1.00  0.00    -0.230 C  
HETATM    3  C   UNL     1     -10.456  19.616  69.571  1.00  0.00     0.321 C  
ENDROOT
BRANCH   2   4
HETATM    4  N   UNL     1      -8.793  18.492  67.938  1.00  0.00    -0.279 N  
HETATM    5  C   UNL     1      -7.505  18.017  68.634  1.00  0.00    -0.286 C  
BRANCH   4   6
HETATM    6  C   UNL     1      -9.887  17.378  68.173  1.00  0.00    -0.301 C  
BRANCH   6   7
HETATM    7  C   UNL     1      -9.908  16.717  69.557  1.00  0.00     0.004 C  
BRANCH   7   8
HETATM    8  O   UNL     1      -9.627  15.313  69.422  1.00  0.00    -0.241 OA 
BRANCH   8   9
HETATM    9  C   UNL     1     -10.624  14.532  68.889  1.00  0.00    -0.249 C  
HETATM   10  O   UNL     1     -11.807  14.823  69.045  1.00  0.00    -0.298 OA 
BRANCH   9  11
HETATM   11  C   UNL     1     -10.093  13.334  68.081  1.00  0.00    -0.241 C  
HETATM   12  C   UNL     1      -8.584  13.363  67.910  1.00  0.00    -0.184 A  
HETATM   13  C   UNL     1      -7.957  14.419  67.222  1.00  0.00    -0.204 A  
HETATM   14  C   UNL     1      -6.568  14.540  67.225  1.00  0.00     0.233 A  
HETATM   15  C   UNL     1      -5.788  13.583  67.869  1.00  0.00    -0.133 A  
HETATM   16  C   UNL     1      -6.400  12.491  68.485  1.00  0.00    -0.069 A  
HETATM   17  C   UNL     1      -7.791  12.382  68.504  1.00  0.00    -0.112 A  
HETATM   18  O   UNL     1      -8.297  11.278  69.139  1.00  0.00    -0.065 OA 
HETATM   19  C   UNL     1      -9.655  11.076  69.132  1.00  0.00    -0.061 A  
HETATM   20  C   UNL     1     -10.087   9.849  69.645  1.00  0.00    -0.254 A  
HETATM   21  C   UNL     1     -11.446   9.554  69.712  1.00  0.00    -0.048 A  
HETATM   22  C   UNL     1     -12.375  10.487  69.262  1.00  0.00     0.111 A  
HETATM   23  C   UNL     1     -11.945  11.705  68.730  1.00  0.00    -0.326 A  
HETATM   24  C   UNL     1     -10.576  12.019  68.663  1.00  0.00    -0.253 A  
ENDBRANCH   9  11
ENDBRANCH   8   9
ENDBRANCH   7   8
ENDBRANCH   6   7
ENDBRANCH   4   6
BRANCH   4  25
HETATM   25  C   UNL     1      -8.593  18.568  66.350  1.00  0.00    -0.256 C  
HETATM   26  C   UNL     1      -9.826  19.048  65.585  1.00  0.00     0.288 C  
HETATM   27  C   UNL     1      -7.402  19.454  65.944  1.00  0.00    -0.306 C  
ENDBRANCH   4  25
ENDBRANCH   2   4
TORSDOF 7
ENDMDL
MODEL      303
REMARK 921   NORMALIZED FREE ENERGY PREDICTED BY IDOCK:   -0.11 KCAL/MOL
REMARK 922        TOTAL FREE ENERGY PREDICTED BY IDOCK:   -1.34 KCAL/MOL
REMARK 923 INTER-LIGAND FREE ENERGY PREDICTED BY IDOCK:   -2.13 KCAL/MOL
REMARK 924 INTRA-LIGAND FREE ENERGY PREDICTED BY IDOCK:    0.78 KCAL/MOL
REMARK 927      BINDING AFFINITY PREDICTED BY RF-SCORE:    0.00 PKD
ROOT
HETATM    1  C   UNL     1     -12.392   8.967  71.479  1.00  0.00    -0.397 C  
HETATM    2  C   UNL     1     -11.858   8.983  70.042  1.00  0.00     0.306 C  
HETATM    3  C   UNL     1     -12.590  10.001  69.167  1.00  0.00     1.385 C  
ENDROOT
BRANCH   2   4
HETATM    4  N   UNL     1     -10.284   9.091  69.911  1.00  0.00    -0.194 N  
HETATM    5  C   UNL     1      -9.651   8.992  71.311  1.00  0.00    -0.291 C  
BRANCH   4   6
HETATM    6  C   UNL     1      -9.760   7.858  69.075  1.00  0.00    -0.162 C  
BRANCH   6   7
HETATM    7  C   UNL     1     -10.769   6.738  68.798  1.00  0.00    -0.239 C  
BRANCH   7   8
HETATM    8  O   UNL     1     -11.133   6.753  67.407  1.00  0.00    -0.328 OA 
BRANCH   8   9
HETATM    9  C   UNL     1     -10.526   5.822  66.599  1.00  0.00    -0.268 C  
HETATM   10  O   UNL     1     -11.169   5.202  65.756  1.00  0.00     0.008 OA 
BRANCH   9  11
HETATM   11  C   UNL     1      -9.013   5.694  66.847  1.00  0.00    -0.112 C  
HETATM   12  C   UNL     1      -8.603   4.294  67.274  1.00  0.00    -0.105 A  
HETATM   13  C   UNL     1      -9.094   3.732  68.467  1.00  0.00    -0.196 A  
HETATM   14  C   UNL     1      -8.867   2.388  68.763  1.00  0.00    -0.149 A  
HETATM   15  C   UNL     1      -8.104   1.606  67.900  1.00  0.00    -0.064 A  
HETATM   16  C   UNL     1      -7.548   2.177  66.755  1.00  0.00    -0.066 A  
HETATM   17  C   UNL     1      -7.796   3.516  66.445  1.00  0.00    -0.085 A  
HETATM   18  O   UNL     1      -7.211   3.983  65.297  1.00  0.00    -0.065 OA 
HETATM   19  C   UNL     1      -7.359   5.309  64.973  1.00  0.00    -0.068 A  
HETATM   20  C   UNL     1      -6.598   5.754  63.888  1.00  0.00    -0.037 A  
HETATM   21  C   UNL     1      -6.694   7.075  63.456  1.00  0.00    -0.044 A  
HETATM   22  C   UNL     1      -7.552   7.952  64.113  1.00  0.00    -0.112 A  
HETATM   23  C   UNL     1      -8.298   7.514  65.210  1.00  0.00    -0.112 A  
HETATM   24  C   UNL     1      -8.215   6.181  65.652  1.00  0.00    -0.141 A  
ENDBRANCH   9  11
ENDBRANCH   8   9
ENDBRANCH   7   8
ENDBRANCH   6   7
ENDBRANCH   4   6
BRANCH   4  25
HETATM   25  C   UNL     1      -9.761  10.390  69.134  1.00  0.00    -0.220 C  
HETATM   26  C   UNL     1      -9.347  10.131  67.686  1.00  0.00    -0.162 C  
HETATM   27  C   UNL     1     -10.785  11.539  69.142  1.00  0.00    -0.210 C  
ENDBRANCH   4  25
ENDBRANCH   2   4
TORSDOF 7
ENDMDL
MODEL      304
REMARK 921   NORMALIZED FREE ENERGY PREDICTED BY IDOCK:    0.72 KCAL/MOL
REMARK 922        TOTAL FREE ENERGY PREDICTED BY IDOCK:   -0.17 KCAL/MOL
REMARK 923 INTER-LIGAND FREE ENERGY PREDICTED BY IDOCK:   -0.45 KCAL/MOL
REMARK 924 INTRA-LIGAND FREE ENERGY PREDICTED BY IDOCK:    0.28 KCAL/MOL
REMARK 927      BINDING AFFINITY PREDICTED BY RF-SCORE:    0.00 PKD
ROOT
HETATM    1  C   UNL     1      -6.958  11.523  66.937  1.00  0.00    -0.134 C  
HETATM    2  C   UNL     1      -7.238  10.833  68.277  1.00  0.00    -0.084 C  
HETATM    3  C   UNL     1      -7.768  11.809  69.327  1.00  0.00     0.217 C  
ENDROOT
BRANCH   2   4
HETATM    4  N   UNL     1      -8.106   9.513  68.184  1.00  0.00    -0.102 N  
HETATM    5  C   UNL     1      -7.346   8.358  68.863  1.00  0.00    -0.090 C  
BRANCH   4   6
HETATM    6  C   UNL     1      -9.444   9.729  68.995  1.00  0.00    -0.173 C  
BRANCH   6   7
HETATM    7  C   UNL     1      -9.737   8.727  70.117  1.00  0.00    -0.172 C  
BRANCH   7   8
HETATM    8  O   UNL     1      -9.478   9.343  71.390  1.00  0.00    -0.254 OA 
BRANCH   8   9
HETATM    9  C   UNL     1     -10.244   8.919  72.449  1.00  0.00     0.006 C  
HETATM   10  O   UNL     1     -11.422   9.251  72.551  1.00  0.00     0.090 OA 
BRANCH   9  11
HETATM   11  C   UNL     1      -9.487   7.990  73.415  1.00  0.00    -0.307 C  
HETATM   12  C   UNL     1      -9.776   6.519  73.165  1.00  0.00    -0.171 A  
HETATM   13  C   UNL     1     -11.080   6.008  73.305  1.00  0.00    -0.188 A  
HETATM   14  C   UNL     1     -11.378   4.707  72.899  1.00  0.00    -0.212 A  
HETATM   15  C   UNL     1     -10.370   3.888  72.398  1.00  0.00    -0.194 A  
HETATM   16  C   UNL     1      -9.060   4.362  72.330  1.00  0.00    -0.147 A  
HETATM   17  C   UNL     1      -8.765   5.672  72.713  1.00  0.00    -0.119 A  
HETATM   18  O   UNL     1      -7.452   6.047  72.604  1.00  0.00    -0.093 OA 
HETATM   19  C   UNL     1      -7.085   7.299  73.030  1.00  0.00    -0.072 A  
HETATM   20  C   UNL     1      -5.710   7.552  73.050  1.00  0.00    -0.044 A  
HETATM   21  C   UNL     1      -5.230   8.801  73.438  1.00  0.00    -0.076 A  
HETATM   22  C   UNL     1      -6.127   9.797  73.809  1.00  0.00     0.665 A  
HETATM   23  C   UNL     1      -7.501   9.540  73.809  1.00  0.00     1.811 A  
HETATM   24  C   UNL     1      -7.999   8.286  73.413  1.00  0.00    -0.215 A  
ENDBRANCH   9  11
ENDBRANCH   8   9
ENDBRANCH   7   8
ENDBRANCH   6   7
ENDBRANCH   4   6
BRANCH   4  25
HETATM   25  C   UNL     1      -8.562   9.109  66.703  1.00  0.00    -0.127 C  
HETATM   26  C   UNL     1      -9.154  10.261  65.893  1.00  0.00    -0.194 C  
HETATM   27  C   UNL     1      -7.421   8.481  65.881  1.00  0.00    -0.077 C  
ENDBRANCH   4  25
ENDBRANCH   2   4
TORSDOF 7
ENDMDL
MODEL      305
REMARK 921   NORMALIZED FREE ENERGY PREDICTED BY IDOCK:    4.53 KCAL/MOL
REMARK 922        TOTAL FREE ENERGY PREDICTED BY IDOCK:    5.19 KCAL/MOL
REMARK 923 INTER-LIGAND FREE ENERGY PREDICTED BY IDOCK:   -2.27 KCAL/MOL
REMARK 924 INTRA-LIGAND FREE ENERGY PREDICTED BY IDOCK:    7.46 KCAL/MOL
REMARK 927      BINDING AFFINITY PREDICTED BY RF-SCORE:    0.00 PKD
ROOT
HETATM    1  C   UNL     1      -5.551  19.142  69.875  1.00  0.00    -0.243 C  
HETATM    2  C   UNL     1      -6.664  19.257  68.827  1.00  0.00    -0.303 C  
HETATM    3  C   UNL     1      -7.426  20.578  68.939  1.00  0.00     0.349 C  
ENDROOT
BRANCH   2   4
HETATM    4  N   UNL     1      -6.223  18.936  67.341  1.00  0.00    -0.179 N  
HETATM    5  C   UNL     1      -5.154  19.952  66.899  1.00  0.00    -0.159 C  
BRANCH   4   6
HETATM    6  C   UNL     1      -5.548  17.508  67.312  1.00  0.00    -0.133 C  
BRANCH   6   7
HETATM    7  C   UNL     1      -6.018  16.505  68.371  1.00  0.00    -0.123 C  
BRANCH   7   8
HETATM    8  O   UNL     1      -6.188  15.212  67.764  1.00  0.00    -0.144 OA 
BRANCH   8   9
HETATM    9  C   UNL     1      -6.631  14.199  68.581  1.00  0.00    -0.092 C  
HETATM   10  O   UNL     1      -5.846  13.551  69.268  1.00  0.00    -0.078 OA 
BRANCH   9  11
HETATM   11  C   UNL     1      -8.160  14.022  68.556  1.00  0.00    -0.139 C  
HETATM   12  C   UNL     1      -8.906  15.345  68.509  1.00  0.00    -0.183 A  
HETATM   13  C   UNL     1      -8.785  16.277  69.557  1.00  0.00     0.103 A  
HETATM   14  C   UNL     1      -9.318  17.559  69.429  1.00  0.00     0.288 A  
HETATM   15  C   UNL     1     -10.020  17.908  68.278  1.00  0.00    -0.360 A  
HETATM   16  C   UNL     1     -10.211  16.964  67.269  1.00  0.00    -0.297 A  
HETATM   17  C   UNL     1      -9.657  15.688  67.386  1.00  0.00    -0.217 A  
HETATM   18  O   UNL     1      -9.893  14.834  66.340  1.00  0.00    -0.254 OA 
HETATM   19  C   UNL     1      -9.435  13.543  66.425  1.00  0.00    -0.224 A  
HETATM   20  C   UNL     1      -9.858  12.683  65.407  1.00  0.00    -0.157 A  
HETATM   21  C   UNL     1      -9.428  11.358  65.381  1.00  0.00    -0.240 A  
HETATM   22  C   UNL     1      -8.574  10.893  66.376  1.00  0.00    -0.160 A  
HETATM   23  C   UNL     1      -8.167  11.746  67.406  1.00  0.00    -0.160 A  
HETATM   24  C   UNL     1      -8.588  13.087  67.441  1.00  0.00    -0.199 A  
ENDBRANCH   9  11
ENDBRANCH   8   9
ENDBRANCH   7   8
ENDBRANCH   6   7
ENDBRANCH   4   6
BRANCH   4  25
HETATM   25  C   UNL     1      -7.422  18.865  66.282  1.00  0.00    -0.265 C  
HETATM   26  C   UNL     1      -7.144  17.965  65.078  1.00  0.00     1.575 C  
HETATM   27  C   UNL     1      -8.750  18.418  66.919  1.00  0.00    -0.275 C  
ENDBRANCH   4  25
ENDBRANCH   2   4
TORSDOF 7
ENDMDL
MODEL      306
REMARK 921   NORMALIZED FREE ENERGY PREDICTED BY IDOCK:    4.59 KCAL/MOL
REMARK 922        TOTAL FREE ENERGY PREDICTED BY IDOCK:    5.28 KCAL/MOL
REMARK 923 INTER-LIGAND FREE ENERGY PREDICTED BY IDOCK:    1.81 KCAL/MOL
REMARK 924 INTRA-LIGAND FREE ENERGY PREDICTED BY IDOCK:    3.47 KCAL/MOL
REMARK 927      BINDING AFFINITY PREDICTED BY RF-SCORE:    0.00 PKD
ROOT
HETATM    1  C   UNL     1      -9.676  15.588  72.596  1.00  0.00     6.160 C  
HETATM    2  C   UNL     1     -11.117  15.066  72.590  1.00  0.00     0.583 C  
HETATM    3  C   UNL     1     -11.921  15.581  73.784  1.00  0.00    -0.515 C  
ENDROOT
BRANCH   2   4
HETATM    4  N   UNL     1     -11.889  15.240  71.219  1.00  0.00    -0.326 N  
HETATM    5  C   UNL     1     -11.164  16.292  70.359  1.00  0.00    -0.324 C  
BRANCH   4   6
HETATM    6  C   UNL     1     -11.831  13.873  70.429  1.00  0.00    -0.265 C  
BRANCH   6   7
HETATM    7  C   UNL     1     -12.308  13.902  68.972  1.00  0.00    -0.087 C  
BRANCH   7   8
HETATM    8  O   UNL     1     -12.554  12.559  68.522  1.00  0.00     0.276 OA 
BRANCH   8   9
HETATM    9  C   UNL     1     -11.813  11.563  69.112  1.00  0.00    -0.340 C  
HETATM   10  O   UNL     1     -12.055  11.187  70.255  1.00  0.00    -0.316 OA 
BRANCH   9  11
HETATM   11  C   UNL     1     -10.726  10.984  68.188  1.00  0.00    -0.246 C  
HETATM   12  C   UNL     1     -10.371  11.915  67.041  1.00  0.00    -0.239 A  
HETATM   13  C   UNL     1     -11.338  12.279  66.084  1.00  0.00    -0.402 A  
HETATM   14  C   UNL     1     -11.065  13.272  65.144  1.00  0.00    -0.315 A  
HETATM   15  C   UNL     1      -9.810  13.875  65.115  1.00  0.00    -0.135 A  
HETATM   16  C   UNL     1      -8.823  13.465  66.010  1.00  0.00     0.524 A  
HETATM   17  C   UNL     1      -9.102  12.488  66.967  1.00  0.00    -0.213 A  
HETATM   18  O   UNL     1      -8.070  12.157  67.805  1.00  0.00    -0.132 OA 
HETATM   19  C   UNL     1      -8.260  11.154  68.723  1.00  0.00    -0.135 A  
HETATM   20  C   UNL     1      -7.119  10.752  69.424  1.00  0.00    -0.122 A  
HETATM   21  C   UNL     1      -7.205   9.762  70.400  1.00  0.00    -0.149 A  
HETATM   22  C   UNL     1      -8.435   9.172  70.673  1.00  0.00    -0.246 A  
HETATM   23  C   UNL     1      -9.572   9.558  69.959  1.00  0.00    -0.272 A  
HETATM   24  C   UNL     1      -9.501  10.560  68.976  1.00  0.00    -0.211 A  
ENDBRANCH   9  11
ENDBRANCH   8   9
ENDBRANCH   7   8
ENDBRANCH   6   7
ENDBRANCH   4   6
BRANCH   4  25
HETATM   25  C   UNL     1     -13.446  15.587  71.361  1.00  0.00    -0.499 C  
HETATM   26  C   UNL     1     -14.382  14.439  70.987  1.00  0.00     0.136 C  
HETATM   27  C   UNL     1     -13.820  16.069  72.775  1.00  0.00    -0.385 C  
ENDBRANCH   4  25
ENDBRANCH   2   4
TORSDOF 7
ENDMDL
MODEL      307
REMARK 921   NORMALIZED FREE ENERGY PREDICTED BY IDOCK:    4.98 KCAL/MOL
REMARK 922        TOTAL FREE ENERGY PREDICTED BY IDOCK:    5.84 KCAL/MOL
REMARK 923 INTER-LIGAND FREE ENERGY PREDICTED BY IDOCK:    3.89 KCAL/MOL
REMARK 924 INTRA-LIGAND FREE ENERGY PREDICTED BY IDOCK:    1.95 KCAL/MOL
REMARK 927      BINDING AFFINITY PREDICTED BY RF-SCORE:    0.00 PKD
ROOT
HETATM    1  C   UNL     1     -11.778  12.319  64.143  1.00  0.00    -0.481 C  
HETATM    2  C   UNL     1     -12.056  13.744  64.637  1.00  0.00    -0.421 C  
HETATM    3  C   UNL     1     -13.453  13.881  65.241  1.00  0.00     0.598 C  
ENDROOT
BRANCH   2   4
HETATM    4  N   UNL     1     -10.932  14.364  65.563  1.00  0.00    -0.314 N  
HETATM    5  C   UNL     1     -10.282  13.243  66.393  1.00  0.00    -0.292 C  
BRANCH   4   6
HETATM    6  C   UNL     1      -9.802  14.977  64.644  1.00  0.00     0.736 C  
BRANCH   6   7
HETATM    7  C   UNL     1      -8.953  16.098  65.255  1.00  0.00     1.302 C  
BRANCH   7   8
HETATM    8  O   UNL     1      -8.754  15.840  66.656  1.00  0.00    -0.235 OA 
BRANCH   8   9
HETATM    9  C   UNL     1      -7.511  16.128  67.167  1.00  0.00    -0.212 C  
HETATM   10  O   UNL     1      -6.496  15.646  66.671  1.00  0.00    -0.051 OA 
BRANCH   9  11
HETATM   11  C   UNL     1      -7.552  17.112  68.349  1.00  0.00    -0.231 C  
HETATM   12  C   UNL     1      -6.968  18.472  68.004  1.00  0.00    -0.236 A  
HETATM   13  C   UNL     1      -5.619  18.601  67.625  1.00  0.00    -0.165 A  
HETATM   14  C   UNL     1      -5.134  19.813  67.133  1.00  0.00    -0.157 A  
HETATM   15  C   UNL     1      -5.975  20.920  67.063  1.00  0.00    -0.310 A  
HETATM   16  C   UNL     1      -7.293  20.820  67.510  1.00  0.00    -0.362 A  
HETATM   17  C   UNL     1      -7.786  19.601  67.980  1.00  0.00    -0.297 A  
HETATM   18  O   UNL     1      -9.093  19.602  68.390  1.00  0.00    -0.344 OA 
HETATM   19  C   UNL     1      -9.617  18.453  68.928  1.00  0.00    -0.259 A  
HETATM   20  C   UNL     1     -10.896  18.573  69.481  1.00  0.00     1.447 A  
HETATM   21  C   UNL     1     -11.533  17.461  70.027  1.00  0.00     1.870 A  
HETATM   22  C   UNL     1     -10.889  16.228  70.021  1.00  0.00    -0.329 A  
HETATM   23  C   UNL     1      -9.603  16.110  69.487  1.00  0.00    -0.150 A  
HETATM   24  C   UNL     1      -8.951  17.223  68.926  1.00  0.00    -0.173 A  
ENDBRANCH   9  11
ENDBRANCH   8   9
ENDBRANCH   7   8
ENDBRANCH   6   7
ENDBRANCH   4   6
BRANCH   4  25
HETATM   25  C   UNL     1     -11.420  15.567  66.501  1.00  0.00     0.080 C  
HETATM   26  C   UNL     1     -11.737  16.860  65.751  1.00  0.00     1.700 C  
HETATM   27  C   UNL     1     -12.645  15.193  67.354  1.00  0.00     1.173 C  
ENDBRANCH   4  25
ENDBRANCH   2   4
TORSDOF 7
ENDMDL
MODEL      308
REMARK 921   NORMALIZED FREE ENERGY PREDICTED BY IDOCK:    5.82 KCAL/MOL
REMARK 922        TOTAL FREE ENERGY PREDICTED BY IDOCK:    7.01 KCAL/MOL
REMARK 923 INTER-LIGAND FREE ENERGY PREDICTED BY IDOCK:    3.95 KCAL/MOL
REMARK 924 INTRA-LIGAND FREE ENERGY PREDICTED BY IDOCK:    3.06 KCAL/MOL
REMARK 927      BINDING AFFINITY PREDICTED BY RF-SCORE:    0.00 PKD
ROOT
HETATM    1  C   UNL     1      -6.243   6.647  71.373  1.00  0.00    -0.041 C  
HETATM    2  C   UNL     1      -6.427   8.125  71.735  1.00  0.00    -0.052 C  
HETATM    3  C   UNL     1      -5.625   8.518  72.976  1.00  0.00    -0.069 C  
ENDROOT
BRANCH   2   4
HETATM    4  N   UNL     1      -6.225   9.140  70.536  1.00  0.00    -0.044 N  
HETATM    5  C   UNL     1      -5.780   8.363  69.284  1.00  0.00    -0.031 C  
BRANCH   4   6
HETATM    6  C   UNL     1      -7.616   9.808  70.200  1.00  0.00    -0.171 C  
BRANCH   6   7
HETATM    7  C   UNL     1      -7.580  11.056  69.310  1.00  0.00    -0.089 C  
BRANCH   7   8
HETATM    8  O   UNL     1      -8.830  11.181  68.609  1.00  0.00    -0.159 OA 
BRANCH   8   9
HETATM    9  C   UNL     1      -8.863  12.068  67.560  1.00  0.00    -0.172 C  
HETATM   10  O   UNL     1      -7.962  12.097  66.726  1.00  0.00    -0.126 OA 
BRANCH   9  11
HETATM   11  C   UNL     1     -10.129  12.944  67.543  1.00  0.00    -0.214 C  
HETATM   12  C   UNL     1     -10.755  13.049  66.163  1.00  0.00    -0.288 A  
HETATM   13  C   UNL     1     -10.044  13.624  65.092  1.00  0.00    -0.298 A  
HETATM   14  C   UNL     1     -10.543  13.553  63.791  1.00  0.00     0.479 A  
HETATM   15  C   UNL     1     -11.777  12.954  63.553  1.00  0.00    -0.576 A  
HETATM   16  C   UNL     1     -12.522  12.451  64.620  1.00  0.00    -0.500 A  
HETATM   17  C   UNL     1     -12.013  12.500  65.919  1.00  0.00    -0.409 A  
HETATM   18  O   UNL     1     -12.816  11.975  66.898  1.00  0.00     1.346 OA 
HETATM   19  C   UNL     1     -12.402  12.056  68.204  1.00  0.00     0.616 A  
HETATM   20  C   UNL     1     -13.342  11.659  69.161  1.00  0.00     3.238 A  
HETATM   21  C   UNL     1     -13.016  11.673  70.515  1.00  0.00     0.084 A  
HETATM   22  C   UNL     1     -11.749  12.088  70.912  1.00  0.00     0.477 A  
HETATM   23  C   UNL     1     -10.816  12.504  69.959  1.00  0.00     0.837 A  
HETATM   24  C   UNL     1     -11.129  12.488  68.589  1.00  0.00    -0.305 A  
ENDBRANCH   9  11
ENDBRANCH   8   9
ENDBRANCH   7   8
ENDBRANCH   6   7
ENDBRANCH   4   6
BRANCH   4  25
HETATM   25  C   UNL     1      -5.228  10.355  70.843  1.00  0.00    -0.077 C  
HETATM   26  C   UNL     1      -5.296  11.494  69.827  1.00  0.00    -0.068 C  
HETATM   27  C   UNL     1      -5.434  10.952  72.247  1.00  0.00     0.563 C  
ENDBRANCH   4  25
ENDBRANCH   2   4
TORSDOF 7
ENDMDL
MODEL      309
REMARK 921   NORMALIZED FREE ENERGY PREDICTED BY IDOCK:    6.28 KCAL/MOL
REMARK 922        TOTAL FREE ENERGY PREDICTED BY IDOCK:    7.66 KCAL/MOL
REMARK 923 INTER-LIGAND FREE ENERGY PREDICTED BY IDOCK:    5.43 KCAL/MOL
REMARK 924 INTRA-LIGAND FREE ENERGY PREDICTED BY IDOCK:    2.23 KCAL/MOL
REMARK 927      BINDING AFFINITY PREDICTED BY RF-SCORE:    0.00 PKD
ROOT
HETATM    1  C   UNL     1      -6.245   6.647  71.373  1.00  0.00    -0.041 C  
HETATM    2  C   UNL     1      -6.438   8.124  71.736  1.00  0.00    -0.052 C  
HETATM    3  C   UNL     1      -5.635   8.522  72.975  1.00  0.00    -0.069 C  
ENDROOT
BRANCH   2   4
HETATM    4  N   UNL     1      -6.247   9.141  70.538  1.00  0.00    -0.044 N  
HETATM    5  C   UNL     1      -5.801   8.368  69.283  1.00  0.00    -0.034 C  
BRANCH   4   6
HETATM    6  C   UNL     1      -7.644   9.799  70.206  1.00  0.00    -0.172 C  
BRANCH   6   7
HETATM    7  C   UNL     1      -7.621  11.048  69.317  1.00  0.00    -0.089 C  
BRANCH   7   8
HETATM    8  O   UNL     1      -8.874  11.165  68.622  1.00  0.00    -0.159 OA 
BRANCH   8   9
HETATM    9  C   UNL     1      -8.918  12.052  67.573  1.00  0.00    -0.174 C  
HETATM   10  O   UNL     1      -8.020  12.087  66.736  1.00  0.00    -0.145 OA 
BRANCH   9  11
HETATM   11  C   UNL     1     -10.189  12.920  67.563  1.00  0.00    -0.213 C  
HETATM   12  C   UNL     1      -9.890  14.400  67.386  1.00  0.00    -0.224 A  
HETATM   13  C   UNL     1      -9.124  15.098  68.338  1.00  0.00    -0.185 A  
HETATM   14  C   UNL     1      -8.697  16.402  68.085  1.00  0.00    -0.191 A  
HETATM   15  C   UNL     1      -9.071  17.038  66.905  1.00  0.00    -0.253 A  
HETATM   16  C   UNL     1      -9.895  16.380  65.992  1.00  0.00    -0.362 A  
HETATM   17  C   UNL     1     -10.303  15.066  66.234  1.00  0.00    -0.296 A  
HETATM   18  O   UNL     1     -11.105  14.503  65.276  1.00  0.00    -0.318 OA 
HETATM   19  C   UNL     1     -11.597  13.239  65.487  1.00  0.00    -0.326 A  
HETATM   20  C   UNL     1     -12.543  12.795  64.557  1.00  0.00    -0.463 A  
HETATM   21  C   UNL     1     -13.085  11.516  64.660  1.00  0.00     1.818 A  
HETATM   22  C   UNL     1     -12.682  10.681  65.698  1.00  0.00     6.896 A  
HETATM   23  C   UNL     1     -11.753  11.130  66.640  1.00  0.00     0.476 A  
HETATM   24  C   UNL     1     -11.193  12.417  66.543  1.00  0.00    -0.368 A  
ENDBRANCH   9  11
ENDBRANCH   8   9
ENDBRANCH   7   8
ENDBRANCH   6   7
ENDBRANCH   4   6
BRANCH   4  25
HETATM   25  C   UNL     1      -5.258  10.363  70.842  1.00  0.00    -0.077 C  
HETATM   26  C   UNL     1      -5.339  11.503  69.827  1.00  0.00    -0.068 C  
HETATM   27  C   UNL     1      -5.464  10.957  72.247  1.00  0.00     0.563 C  
ENDBRANCH   4  25
ENDBRANCH   2   4
TORSDOF 7
ENDMDL
MODEL      310
REMARK 921   NORMALIZED FREE ENERGY PREDICTED BY IDOCK:    6.68 KCAL/MOL
REMARK 922        TOTAL FREE ENERGY PREDICTED BY IDOCK:    8.23 KCAL/MOL
REMARK 923 INTER-LIGAND FREE ENERGY PREDICTED BY IDOCK:    7.86 KCAL/MOL
REMARK 924 INTRA-LIGAND FREE ENERGY PREDICTED BY IDOCK:    0.38 KCAL/MOL
REMARK 927      BINDING AFFINITY PREDICTED BY RF-SCORE:    0.00 PKD
ROOT
HETATM    1  C   UNL     1     -14.031   9.608  71.308  1.00  0.00    -0.033 C  
HETATM    2  C   UNL     1     -13.307  10.610  70.402  1.00  0.00     0.273 C  
HETATM    3  C   UNL     1     -14.218  11.758  69.968  1.00  0.00     6.282 C  
ENDROOT
BRANCH   2   4
HETATM    4  N   UNL     1     -11.909  11.118  70.946  1.00  0.00    -0.237 N  
HETATM    5  C   UNL     1     -11.830  10.859  72.461  1.00  0.00     3.550 C  
BRANCH   4   6
HETATM    6  C   UNL     1     -10.764  10.268  70.268  1.00  0.00    -0.250 C  
BRANCH   6   7
HETATM    7  C   UNL     1     -11.180   8.935  69.637  1.00  0.00     0.048 C  
BRANCH   7   8
HETATM    8  O   UNL     1     -10.936   8.977  68.220  1.00  0.00    -0.079 OA 
BRANCH   8   9
HETATM    9  C   UNL     1     -10.005   8.093  67.727  1.00  0.00    -0.181 C  
HETATM   10  O   UNL     1     -10.352   7.047  67.185  1.00  0.00    -0.219 OA 
BRANCH   9  11
HETATM   11  C   UNL     1      -8.555   8.579  67.896  1.00  0.00    -0.134 C  
HETATM   12  C   UNL     1      -7.654   7.534  68.534  1.00  0.00    -0.114 A  
HETATM   13  C   UNL     1      -7.908   7.064  69.836  1.00  0.00    -0.114 A  
HETATM   14  C   UNL     1      -7.197   5.978  70.348  1.00  0.00    -0.083 A  
HETATM   15  C   UNL     1      -6.193   5.385  69.588  1.00  0.00    -0.026 A  
HETATM   16  C   UNL     1      -5.884   5.896  68.327  1.00  0.00    -0.012 A  
HETATM   17  C   UNL     1      -6.611   6.967  67.804  1.00  0.00    -0.052 A  
HETATM   18  O   UNL     1      -6.236   7.394  66.557  1.00  0.00    -0.041 OA 
HETATM   19  C   UNL     1      -6.866   8.487  66.016  1.00  0.00    -0.061 A  
HETATM   20  C   UNL     1      -6.320   8.970  64.823  1.00  0.00    -0.066 A  
HETATM   21  C   UNL     1      -6.899  10.058  64.173  1.00  0.00    -0.126 A  
HETATM   22  C   UNL     1      -8.026  10.664  64.720  1.00  0.00     0.036 A  
HETATM   23  C   UNL     1      -8.561  10.195  65.923  1.00  0.00    -0.156 A  
HETATM   24  C   UNL     1      -7.989   9.094  66.586  1.00  0.00    -0.104 A  
ENDBRANCH   9  11
ENDBRANCH   8   9
ENDBRANCH   7   8
ENDBRANCH   6   7
ENDBRANCH   4   6
BRANCH   4  25
HETATM   25  C   UNL     1     -11.568  12.646  70.605  1.00  0.00     0.551 C  
HETATM   26  C   UNL     1     -11.451  12.944  69.110  1.00  0.00    -0.360 C  
HETATM   27  C   UNL     1     -12.585  13.630  71.212  1.00  0.00    -0.435 C  
ENDBRANCH   4  25
ENDBRANCH   2   4
TORSDOF 7
ENDMDL
MODEL      311
REMARK 921   NORMALIZED FREE ENERGY PREDICTED BY IDOCK:    6.72 KCAL/MOL
REMARK 922        TOTAL FREE ENERGY PREDICTED BY IDOCK:    8.28 KCAL/MOL
REMARK 923 INTER-LIGAND FREE ENERGY PREDICTED BY IDOCK:    7.51 KCAL/MOL
REMARK 924 INTRA-LIGAND FREE ENERGY PREDICTED BY IDOCK:    0.78 KCAL/MOL
REMARK 927      BINDING AFFINITY PREDICTED BY RF-SCORE:    0.00 PKD
ROOT
HETATM    1  C   UNL     1     -14.133   9.701  71.426  1.00  0.00     0.033 C  
HETATM    2  C   UNL     1     -13.466  10.893  70.730  1.00  0.00     0.460 C  
HETATM    3  C   UNL     1     -14.404  12.095  70.621  1.00  0.00     5.158 C  
ENDROOT
BRANCH   2   4
HETATM    4  N   UNL     1     -12.039  11.286  71.292  1.00  0.00    -0.164 N  
HETATM    5  C   UNL     1     -11.858  10.671  72.692  1.00  0.00     3.613 C  
BRANCH   4   6
HETATM    6  C   UNL     1     -10.935  10.651  70.358  1.00  0.00    -0.086 C  
BRANCH   6   7
HETATM    7  C   UNL     1     -11.391   9.523  69.425  1.00  0.00     0.054 C  
BRANCH   7   8
HETATM    8  O   UNL     1     -11.356   9.984  68.063  1.00  0.00    -0.203 OA 
BRANCH   8   9
HETATM    9  C   UNL     1     -10.533   9.300  67.201  1.00  0.00    -0.249 C  
HETATM   10  O   UNL     1     -10.443   9.626  66.020  1.00  0.00    -0.157 OA 
BRANCH   9  11
HETATM   11  C   UNL     1      -9.750   8.162  67.879  1.00  0.00    -0.191 C  
HETATM   12  C   UNL     1      -9.804   6.862  67.095  1.00  0.00    -0.214 A  
HETATM   13  C   UNL     1     -11.030   6.211  66.863  1.00  0.00    -0.384 A  
HETATM   14  C   UNL     1     -11.101   5.124  65.992  1.00  0.00     0.127 A  
HETATM   15  C   UNL     1      -9.944   4.643  65.385  1.00  0.00    -0.167 A  
HETATM   16  C   UNL     1      -8.714   5.235  65.671  1.00  0.00    -0.146 A  
HETATM   17  C   UNL     1      -8.645   6.338  66.524  1.00  0.00    -0.128 A  
HETATM   18  O   UNL     1      -7.393   6.852  66.738  1.00  0.00    -0.074 OA 
HETATM   19  C   UNL     1      -7.249   7.893  67.621  1.00  0.00    -0.088 A  
HETATM   20  C   UNL     1      -5.931   8.253  67.922  1.00  0.00    -0.047 A  
HETATM   21  C   UNL     1      -5.672   9.316  68.783  1.00  0.00    -0.040 A  
HETATM   22  C   UNL     1      -6.732  10.019  69.347  1.00  0.00    -0.060 A  
HETATM   23  C   UNL     1      -8.049   9.648  69.064  1.00  0.00    -0.103 A  
HETATM   24  C   UNL     1      -8.325   8.581  68.190  1.00  0.00    -0.127 A  
ENDBRANCH   9  11
ENDBRANCH   8   9
ENDBRANCH   7   8
ENDBRANCH   6   7
ENDBRANCH   4   6
BRANCH   4  25
HETATM   25  C   UNL     1     -11.732  12.858  71.310  1.00  0.00     1.297 C  
HETATM   26  C   UNL     1     -11.711  13.510  69.928  1.00  0.00    -0.341 C  
HETATM   27  C   UNL     1     -12.716  13.644  72.196  1.00  0.00    -0.266 C  
ENDBRANCH   4  25
ENDBRANCH   2   4
TORSDOF 7
ENDMDL
MODEL      312
REMARK 921   NORMALIZED FREE ENERGY PREDICTED BY IDOCK:    8.18 KCAL/MOL
REMARK 922        TOTAL FREE ENERGY PREDICTED BY IDOCK:   10.35 KCAL/MOL
REMARK 923 INTER-LIGAND FREE ENERGY PREDICTED BY IDOCK:    7.28 KCAL/MOL
REMARK 924 INTRA-LIGAND FREE ENERGY PREDICTED BY IDOCK:    3.07 KCAL/MOL
REMARK 927      BINDING AFFINITY PREDICTED BY RF-SCORE:    0.00 PKD
ROOT
HETATM    1  C   UNL     1      -6.295   6.735  71.429  1.00  0.00    -0.042 C  
HETATM    2  C   UNL     1      -6.677   8.080  72.058  1.00  0.00    -0.067 C  
HETATM    3  C   UNL     1      -6.318   8.145  73.542  1.00  0.00    -0.108 C  
ENDROOT
BRANCH   2   4
HETATM    4  N   UNL     1      -6.187   9.357  71.260  1.00  0.00    -0.080 N  
HETATM    5  C   UNL     1      -5.142   8.931  70.213  1.00  0.00    -0.028 C  
BRANCH   4   6
HETATM    6  C   UNL     1      -7.415   9.962  70.472  1.00  0.00    -0.036 C  
BRANCH   6   7
HETATM    7  C   UNL     1      -7.278  11.413  69.995  1.00  0.00     0.573 C  
BRANCH   7   8
HETATM    8  O   UNL     1      -7.925  11.562  68.719  1.00  0.00    -0.145 OA 
BRANCH   8   9
HETATM    9  C   UNL     1      -8.520  10.441  68.193  1.00  0.00    -0.121 C  
HETATM   10  O   UNL     1      -9.198   9.696  68.896  1.00  0.00    -0.140 OA 
BRANCH   9  11
HETATM   11  C   UNL     1      -8.273  10.272  66.683  1.00  0.00    -0.125 C  
HETATM   12  C   UNL     1      -7.738   8.895  66.325  1.00  0.00    -0.098 A  
HETATM   13  C   UNL     1      -6.500   8.451  66.827  1.00  0.00    -0.056 A  
HETATM   14  C   UNL     1      -6.098   7.127  66.650  1.00  0.00    -0.038 A  
HETATM   15  C   UNL     1      -6.900   6.248  65.928  1.00  0.00    -0.057 A  
HETATM   16  C   UNL     1      -8.091   6.703  65.361  1.00  0.00    -0.129 A  
HETATM   17  C   UNL     1      -8.507   8.021  65.558  1.00  0.00    -0.144 A  
HETATM   18  O   UNL     1      -9.693   8.370  64.967  1.00  0.00     0.728 OA 
HETATM   19  C   UNL     1     -10.121   9.671  65.065  1.00  0.00     0.253 A  
HETATM   20  C   UNL     1     -11.244   9.997  64.298  1.00  0.00     3.671 A  
HETATM   21  C   UNL     1     -11.780  11.281  64.346  1.00  0.00     0.204 A  
HETATM   22  C   UNL     1     -11.190  12.242  65.161  1.00  0.00    -0.369 A  
HETATM   23  C   UNL     1     -10.056  11.924  65.913  1.00  0.00    -0.265 A  
HETATM   24  C   UNL     1      -9.508  10.629  65.879  1.00  0.00    -0.239 A  
ENDBRANCH   9  11
ENDBRANCH   8   9
ENDBRANCH   7   8
ENDBRANCH   6   7
ENDBRANCH   4   6
BRANCH   4  25
HETATM   25  C   UNL     1      -5.633  10.551  72.173  1.00  0.00     0.459 C  
HETATM   26  C   UNL     1      -5.501  11.888  71.445  1.00  0.00     0.115 C  
HETATM   27  C   UNL     1      -6.483  10.774  73.437  1.00  0.00     3.563 C  
ENDBRANCH   4  25
ENDBRANCH   2   4
TORSDOF 7
ENDMDL
MODEL      313
REMARK 921   NORMALIZED FREE ENERGY PREDICTED BY IDOCK:   13.50 KCAL/MOL
REMARK 922        TOTAL FREE ENERGY PREDICTED BY IDOCK:   17.84 KCAL/MOL
REMARK 923 INTER-LIGAND FREE ENERGY PREDICTED BY IDOCK:   15.82 KCAL/MOL
REMARK 924 INTRA-LIGAND FREE ENERGY PREDICTED BY IDOCK:    2.03 KCAL/MOL
REMARK 927      BINDING AFFINITY PREDICTED BY RF-SCORE:    0.00 PKD
ROOT
HETATM    1  C   UNL     1      -6.295   6.735  71.429  1.00  0.00    -0.042 C  
HETATM    2  C   UNL     1      -6.677   8.080  72.058  1.00  0.00    -0.067 C  
HETATM    3  C   UNL     1      -6.318   8.145  73.542  1.00  0.00    -0.108 C  
ENDROOT
BRANCH   2   4
HETATM    4  N   UNL     1      -6.187   9.357  71.260  1.00  0.00    -0.080 N  
HETATM    5  C   UNL     1      -5.142   8.931  70.213  1.00  0.00    -0.028 C  
BRANCH   4   6
HETATM    6  C   UNL     1      -7.415   9.962  70.472  1.00  0.00    -0.036 C  
BRANCH   6   7
HETATM    7  C   UNL     1      -7.278  11.413  69.995  1.00  0.00     0.573 C  
BRANCH   7   8
HETATM    8  O   UNL     1      -7.925  11.562  68.719  1.00  0.00    -0.145 OA 
BRANCH   8   9
HETATM    9  C   UNL     1      -9.231  11.989  68.735  1.00  0.00     0.069 C  
HETATM   10  O   UNL     1      -9.588  12.906  69.469  1.00  0.00     0.905 OA 
BRANCH   9  11
HETATM   11  C   UNL     1     -10.130  11.235  67.738  1.00  0.00    -0.199 C  
HETATM   12  C   UNL     1     -11.386  10.677  68.385  1.00  0.00    -0.348 A  
HETATM   13  C   UNL     1     -11.303   9.718  69.412  1.00  0.00    -0.090 A  
HETATM   14  C   UNL     1     -12.440   9.345  70.127  1.00  0.00     0.468 A  
HETATM   15  C   UNL     1     -13.679   9.884  69.792  1.00  0.00     2.050 A  
HETATM   16  C   UNL     1     -13.781  10.776  68.725  1.00  0.00     6.515 A  
HETATM   17  C   UNL     1     -12.640  11.169  68.024  1.00  0.00     2.072 A  
HETATM   18  O   UNL     1     -12.842  12.053  66.996  1.00  0.00     1.370 OA 
HETATM   19  C   UNL     1     -11.769  12.424  66.224  1.00  0.00    -0.395 A  
HETATM   20  C   UNL     1     -12.075  13.188  65.093  1.00  0.00    -0.463 A  
HETATM   21  C   UNL     1     -11.058  13.643  64.257  1.00  0.00    -0.332 A  
HETATM   22  C   UNL     1      -9.735  13.331  64.550  1.00  0.00     0.259 A  
HETATM   23  C   UNL     1      -9.430  12.550  65.669  1.00  0.00    -0.014 A  
HETATM   24  C   UNL     1     -10.445  12.090  66.525  1.00  0.00    -0.253 A  
ENDBRANCH   9  11
ENDBRANCH   8   9
ENDBRANCH   7   8
ENDBRANCH   6   7
ENDBRANCH   4   6
BRANCH   4  25
HETATM   25  C   UNL     1      -5.633  10.551  72.173  1.00  0.00     0.459 C  
HETATM   26  C   UNL     1      -5.501  11.888  71.445  1.00  0.00     0.115 C  
HETATM   27  C   UNL     1      -6.483  10.774  73.437  1.00  0.00     3.563 C  
ENDBRANCH   4  25
ENDBRANCH   2   4
TORSDOF 7
ENDMDL
MODEL      314
REMARK 921   NORMALIZED FREE ENERGY PREDICTED BY IDOCK:   25.97 KCAL/MOL
REMARK 922        TOTAL FREE ENERGY PREDICTED BY IDOCK:   35.42 KCAL/MOL
REMARK 923 INTER-LIGAND FREE ENERGY PREDICTED BY IDOCK:   32.02 KCAL/MOL
REMARK 924 INTRA-LIGAND FREE ENERGY PREDICTED BY IDOCK:    3.40 KCAL/MOL
REMARK 927      BINDING AFFINITY PREDICTED BY RF-SCORE:    0.00 PKD
ROOT
HETATM    1  C   UNL     1     -14.089   9.897  71.600  1.00  0.00     0.134 C  
HETATM    2  C   UNL     1     -13.353  11.222  71.372  1.00  0.00    -0.011 C  
HETATM    3  C   UNL     1     -14.296  12.424  71.442  1.00  0.00     2.598 C  
ENDROOT
BRANCH   2   4
HETATM    4  N   UNL     1     -12.048  11.425  72.245  1.00  0.00     1.638 N  
HETATM    5  C   UNL     1     -12.178  10.614  73.547  1.00  0.00     9.202 C  
BRANCH   4   6
HETATM    6  C   UNL     1     -10.814  10.837  71.453  1.00  0.00     2.172 C  
BRANCH   6   7
HETATM    7  C   UNL     1     -10.898   9.361  71.048  1.00  0.00    -0.336 C  
BRANCH   7   8
HETATM    8  O   UNL     1     -11.313   9.262  69.675  1.00  0.00    -0.112 OA 
BRANCH   8   9
HETATM    9  C   UNL     1     -10.395   8.757  68.786  1.00  0.00    -0.213 C  
HETATM   10  O   UNL     1     -10.506   8.957  67.580  1.00  0.00    -0.252 OA 
BRANCH   9  11
HETATM   11  C   UNL     1      -9.251   7.984  69.466  1.00  0.00    -0.152 C  
HETATM   12  C   UNL     1      -8.026   8.848  69.719  1.00  0.00    -0.100 A  
HETATM   13  C   UNL     1      -7.325   9.434  68.648  1.00  0.00    -0.075 A  
HETATM   14  C   UNL     1      -6.320  10.370  68.887  1.00  0.00    -0.047 A  
HETATM   15  C   UNL     1      -5.969  10.694  70.195  1.00  0.00    -0.098 A  
HETATM   16  C   UNL     1      -6.607  10.059  71.261  1.00  0.00     0.309 A  
HETATM   17  C   UNL     1      -7.630   9.140  71.023  1.00  0.00    -0.096 A  
HETATM   18  O   UNL     1      -8.199   8.575  72.134  1.00  0.00    -0.195 OA 
HETATM   19  C   UNL     1      -9.162   7.611  71.966  1.00  0.00    -0.138 A  
HETATM   20  C   UNL     1      -9.574   6.958  73.131  1.00  0.00    -0.183 A  
HETATM   21  C   UNL     1     -10.568   5.984  73.078  1.00  0.00    -0.265 A  
HETATM   22  C   UNL     1     -11.149   5.661  71.855  1.00  0.00    -0.278 A  
HETATM   23  C   UNL     1     -10.724   6.299  70.687  1.00  0.00    -0.321 A  
HETATM   24  C   UNL     1      -9.727   7.289  70.727  1.00  0.00    -0.171 A  
ENDBRANCH   9  11
ENDBRANCH   8   9
ENDBRANCH   7   8
ENDBRANCH   6   7
ENDBRANCH   4   6
BRANCH   4  25
HETATM   25  C   UNL     1     -11.673  12.951  72.552  1.00  0.00     4.092 C  
HETATM   26  C   UNL     1     -10.715  13.137  73.729  1.00  0.00    12.281 C  
HETATM   27  C   UNL     1     -11.077  13.673  71.330  1.00  0.00     2.635 C  
ENDBRANCH   4  25
ENDBRANCH   2   4
TORSDOF 7
ENDMDL
