MODEL        1
REMARK 921   NORMALIZED FREE ENERGY PREDICTED BY IDOCK:   -6.64 KCAL/MOL
REMARK 922        TOTAL FREE ENERGY PREDICTED BY IDOCK:   -9.32 KCAL/MOL
REMARK 923 INTER-LIGAND FREE ENERGY PREDICTED BY IDOCK:   -8.58 KCAL/MOL
REMARK 924 INTRA-LIGAND FREE ENERGY PREDICTED BY IDOCK:   -0.74 KCAL/MOL
REMARK 927      BINDING AFFINITY PREDICTED BY RF-SCORE:    0.00 PKD
ROOT
HETATM    1  C   UNL     1      -9.328  15.613  65.751  1.00  0.00    -0.303 C  
HETATM    2  C   UNL     1     -10.683  16.029  65.199  1.00  0.00    -0.429 C  
ENDROOT
BRANCH   2   3
HETATM    3  C   UNL     1     -11.594  14.834  64.968  1.00  0.00    -0.378 C  
HETATM    4  O   UNL     1     -12.459  14.840  64.098  1.00  0.00    -0.758 OA 
BRANCH   3   5
HETATM    5  C   UNL     1     -11.415  13.611  65.815  1.00  0.00    -0.326 A  
HETATM    6  C   UNL     1     -11.882  13.513  67.144  1.00  0.00    -0.430 A  
HETATM    7  C   UNL     1     -11.614  12.390  67.972  1.00  0.00    -0.347 A  
HETATM    8  C   UNL     1     -10.893  11.342  67.358  1.00  0.00    -0.254 A  
HETATM    9  S   UNL     1     -10.340   9.887  68.201  1.00  0.00    -0.207 SA 
HETATM   10  C   UNL     1     -10.495  11.406  66.007  1.00  0.00    -0.305 A  
HETATM   11  C   UNL     1     -11.190  10.009  69.747  1.00  0.00    -0.258 A  
HETATM   12  C   UNL     1     -10.740  12.539  65.247  1.00  0.00    -0.318 A  
HETATM   13  C   UNL     1     -10.997   8.911  70.610  1.00  0.00    -0.287 A  
HETATM   14  C   UNL     1     -11.631   8.852  71.842  1.00  0.00    -0.442 A  
HETATM   15  C   UNL     1     -12.546   9.841  72.164  1.00  0.00    -0.367 A  
HETATM   16  C   UNL     1     -12.770  10.903  71.278  1.00  0.00    -0.542 A  
HETATM   17  C   UNL     1     -12.013  11.097  70.107  1.00  0.00    -0.365 A  
HETATM   18  N   UNL     1     -12.054  12.299  69.340  1.00  0.00    -0.226 NA 
BRANCH  18  19
HETATM   19  C   UNL     1     -12.634  13.547  69.958  1.00  0.00    -0.069 C  
BRANCH  19  20
HETATM   20  C   UNL     1     -11.692  14.519  70.766  1.00  0.00    -0.266 C  
HETATM   21  C   UNL     1     -11.583  15.865  70.032  1.00  0.00    -0.346 C  
BRANCH  20  22
HETATM   22  N   UNL     1     -12.130  14.734  72.192  1.00  0.00    -0.329 NA 
HETATM   23  C   UNL     1     -13.541  14.354  72.378  1.00  0.00    -0.480 C  
HETATM   24  C   UNL     1     -11.977  16.128  72.631  1.00  0.00    -0.551 C  
ENDBRANCH  20  22
ENDBRANCH  19  20
ENDBRANCH  18  19
ENDBRANCH   3   5
ENDBRANCH   2   3
TORSDOF 5
ENDMDL
MODEL        2
REMARK 921   NORMALIZED FREE ENERGY PREDICTED BY IDOCK:   -6.62 KCAL/MOL
REMARK 922        TOTAL FREE ENERGY PREDICTED BY IDOCK:   -9.29 KCAL/MOL
REMARK 923 INTER-LIGAND FREE ENERGY PREDICTED BY IDOCK:   -8.55 KCAL/MOL
REMARK 924 INTRA-LIGAND FREE ENERGY PREDICTED BY IDOCK:   -0.74 KCAL/MOL
REMARK 927      BINDING AFFINITY PREDICTED BY RF-SCORE:    0.00 PKD
ROOT
HETATM    1  C   UNL     1     -12.440  12.136  63.558  1.00  0.00    -0.666 C  
HETATM    2  C   UNL     1     -11.002  12.618  63.668  1.00  0.00    -0.464 C  
ENDROOT
BRANCH   2   3
HETATM    3  C   UNL     1     -10.245  11.903  64.775  1.00  0.00    -0.276 C  
HETATM    4  O   UNL     1      -9.177  11.337  64.566  1.00  0.00    -0.165 OA 
BRANCH   3   5
HETATM    5  C   UNL     1     -10.811  11.909  66.162  1.00  0.00    -0.334 A  
HETATM    6  C   UNL     1     -11.119  13.093  66.868  1.00  0.00    -0.308 A  
HETATM    7  C   UNL     1     -11.555  13.089  68.221  1.00  0.00    -0.340 A  
HETATM    8  C   UNL     1     -11.717  11.813  68.802  1.00  0.00    -0.329 A  
HETATM    9  S   UNL     1     -12.143  11.539  70.498  1.00  0.00    -0.331 SA 
HETATM   10  C   UNL     1     -11.485  10.628  68.073  1.00  0.00    -0.289 A  
HETATM   11  C   UNL     1     -12.589  13.163  71.036  1.00  0.00    -0.312 A  
HETATM   12  C   UNL     1     -11.019  10.678  66.769  1.00  0.00    -0.182 A  
HETATM   13  C   UNL     1     -13.064  13.233  72.361  1.00  0.00    -0.443 A  
HETATM   14  C   UNL     1     -13.484  14.436  72.907  1.00  0.00    -0.516 A  
HETATM   15  C   UNL     1     -13.534  15.553  72.088  1.00  0.00    -0.587 A  
HETATM   16  C   UNL     1     -13.107  15.464  70.756  1.00  0.00    -0.479 A  
HETATM   17  C   UNL     1     -12.502  14.311  70.221  1.00  0.00    -0.361 A  
HETATM   18  N   UNL     1     -11.836  14.293  68.959  1.00  0.00    -0.320 NA 
BRANCH  18  19
HETATM   19  C   UNL     1     -11.438  15.600  68.317  1.00  0.00    -0.350 C  
BRANCH  19  20
HETATM   20  C   UNL     1     -10.201  16.394  68.885  1.00  0.00    -0.258 C  
HETATM   21  C   UNL     1      -9.115  15.406  69.342  1.00  0.00    -0.258 C  
BRANCH  20  22
HETATM   22  N   UNL     1      -9.627  17.390  67.911  1.00  0.00    -0.261 NA 
HETATM   23  C   UNL     1      -8.369  17.964  68.416  1.00  0.00    -0.304 C  
HETATM   24  C   UNL     1     -10.545  18.501  67.623  1.00  0.00    -0.414 C  
ENDBRANCH  20  22
ENDBRANCH  19  20
ENDBRANCH  18  19
ENDBRANCH   3   5
ENDBRANCH   2   3
TORSDOF 5
ENDMDL
MODEL        3
REMARK 921   NORMALIZED FREE ENERGY PREDICTED BY IDOCK:   -6.59 KCAL/MOL
REMARK 922        TOTAL FREE ENERGY PREDICTED BY IDOCK:   -9.25 KCAL/MOL
REMARK 923 INTER-LIGAND FREE ENERGY PREDICTED BY IDOCK:   -8.52 KCAL/MOL
REMARK 924 INTRA-LIGAND FREE ENERGY PREDICTED BY IDOCK:   -0.73 KCAL/MOL
REMARK 927      BINDING AFFINITY PREDICTED BY RF-SCORE:    0.00 PKD
ROOT
HETATM    1  C   UNL     1     -12.317  15.724  74.438  1.00  0.00    -0.796 C  
HETATM    2  C   UNL     1     -13.217  15.766  73.212  1.00  0.00    -0.687 C  
ENDROOT
BRANCH   2   3
HETATM    3  C   UNL     1     -13.106  14.499  72.380  1.00  0.00    -0.402 C  
HETATM    4  O   UNL     1     -13.425  13.403  72.826  1.00  0.00    -0.607 OA 
BRANCH   3   5
HETATM    5  C   UNL     1     -12.611  14.599  70.968  1.00  0.00    -0.400 A  
HETATM    6  C   UNL     1     -12.457  13.480  70.120  1.00  0.00    -0.276 A  
HETATM    7  C   UNL     1     -11.887  13.573  68.822  1.00  0.00    -0.355 A  
HETATM    8  C   UNL     1     -11.535  14.876  68.406  1.00  0.00    -0.318 A  
HETATM    9  S   UNL     1     -10.712  15.246  66.883  1.00  0.00    -0.314 SA 
HETATM   10  C   UNL     1     -11.761  16.003  69.222  1.00  0.00    -0.302 A  
HETATM   11  C   UNL     1     -10.802  13.700  66.028  1.00  0.00    -0.275 A  
HETATM   12  C   UNL     1     -12.280  15.863  70.499  1.00  0.00    -0.314 A  
HETATM   13  C   UNL     1     -10.285  13.724  64.717  1.00  0.00    -0.362 A  
HETATM   14  C   UNL     1     -10.321  12.595  63.914  1.00  0.00    -0.405 A  
HETATM   15  C   UNL     1     -10.977  11.469  64.385  1.00  0.00    -0.390 A  
HETATM   16  C   UNL     1     -11.534  11.469  65.672  1.00  0.00    -0.074 A  
HETATM   17  C   UNL     1     -11.356  12.528  66.583  1.00  0.00    -0.334 A  
HETATM   18  N   UNL     1     -11.692  12.432  67.966  1.00  0.00    -0.348 NA 
BRANCH  18  19
HETATM   19  C   UNL     1     -11.910  11.070  68.578  1.00  0.00    -0.216 C  
BRANCH  19  20
HETATM   20  C   UNL     1     -10.678  10.278  69.159  1.00  0.00    -0.228 C  
HETATM   21  C   UNL     1      -9.370  10.936  68.690  1.00  0.00    -0.188 C  
BRANCH  20  22
HETATM   22  N   UNL     1     -10.694  10.158  70.661  1.00  0.00    -0.257 NA 
HETATM   23  C   UNL     1      -9.858   9.034  71.115  1.00  0.00    -0.300 C  
HETATM   24  C   UNL     1     -12.046   9.961  71.203  1.00  0.00    -0.374 C  
ENDBRANCH  20  22
ENDBRANCH  19  20
ENDBRANCH  18  19
ENDBRANCH   3   5
ENDBRANCH   2   3
TORSDOF 5
ENDMDL
MODEL        4
REMARK 921   NORMALIZED FREE ENERGY PREDICTED BY IDOCK:   -6.50 KCAL/MOL
REMARK 922        TOTAL FREE ENERGY PREDICTED BY IDOCK:   -9.14 KCAL/MOL
REMARK 923 INTER-LIGAND FREE ENERGY PREDICTED BY IDOCK:   -8.42 KCAL/MOL
REMARK 924 INTRA-LIGAND FREE ENERGY PREDICTED BY IDOCK:   -0.72 KCAL/MOL
REMARK 927      BINDING AFFINITY PREDICTED BY RF-SCORE:    0.00 PKD
ROOT
HETATM    1  C   UNL     1      -9.781   9.756  69.627  1.00  0.00    -0.242 C  
HETATM    2  C   UNL     1     -11.024  10.105  68.823  1.00  0.00    -0.264 C  
ENDROOT
BRANCH   2   3
HETATM    3  C   UNL     1     -10.698  10.393  67.367  1.00  0.00    -0.283 C  
HETATM    4  O   UNL     1     -10.532   9.491  66.552  1.00  0.00    -0.211 OA 
BRANCH   3   5
HETATM    5  C   UNL     1     -10.597  11.817  66.913  1.00  0.00    -0.270 A  
HETATM    6  C   UNL     1     -10.596  12.915  67.801  1.00  0.00    -0.231 A  
HETATM    7  C   UNL     1     -10.608  14.264  67.355  1.00  0.00    -0.276 A  
HETATM    8  C   UNL     1     -10.562  14.441  65.955  1.00  0.00    -0.302 A  
HETATM    9  S   UNL     1     -10.676  16.011  65.146  1.00  0.00    -0.333 SA 
HETATM   10  C   UNL     1     -10.485  13.346  65.070  1.00  0.00    -0.378 A  
HETATM   11  C   UNL     1     -10.517  17.138  66.500  1.00  0.00    -0.255 A  
HETATM   12  C   UNL     1     -10.519  12.045  65.546  1.00  0.00    -0.307 A  
HETATM   13  C   UNL     1     -10.488  18.498  66.130  1.00  0.00    -0.447 A  
HETATM   14  C   UNL     1     -10.331  19.493  67.082  1.00  0.00    -0.568 A  
HETATM   15  C   UNL     1     -10.092  19.122  68.396  1.00  0.00    -0.498 A  
HETATM   16  C   UNL     1     -10.072  17.765  68.747  1.00  0.00    -0.381 A  
HETATM   17  C   UNL     1     -10.411  16.736  67.847  1.00  0.00    -0.319 A  
HETATM   18  N   UNL     1     -10.644  15.389  68.255  1.00  0.00    -0.247 NA 
BRANCH  18  19
HETATM   19  C   UNL     1     -10.896  15.093  69.713  1.00  0.00    -0.284 C  
BRANCH  19  20
HETATM   20  C   UNL     1     -12.366  14.801  70.199  1.00  0.00    -0.330 C  
HETATM   21  C   UNL     1     -12.445  13.384  70.789  1.00  0.00    -0.418 C  
BRANCH  20  22
HETATM   22  N   UNL     1     -12.883  15.811  71.191  1.00  0.00    -0.478 NA 
HETATM   23  C   UNL     1     -11.836  16.198  72.151  1.00  0.00    -0.536 C  
HETATM   24  C   UNL     1     -14.037  15.319  71.957  1.00  0.00    -0.562 C  
ENDBRANCH  20  22
ENDBRANCH  19  20
ENDBRANCH  18  19
ENDBRANCH   3   5
ENDBRANCH   2   3
TORSDOF 5
ENDMDL
MODEL        5
REMARK 921   NORMALIZED FREE ENERGY PREDICTED BY IDOCK:   -6.46 KCAL/MOL
REMARK 922        TOTAL FREE ENERGY PREDICTED BY IDOCK:   -9.08 KCAL/MOL
REMARK 923 INTER-LIGAND FREE ENERGY PREDICTED BY IDOCK:   -8.39 KCAL/MOL
REMARK 924 INTRA-LIGAND FREE ENERGY PREDICTED BY IDOCK:   -0.69 KCAL/MOL
REMARK 927      BINDING AFFINITY PREDICTED BY RF-SCORE:    0.00 PKD
ROOT
HETATM    1  C   UNL     1     -10.710  19.649  65.756  1.00  0.00    -0.493 C  
HETATM    2  C   UNL     1      -9.505  19.319  66.623  1.00  0.00    -0.398 C  
ENDROOT
BRANCH   2   3
HETATM    3  C   UNL     1      -9.195  17.832  66.625  1.00  0.00    -0.269 C  
HETATM    4  O   UNL     1      -8.429  17.330  65.809  1.00  0.00    -0.532 OA 
BRANCH   3   5
HETATM    5  C   UNL     1      -9.828  16.960  67.667  1.00  0.00    -0.259 A  
HETATM    6  C   UNL     1     -10.051  15.577  67.488  1.00  0.00    -0.241 A  
HETATM    7  C   UNL     1     -10.747  14.782  68.438  1.00  0.00    -0.243 A  
HETATM    8  C   UNL     1     -11.156  15.456  69.610  1.00  0.00    -0.276 A  
HETATM    9  S   UNL     1     -12.130  14.722  70.892  1.00  0.00    -0.350 SA 
HETATM   10  C   UNL     1     -10.864  16.819  69.823  1.00  0.00    -0.156 A  
HETATM   11  C   UNL     1     -12.106  13.011  70.443  1.00  0.00    -0.314 A  
HETATM   12  C   UNL     1     -10.219  17.568  68.851  1.00  0.00    -0.353 A  
HETATM   13  C   UNL     1     -12.751  12.155  71.358  1.00  0.00    -0.368 A  
HETATM   14  C   UNL     1     -12.779  10.784  71.156  1.00  0.00    -0.532 A  
HETATM   15  C   UNL     1     -12.065  10.257  70.091  1.00  0.00    -0.279 A  
HETATM   16  C   UNL     1     -11.384  11.112  69.213  1.00  0.00    -0.349 A  
HETATM   17  C   UNL     1     -11.485  12.515  69.278  1.00  0.00    -0.293 A  
HETATM   18  N   UNL     1     -11.012  13.380  68.246  1.00  0.00    -0.249 NA 
BRANCH  18  19
HETATM   19  C   UNL     1     -10.717  12.806  66.882  1.00  0.00    -0.253 C  
BRANCH  19  20
HETATM   20  C   UNL     1     -11.901  12.579  65.867  1.00  0.00    -0.430 C  
HETATM   21  C   UNL     1     -12.658  13.899  65.649  1.00  0.00    -0.553 C  
BRANCH  20  22
HETATM   22  N   UNL     1     -11.459  12.004  64.546  1.00  0.00    -0.327 NA 
HETATM   23  C   UNL     1     -10.340  12.774  63.978  1.00  0.00    -0.368 C  
HETATM   24  C   UNL     1     -12.538  11.973  63.548  1.00  0.00    -0.507 C  
ENDBRANCH  20  22
ENDBRANCH  19  20
ENDBRANCH  18  19
ENDBRANCH   3   5
ENDBRANCH   2   3
TORSDOF 5
ENDMDL
MODEL        6
REMARK 921   NORMALIZED FREE ENERGY PREDICTED BY IDOCK:   -6.38 KCAL/MOL
REMARK 922        TOTAL FREE ENERGY PREDICTED BY IDOCK:   -8.98 KCAL/MOL
REMARK 923 INTER-LIGAND FREE ENERGY PREDICTED BY IDOCK:   -8.58 KCAL/MOL
REMARK 924 INTRA-LIGAND FREE ENERGY PREDICTED BY IDOCK:   -0.40 KCAL/MOL
REMARK 927      BINDING AFFINITY PREDICTED BY RF-SCORE:    0.00 PKD
ROOT
HETATM    1  C   UNL     1     -14.408   8.063  71.817  1.00  0.00    -0.583 C  
HETATM    2  C   UNL     1     -13.596   9.285  72.222  1.00  0.00    -0.544 C  
ENDROOT
BRANCH   2   3
HETATM    3  C   UNL     1     -12.131   9.147  71.840  1.00  0.00    -0.378 C  
HETATM    4  O   UNL     1     -11.355   8.456  72.492  1.00  0.00    -0.375 OA 
BRANCH   3   5
HETATM    5  C   UNL     1     -11.629   9.860  70.621  1.00  0.00    -0.413 A  
HETATM    6  C   UNL     1     -11.821  11.241  70.398  1.00  0.00    -0.443 A  
HETATM    7  C   UNL     1     -11.435  11.885  69.191  1.00  0.00    -0.296 A  
HETATM    8  C   UNL     1     -10.789  11.061  68.244  1.00  0.00    -0.215 A  
HETATM    9  S   UNL     1     -10.309  11.593  66.625  1.00  0.00    -0.229 SA 
HETATM   10  C   UNL     1     -10.527   9.700  68.499  1.00  0.00    -0.241 A  
HETATM   11  C   UNL     1     -10.547  13.343  66.724  1.00  0.00    -0.277 A  
HETATM   12  C   UNL     1     -10.959   9.101  69.672  1.00  0.00    -0.168 A  
HETATM   13  C   UNL     1     -10.154  14.054  65.573  1.00  0.00    -0.343 A  
HETATM   14  C   UNL     1     -10.249  15.436  65.520  1.00  0.00    -0.411 A  
HETATM   15  C   UNL     1     -10.635  16.118  66.664  1.00  0.00    -0.274 A  
HETATM   16  C   UNL     1     -10.976  15.405  67.821  1.00  0.00    -0.311 A  
HETATM   17  C   UNL     1     -11.071  14.001  67.856  1.00  0.00    -0.255 A  
HETATM   18  N   UNL     1     -11.661  13.285  68.941  1.00  0.00    -0.306 NA 
BRANCH  18  19
HETATM   19  C   UNL     1     -12.535  14.026  69.923  1.00  0.00    -0.246 C  
BRANCH  19  20
HETATM   20  C   UNL     1     -11.917  14.521  71.286  1.00  0.00    -0.333 C  
HETATM   21  C   UNL     1     -11.492  15.993  71.158  1.00  0.00    -0.470 C  
BRANCH  20  22
HETATM   22  N   UNL     1     -12.838  14.342  72.464  1.00  0.00    -0.366 NA 
HETATM   23  C   UNL     1     -13.723  13.180  72.276  1.00  0.00    -0.551 C  
HETATM   24  C   UNL     1     -13.684  15.518  72.710  1.00  0.00    -0.553 C  
ENDBRANCH  20  22
ENDBRANCH  19  20
ENDBRANCH  18  19
ENDBRANCH   3   5
ENDBRANCH   2   3
TORSDOF 5
ENDMDL
MODEL        7
REMARK 921   NORMALIZED FREE ENERGY PREDICTED BY IDOCK:   -6.32 KCAL/MOL
REMARK 922        TOTAL FREE ENERGY PREDICTED BY IDOCK:   -8.90 KCAL/MOL
REMARK 923 INTER-LIGAND FREE ENERGY PREDICTED BY IDOCK:   -8.30 KCAL/MOL
REMARK 924 INTRA-LIGAND FREE ENERGY PREDICTED BY IDOCK:   -0.61 KCAL/MOL
REMARK 927      BINDING AFFINITY PREDICTED BY RF-SCORE:    0.00 PKD
ROOT
HETATM    1  C   UNL     1     -12.269  16.208  73.320  1.00  0.00    -0.639 C  
HETATM    2  C   UNL     1     -13.155  14.984  73.146  1.00  0.00    -0.619 C  
ENDROOT
BRANCH   2   3
HETATM    3  C   UNL     1     -13.546  14.765  71.693  1.00  0.00    -0.405 C  
HETATM    4  O   UNL     1     -14.380  15.471  71.135  1.00  0.00    -0.516 OA 
BRANCH   3   5
HETATM    5  C   UNL     1     -12.878  13.670  70.919  1.00  0.00    -0.321 A  
HETATM    6  C   UNL     1     -12.402  13.833  69.599  1.00  0.00    -0.284 A  
HETATM    7  C   UNL     1     -11.867  12.760  68.837  1.00  0.00    -0.308 A  
HETATM    8  C   UNL     1     -11.789  11.520  69.508  1.00  0.00    -0.351 A  
HETATM    9  S   UNL     1     -11.264  10.009  68.749  1.00  0.00    -0.059 SA 
HETATM   10  C   UNL     1     -12.192  11.375  70.851  1.00  0.00    -0.447 A  
HETATM   11  C   UNL     1     -10.621  10.575  67.202  1.00  0.00    -0.264 A  
HETATM   12  C   UNL     1     -12.747  12.438  71.545  1.00  0.00    -0.333 A  
HETATM   13  C   UNL     1     -10.043   9.568  66.404  1.00  0.00    -0.328 A  
HETATM   14  C   UNL     1      -9.465   9.870  65.180  1.00  0.00    -0.338 A  
HETATM   15  C   UNL     1      -9.368  11.201  64.804  1.00  0.00    -0.209 A  
HETATM   16  C   UNL     1      -9.901  12.201  65.628  1.00  0.00    -0.256 A  
HETATM   17  C   UNL     1     -10.656  11.921  66.783  1.00  0.00    -0.229 A  
HETATM   18  N   UNL     1     -11.414  12.910  67.479  1.00  0.00    -0.314 NA 
BRANCH  18  19
HETATM   19  C   UNL     1     -11.728  14.216  66.791  1.00  0.00    -0.410 C  
BRANCH  19  20
HETATM   20  C   UNL     1     -10.608  15.319  66.679  1.00  0.00    -0.304 C  
HETATM   21  C   UNL     1     -10.613  15.920  65.264  1.00  0.00    -0.441 C  
BRANCH  20  22
HETATM   22  N   UNL     1     -10.731  16.408  67.712  1.00  0.00    -0.331 NA 
HETATM   23  C   UNL     1     -10.394  17.723  67.141  1.00  0.00    -0.353 C  
HETATM   24  C   UNL     1      -9.866  16.188  68.879  1.00  0.00    -0.239 C  
ENDBRANCH  20  22
ENDBRANCH  19  20
ENDBRANCH  18  19
ENDBRANCH   3   5
ENDBRANCH   2   3
TORSDOF 5
ENDMDL
MODEL        8
REMARK 921   NORMALIZED FREE ENERGY PREDICTED BY IDOCK:   -6.30 KCAL/MOL
REMARK 922        TOTAL FREE ENERGY PREDICTED BY IDOCK:   -8.88 KCAL/MOL
REMARK 923 INTER-LIGAND FREE ENERGY PREDICTED BY IDOCK:   -8.06 KCAL/MOL
REMARK 924 INTRA-LIGAND FREE ENERGY PREDICTED BY IDOCK:   -0.82 KCAL/MOL
REMARK 927      BINDING AFFINITY PREDICTED BY RF-SCORE:    0.00 PKD
ROOT
HETATM    1  C   UNL     1     -12.393  15.553  74.167  1.00  0.00    -0.806 C  
HETATM    2  C   UNL     1     -13.407  15.614  73.034  1.00  0.00    -0.668 C  
ENDROOT
BRANCH   2   3
HETATM    3  C   UNL     1     -13.558  14.275  72.332  1.00  0.00    -0.500 C  
HETATM    4  O   UNL     1     -14.285  13.392  72.774  1.00  0.00    -0.693 OA 
BRANCH   3   5
HETATM    5  C   UNL     1     -12.812  14.037  71.054  1.00  0.00    -0.410 A  
HETATM    6  C   UNL     1     -12.475  12.749  70.582  1.00  0.00    -0.328 A  
HETATM    7  C   UNL     1     -11.676  12.540  69.425  1.00  0.00    -0.322 A  
HETATM    8  C   UNL     1     -11.285  13.710  68.738  1.00  0.00    -0.279 A  
HETATM    9  S   UNL     1     -10.203  13.727  67.338  1.00  0.00    -0.254 SA 
HETATM   10  C   UNL     1     -11.688  14.992  69.165  1.00  0.00    -0.345 A  
HETATM   11  C   UNL     1     -10.094  12.009  66.933  1.00  0.00    -0.205 A  
HETATM   12  C   UNL     1     -12.432  15.154  70.323  1.00  0.00    -0.388 A  
HETATM   13  C   UNL     1      -9.342  11.726  65.774  1.00  0.00    -0.197 A  
HETATM   14  C   UNL     1      -9.200  10.426  65.315  1.00  0.00    -0.240 A  
HETATM   15  C   UNL     1      -9.904   9.418  65.954  1.00  0.00    -0.362 A  
HETATM   16  C   UNL     1     -10.690   9.715  67.076  1.00  0.00    -0.225 A  
HETATM   17  C   UNL     1     -10.711  10.986  67.682  1.00  0.00    -0.238 A  
HETATM   18  N   UNL     1     -11.296  11.232  68.959  1.00  0.00    -0.250 NA 
BRANCH  18  19
HETATM   19  C   UNL     1     -11.590  10.066  69.871  1.00  0.00    -0.175 C  
BRANCH  19  20
HETATM   20  C   UNL     1     -10.495   9.597  70.903  1.00  0.00    -0.289 C  
HETATM   21  C   UNL     1     -11.168   8.870  72.079  1.00  0.00    -0.422 C  
BRANCH  20  22
HETATM   22  N   UNL     1      -9.426   8.728  70.292  1.00  0.00    -0.166 NA 
HETATM   23  C   UNL     1      -9.145   7.557  71.139  1.00  0.00    -0.147 C  
HETATM   24  C   UNL     1      -8.161   9.445  70.080  1.00  0.00    -0.152 C  
ENDBRANCH  20  22
ENDBRANCH  19  20
ENDBRANCH  18  19
ENDBRANCH   3   5
ENDBRANCH   2   3
TORSDOF 5
ENDMDL
MODEL        9
REMARK 921   NORMALIZED FREE ENERGY PREDICTED BY IDOCK:   -6.28 KCAL/MOL
REMARK 922        TOTAL FREE ENERGY PREDICTED BY IDOCK:   -8.85 KCAL/MOL
REMARK 923 INTER-LIGAND FREE ENERGY PREDICTED BY IDOCK:   -8.15 KCAL/MOL
REMARK 924 INTRA-LIGAND FREE ENERGY PREDICTED BY IDOCK:   -0.71 KCAL/MOL
REMARK 927      BINDING AFFINITY PREDICTED BY RF-SCORE:    0.00 PKD
ROOT
HETATM    1  C   UNL     1     -12.967  15.853  73.559  1.00  0.00    -0.707 C  
HETATM    2  C   UNL     1     -13.930  15.379  72.481  1.00  0.00    -0.640 C  
ENDROOT
BRANCH   2   3
HETATM    3  C   UNL     1     -13.221  15.100  71.166  1.00  0.00    -0.469 C  
HETATM    4  O   UNL     1     -13.029  15.982  70.336  1.00  0.00    -0.283 OA 
BRANCH   3   5
HETATM    5  C   UNL     1     -12.725  13.713  70.888  1.00  0.00    -0.382 A  
HETATM    6  C   UNL     1     -12.070  13.350  69.691  1.00  0.00    -0.349 A  
HETATM    7  C   UNL     1     -11.700  12.011  69.394  1.00  0.00    -0.340 A  
HETATM    8  C   UNL     1     -11.979  11.066  70.405  1.00  0.00    -0.368 A  
HETATM    9  S   UNL     1     -11.717   9.323  70.239  1.00  0.00     0.039 SA 
HETATM   10  C   UNL     1     -12.562  11.441  71.633  1.00  0.00    -0.338 A  
HETATM   11  C   UNL     1     -10.783   9.230  68.739  1.00  0.00    -0.154 A  
HETATM   12  C   UNL     1     -12.946  12.752  71.865  1.00  0.00    -0.400 A  
HETATM   13  C   UNL     1     -10.352   7.933  68.397  1.00  0.00    -0.235 A  
HETATM   14  C   UNL     1      -9.580   7.712  67.267  1.00  0.00    -0.201 A  
HETATM   15  C   UNL     1      -9.146   8.808  66.537  1.00  0.00    -0.203 A  
HETATM   16  C   UNL     1      -9.537  10.100  66.914  1.00  0.00    -0.219 A  
HETATM   17  C   UNL     1     -10.469  10.349  67.941  1.00  0.00    -0.209 A  
HETATM   18  N   UNL     1     -11.066  11.626  68.159  1.00  0.00    -0.224 NA 
BRANCH  18  19
HETATM   19  C   UNL     1     -10.998  12.668  67.069  1.00  0.00    -0.265 C  
BRANCH  19  20
HETATM   20  C   UNL     1     -12.068  12.646  65.913  1.00  0.00    -0.396 C  
HETATM   21  C   UNL     1     -12.571  14.075  65.645  1.00  0.00    -0.542 C  
BRANCH  20  22
HETATM   22  N   UNL     1     -11.564  12.021  64.638  1.00  0.00    -0.320 NA 
HETATM   23  C   UNL     1     -10.317  12.661  64.188  1.00  0.00    -0.387 C  
HETATM   24  C   UNL     1     -12.535  12.104  63.539  1.00  0.00    -0.555 C  
ENDBRANCH  20  22
ENDBRANCH  19  20
ENDBRANCH  18  19
ENDBRANCH   3   5
ENDBRANCH   2   3
TORSDOF 5
ENDMDL
MODEL       10
REMARK 921   NORMALIZED FREE ENERGY PREDICTED BY IDOCK:   -6.27 KCAL/MOL
REMARK 922        TOTAL FREE ENERGY PREDICTED BY IDOCK:   -8.84 KCAL/MOL
REMARK 923 INTER-LIGAND FREE ENERGY PREDICTED BY IDOCK:   -8.05 KCAL/MOL
REMARK 924 INTRA-LIGAND FREE ENERGY PREDICTED BY IDOCK:   -0.79 KCAL/MOL
REMARK 927      BINDING AFFINITY PREDICTED BY RF-SCORE:    0.00 PKD
ROOT
HETATM    1  C   UNL     1     -12.468   7.073  71.451  1.00  0.00    -0.426 C  
HETATM    2  C   UNL     1     -12.140   8.339  72.228  1.00  0.00    -0.439 C  
ENDROOT
BRANCH   2   3
HETATM    3  C   UNL     1     -13.234   9.386  72.099  1.00  0.00    -0.460 C  
HETATM    4  O   UNL     1     -14.351   9.215  72.575  1.00  0.00    -0.529 OA 
BRANCH   3   5
HETATM    5  C   UNL     1     -12.931  10.669  71.387  1.00  0.00    -0.545 A  
HETATM    6  C   UNL     1     -12.390  10.723  70.083  1.00  0.00    -0.401 A  
HETATM    7  C   UNL     1     -12.007  11.941  69.460  1.00  0.00    -0.292 A  
HETATM    8  C   UNL     1     -12.257  13.111  70.211  1.00  0.00    -0.306 A  
HETATM    9  S   UNL     1     -11.775  14.738  69.707  1.00  0.00    -0.330 SA 
HETATM   10  C   UNL     1     -12.869  13.063  71.480  1.00  0.00    -0.386 A  
HETATM   11  C   UNL     1     -11.280  14.476  68.029  1.00  0.00    -0.292 A  
HETATM   12  C   UNL     1     -13.188  11.850  72.069  1.00  0.00    -0.461 A  
HETATM   13  C   UNL     1     -10.917  15.647  67.335  1.00  0.00    -0.293 A  
HETATM   14  C   UNL     1     -10.542  15.600  66.001  1.00  0.00    -0.336 A  
HETATM   15  C   UNL     1     -10.637  14.391  65.329  1.00  0.00    -0.398 A  
HETATM   16  C   UNL     1     -11.048  13.240  66.015  1.00  0.00    -0.298 A  
HETATM   17  C   UNL     1     -11.257  13.210  67.407  1.00  0.00    -0.287 A  
HETATM   18  N   UNL     1     -11.421  12.001  68.146  1.00  0.00    -0.297 NA 
BRANCH  18  19
HETATM   19  C   UNL     1     -11.010  10.692  67.518  1.00  0.00    -0.310 C  
BRANCH  19  20
HETATM   20  C   UNL     1      -9.494  10.264  67.545  1.00  0.00    -0.152 C  
HETATM   21  C   UNL     1      -9.199   9.484  68.838  1.00  0.00    -0.145 C  
BRANCH  20  22
HETATM   22  N   UNL     1      -9.074   9.460  66.342  1.00  0.00    -0.153 NA 
HETATM   23  C   UNL     1      -9.755   9.930  65.124  1.00  0.00    -0.306 C  
HETATM   24  C   UNL     1      -9.353   8.025  66.489  1.00  0.00    -0.205 C  
ENDBRANCH  20  22
ENDBRANCH  19  20
ENDBRANCH  18  19
ENDBRANCH   3   5
ENDBRANCH   2   3
TORSDOF 5
ENDMDL
MODEL       11
REMARK 921   NORMALIZED FREE ENERGY PREDICTED BY IDOCK:   -6.21 KCAL/MOL
REMARK 922        TOTAL FREE ENERGY PREDICTED BY IDOCK:   -8.76 KCAL/MOL
REMARK 923 INTER-LIGAND FREE ENERGY PREDICTED BY IDOCK:   -8.01 KCAL/MOL
REMARK 924 INTRA-LIGAND FREE ENERGY PREDICTED BY IDOCK:   -0.75 KCAL/MOL
REMARK 927      BINDING AFFINITY PREDICTED BY RF-SCORE:    0.00 PKD
ROOT
HETATM    1  C   UNL     1     -12.863  16.073  73.571  1.00  0.00    -0.701 C  
HETATM    2  C   UNL     1     -13.927  15.555  72.615  1.00  0.00    -0.617 C  
ENDROOT
BRANCH   2   3
HETATM    3  C   UNL     1     -13.327  15.058  71.310  1.00  0.00    -0.438 C  
HETATM    4  O   UNL     1     -13.153  15.805  70.353  1.00  0.00    -0.399 OA 
BRANCH   3   5
HETATM    5  C   UNL     1     -12.919  13.620  71.200  1.00  0.00    -0.353 A  
HETATM    6  C   UNL     1     -12.080  13.129  70.175  1.00  0.00    -0.392 A  
HETATM    7  C   UNL     1     -11.787  11.747  70.019  1.00  0.00    -0.342 A  
HETATM    8  C   UNL     1     -12.345  10.894  70.996  1.00  0.00    -0.393 A  
HETATM    9  S   UNL     1     -12.220   9.129  70.964  1.00  0.00    -0.194 SA 
HETATM   10  C   UNL     1     -13.119  11.393  72.064  1.00  0.00    -0.423 A  
HETATM   11  C   UNL     1     -11.025   8.865  69.688  1.00  0.00    -0.123 A  
HETATM   12  C   UNL     1     -13.416  12.744  72.155  1.00  0.00    -0.591 A  
HETATM   13  C   UNL     1     -10.659   7.517  69.497  1.00  0.00    -0.239 A  
HETATM   14  C   UNL     1      -9.705   7.162  68.556  1.00  0.00    -0.143 A  
HETATM   15  C   UNL     1      -9.036   8.170  67.879  1.00  0.00    -0.136 A  
HETATM   16  C   UNL     1      -9.371   9.511  68.111  1.00  0.00    -0.141 A  
HETATM   17  C   UNL     1     -10.457   9.901  68.918  1.00  0.00    -0.211 A  
HETATM   18  N   UNL     1     -10.963  11.235  68.955  1.00  0.00    -0.222 NA 
BRANCH  18  19
HETATM   19  C   UNL     1     -10.586  12.196  67.855  1.00  0.00    -0.207 C  
BRANCH  19  20
HETATM   20  C   UNL     1     -11.600  12.459  66.678  1.00  0.00    -0.385 C  
HETATM   21  C   UNL     1     -11.822  13.971  66.512  1.00  0.00    -0.439 C  
BRANCH  20  22
HETATM   22  N   UNL     1     -11.174  11.845  65.369  1.00  0.00    -0.314 NA 
HETATM   23  C   UNL     1      -9.707  11.750  65.278  1.00  0.00    -0.211 C  
HETATM   24  C   UNL     1     -11.649  12.603  64.203  1.00  0.00    -0.394 C  
ENDBRANCH  20  22
ENDBRANCH  19  20
ENDBRANCH  18  19
ENDBRANCH   3   5
ENDBRANCH   2   3
TORSDOF 5
ENDMDL
MODEL       12
REMARK 921   NORMALIZED FREE ENERGY PREDICTED BY IDOCK:   -6.17 KCAL/MOL
REMARK 922        TOTAL FREE ENERGY PREDICTED BY IDOCK:   -8.71 KCAL/MOL
REMARK 923 INTER-LIGAND FREE ENERGY PREDICTED BY IDOCK:   -8.13 KCAL/MOL
REMARK 924 INTRA-LIGAND FREE ENERGY PREDICTED BY IDOCK:   -0.58 KCAL/MOL
REMARK 927      BINDING AFFINITY PREDICTED BY RF-SCORE:    0.00 PKD
ROOT
HETATM    1  C   UNL     1     -10.698   8.647  72.097  1.00  0.00    -0.417 C  
HETATM    2  C   UNL     1     -11.936   8.674  71.213  1.00  0.00    -0.339 C  
ENDROOT
BRANCH   2   3
HETATM    3  C   UNL     1     -12.943   9.715  71.675  1.00  0.00    -0.407 C  
HETATM    4  O   UNL     1     -13.886   9.424  72.403  1.00  0.00    -0.451 OA 
BRANCH   3   5
HETATM    5  C   UNL     1     -12.763  11.139  71.245  1.00  0.00    -0.531 A  
HETATM    6  C   UNL     1     -12.013  11.517  70.110  1.00  0.00    -0.452 A  
HETATM    7  C   UNL     1     -11.761  12.874  69.772  1.00  0.00    -0.281 A  
HETATM    8  C   UNL     1     -12.361  13.831  70.619  1.00  0.00    -0.375 A  
HETATM    9  S   UNL     1     -12.113  15.578  70.479  1.00  0.00    -0.405 SA 
HETATM   10  C   UNL     1     -13.175  13.455  71.707  1.00  0.00    -0.495 A  
HETATM   11  C   UNL     1     -11.279  15.711  68.925  1.00  0.00    -0.311 A  
HETATM   12  C   UNL     1     -13.360  12.119  72.026  1.00  0.00    -0.470 A  
HETATM   13  C   UNL     1     -11.024  17.033  68.508  1.00  0.00    -0.247 A  
HETATM   14  C   UNL     1     -10.409  17.292  67.293  1.00  0.00    -0.331 A  
HETATM   15  C   UNL     1     -10.148  16.229  66.443  1.00  0.00    -0.318 A  
HETATM   16  C   UNL     1     -10.451  14.921  66.844  1.00  0.00    -0.280 A  
HETATM   17  C   UNL     1     -10.902  14.602  68.140  1.00  0.00    -0.252 A  
HETATM   18  N   UNL     1     -10.966  13.267  68.637  1.00  0.00    -0.256 NA 
BRANCH  18  19
HETATM   19  C   UNL     1     -10.206  12.177  67.922  1.00  0.00    -0.198 C  
BRANCH  19  20
HETATM   20  C   UNL     1     -10.992  11.158  67.011  1.00  0.00    -0.289 C  
HETATM   21  C   UNL     1     -10.891  11.594  65.540  1.00  0.00    -0.334 C  
BRANCH  20  22
HETATM   22  N   UNL     1     -10.531   9.732  67.167  1.00  0.00    -0.254 NA 
HETATM   23  C   UNL     1      -9.650   9.583  68.338  1.00  0.00    -0.142 C  
HETATM   24  C   UNL     1      -9.804   9.236  65.990  1.00  0.00    -0.293 C  
ENDBRANCH  20  22
ENDBRANCH  19  20
ENDBRANCH  18  19
ENDBRANCH   3   5
ENDBRANCH   2   3
TORSDOF 5
ENDMDL
MODEL       13
REMARK 921   NORMALIZED FREE ENERGY PREDICTED BY IDOCK:   -6.07 KCAL/MOL
REMARK 922        TOTAL FREE ENERGY PREDICTED BY IDOCK:   -8.59 KCAL/MOL
REMARK 923 INTER-LIGAND FREE ENERGY PREDICTED BY IDOCK:   -7.86 KCAL/MOL
REMARK 924 INTRA-LIGAND FREE ENERGY PREDICTED BY IDOCK:   -0.73 KCAL/MOL
REMARK 927      BINDING AFFINITY PREDICTED BY RF-SCORE:    0.00 PKD
ROOT
HETATM    1  C   UNL     1     -11.955  14.649  64.387  1.00  0.00    -0.454 C  
HETATM    2  C   UNL     1     -12.036  13.285  63.718  1.00  0.00    -0.546 C  
ENDROOT
BRANCH   2   3
HETATM    3  C   UNL     1     -10.787  12.455  63.965  1.00  0.00    -0.397 C  
HETATM    4  O   UNL     1      -9.813  12.515  63.222  1.00  0.00    -0.292 OA 
BRANCH   3   5
HETATM    5  C   UNL     1     -10.740  11.554  65.162  1.00  0.00    -0.348 A  
HETATM    6  C   UNL     1     -11.352  11.870  66.395  1.00  0.00    -0.400 A  
HETATM    7  C   UNL     1     -11.212  11.059  67.553  1.00  0.00    -0.302 A  
HETATM    8  C   UNL     1     -10.461   9.876  67.378  1.00  0.00    -0.267 A  
HETATM    9  S   UNL     1     -10.050   8.756  68.685  1.00  0.00    -0.192 SA 
HETATM   10  C   UNL     1      -9.915   9.521  66.127  1.00  0.00    -0.342 A  
HETATM   11  C   UNL     1     -11.059   9.346  70.011  1.00  0.00    -0.221 A  
HETATM   12  C   UNL     1     -10.041  10.362  65.033  1.00  0.00    -0.379 A  
HETATM   13  C   UNL     1     -10.997   8.571  71.186  1.00  0.00    -0.306 A  
HETATM   14  C   UNL     1     -11.763   8.892  72.296  1.00  0.00    -0.351 A  
HETATM   15  C   UNL     1     -12.677   9.929  72.192  1.00  0.00    -0.387 A  
HETATM   16  C   UNL     1     -12.769  10.664  71.002  1.00  0.00    -0.512 A  
HETATM   17  C   UNL     1     -11.882  10.488  69.922  1.00  0.00    -0.282 A  
HETATM   18  N   UNL     1     -11.802  11.395  68.823  1.00  0.00    -0.399 NA 
BRANCH  18  19
HETATM   19  C   UNL     1     -12.407  12.770  68.957  1.00  0.00     0.187 C  
BRANCH  19  20
HETATM   20  C   UNL     1     -11.539  13.941  69.557  1.00  0.00    -0.301 C  
HETATM   21  C   UNL     1     -11.641  15.179  68.651  1.00  0.00    -0.358 C  
BRANCH  20  22
HETATM   22  N   UNL     1     -11.906  14.297  70.974  1.00  0.00    -0.291 NA 
HETATM   23  C   UNL     1     -13.364  14.250  71.173  1.00  0.00    -0.299 C  
HETATM   24  C   UNL     1     -11.441  15.636  71.364  1.00  0.00    -0.421 C  
ENDBRANCH  20  22
ENDBRANCH  19  20
ENDBRANCH  18  19
ENDBRANCH   3   5
ENDBRANCH   2   3
TORSDOF 5
ENDMDL
MODEL       14
REMARK 921   NORMALIZED FREE ENERGY PREDICTED BY IDOCK:   -6.06 KCAL/MOL
REMARK 922        TOTAL FREE ENERGY PREDICTED BY IDOCK:   -8.57 KCAL/MOL
REMARK 923 INTER-LIGAND FREE ENERGY PREDICTED BY IDOCK:   -7.95 KCAL/MOL
REMARK 924 INTRA-LIGAND FREE ENERGY PREDICTED BY IDOCK:   -0.62 KCAL/MOL
REMARK 927      BINDING AFFINITY PREDICTED BY RF-SCORE:    0.00 PKD
ROOT
HETATM    1  C   UNL     1      -9.529   7.096  67.919  1.00  0.00    -0.135 C  
HETATM    2  C   UNL     1     -10.520   7.750  66.969  1.00  0.00    -0.419 C  
ENDROOT
BRANCH   2   3
HETATM    3  C   UNL     1      -9.986   9.053  66.396  1.00  0.00    -0.300 C  
HETATM    4  O   UNL     1      -9.268   9.075  65.402  1.00  0.00    -0.220 OA 
BRANCH   3   5
HETATM    5  C   UNL     1     -10.366  10.345  67.054  1.00  0.00    -0.295 A  
HETATM    6  C   UNL     1     -11.134  10.415  68.237  1.00  0.00    -0.338 A  
HETATM    7  C   UNL     1     -11.578  11.645  68.793  1.00  0.00    -0.313 A  
HETATM    8  C   UNL     1     -11.152  12.807  68.113  1.00  0.00    -0.256 A  
HETATM    9  S   UNL     1     -11.657  14.449  68.537  1.00  0.00    -0.332 SA 
HETATM   10  C   UNL     1     -10.321  12.740  66.976  1.00  0.00    -0.240 A  
HETATM   11  C   UNL     1     -12.458  14.201  70.094  1.00  0.00    -0.331 A  
HETATM   12  C   UNL     1      -9.946  11.517  66.442  1.00  0.00    -0.241 A  
HETATM   13  C   UNL     1     -12.898  15.383  70.722  1.00  0.00    -0.524 A  
HETATM   14  C   UNL     1     -13.512  15.346  71.965  1.00  0.00    -0.564 A  
HETATM   15  C   UNL     1     -13.586  14.132  72.630  1.00  0.00    -0.618 A  
HETATM   16  C   UNL     1     -13.100  12.968  72.019  1.00  0.00    -0.481 A  
HETATM   17  C   UNL     1     -12.642  12.935  70.688  1.00  0.00    -0.177 A  
HETATM   18  N   UNL     1     -12.392  11.723  69.979  1.00  0.00    -0.204 NA 
BRANCH  18  19
HETATM   19  C   UNL     1     -12.958  10.429  70.509  1.00  0.00    -0.212 C  
BRANCH  19  20
HETATM   20  C   UNL     1     -12.216   9.684  71.682  1.00  0.00    -0.402 C  
HETATM   21  C   UNL     1     -13.243   8.967  72.574  1.00  0.00    -0.467 C  
BRANCH  20  22
HETATM   22  N   UNL     1     -11.166   8.712  71.209  1.00  0.00    -0.260 NA 
HETATM   23  C   UNL     1     -11.741   7.376  70.981  1.00  0.00    -0.297 C  
HETATM   24  C   UNL     1     -10.053   8.568  72.159  1.00  0.00    -0.323 C  
ENDBRANCH  20  22
ENDBRANCH  19  20
ENDBRANCH  18  19
ENDBRANCH   3   5
ENDBRANCH   2   3
TORSDOF 5
ENDMDL
MODEL       15
REMARK 921   NORMALIZED FREE ENERGY PREDICTED BY IDOCK:   -6.04 KCAL/MOL
REMARK 922        TOTAL FREE ENERGY PREDICTED BY IDOCK:   -8.55 KCAL/MOL
REMARK 923 INTER-LIGAND FREE ENERGY PREDICTED BY IDOCK:   -7.67 KCAL/MOL
REMARK 924 INTRA-LIGAND FREE ENERGY PREDICTED BY IDOCK:   -0.88 KCAL/MOL
REMARK 927      BINDING AFFINITY PREDICTED BY RF-SCORE:    0.00 PKD
ROOT
HETATM    1  C   UNL     1     -12.308   6.917  71.468  1.00  0.00    -0.420 C  
HETATM    2  C   UNL     1     -11.944   8.154  72.276  1.00  0.00    -0.434 C  
ENDROOT
BRANCH   2   3
HETATM    3  C   UNL     1     -13.007   9.235  72.173  1.00  0.00    -0.424 C  
HETATM    4  O   UNL     1     -14.068   9.158  72.784  1.00  0.00    -0.518 OA 
BRANCH   3   5
HETATM    5  C   UNL     1     -12.742  10.435  71.315  1.00  0.00    -0.536 A  
HETATM    6  C   UNL     1     -12.300  10.348  69.977  1.00  0.00    -0.229 A  
HETATM    7  C   UNL     1     -11.949  11.490  69.208  1.00  0.00    -0.330 A  
HETATM    8  C   UNL     1     -12.127  12.734  69.853  1.00  0.00    -0.259 A  
HETATM    9  S   UNL     1     -11.664  14.293  69.155  1.00  0.00    -0.341 SA 
HETATM   10  C   UNL     1     -12.643  12.824  71.162  1.00  0.00    -0.365 A  
HETATM   11  C   UNL     1     -11.300  13.855  67.480  1.00  0.00    -0.318 A  
HETATM   12  C   UNL     1     -12.932  11.682  71.892  1.00  0.00    -0.442 A  
HETATM   13  C   UNL     1     -10.975  14.945  66.647  1.00  0.00    -0.325 A  
HETATM   14  C   UNL     1     -10.702  14.758  65.301  1.00  0.00    -0.406 A  
HETATM   15  C   UNL     1     -10.862  13.490  64.763  1.00  0.00    -0.392 A  
HETATM   16  C   UNL     1     -11.235  12.421  65.588  1.00  0.00    -0.360 A  
HETATM   17  C   UNL     1     -11.339  12.534  66.988  1.00  0.00    -0.328 A  
HETATM   18  N   UNL     1     -11.462  11.408  67.855  1.00  0.00    -0.407 NA 
BRANCH  18  19
HETATM   19  C   UNL     1     -11.117  10.035  67.333  1.00  0.00    -0.085 C  
BRANCH  19  20
HETATM   20  C   UNL     1      -9.626   9.529  67.418  1.00  0.00    -0.141 C  
HETATM   21  C   UNL     1      -9.027   9.442  66.004  1.00  0.00    -0.205 C  
BRANCH  20  22
HETATM   22  N   UNL     1      -8.753  10.376  68.305  1.00  0.00    -0.125 NA 
HETATM   23  C   UNL     1      -7.455  10.652  67.668  1.00  0.00    -0.091 C  
HETATM   24  C   UNL     1      -8.491   9.753  69.610  1.00  0.00    -0.185 C  
ENDBRANCH  20  22
ENDBRANCH  19  20
ENDBRANCH  18  19
ENDBRANCH   3   5
ENDBRANCH   2   3
TORSDOF 5
ENDMDL
MODEL       16
REMARK 921   NORMALIZED FREE ENERGY PREDICTED BY IDOCK:   -6.02 KCAL/MOL
REMARK 922        TOTAL FREE ENERGY PREDICTED BY IDOCK:   -8.52 KCAL/MOL
REMARK 923 INTER-LIGAND FREE ENERGY PREDICTED BY IDOCK:   -7.85 KCAL/MOL
REMARK 924 INTRA-LIGAND FREE ENERGY PREDICTED BY IDOCK:   -0.67 KCAL/MOL
REMARK 927      BINDING AFFINITY PREDICTED BY RF-SCORE:    0.00 PKD
ROOT
HETATM    1  C   UNL     1     -12.587  15.931  74.110  1.00  0.00    -0.741 C  
HETATM    2  C   UNL     1     -12.307  16.136  72.629  1.00  0.00    -0.574 C  
ENDROOT
BRANCH   2   3
HETATM    3  C   UNL     1     -13.221  15.295  71.754  1.00  0.00    -0.424 C  
HETATM    4  O   UNL     1     -14.316  15.704  71.382  1.00  0.00    -0.524 OA 
BRANCH   3   5
HETATM    5  C   UNL     1     -12.762  13.936  71.320  1.00  0.00    -0.444 A  
HETATM    6  C   UNL     1     -11.842  13.729  70.268  1.00  0.00    -0.342 A  
HETATM    7  C   UNL     1     -11.495  12.435  69.795  1.00  0.00    -0.149 A  
HETATM    8  C   UNL     1     -12.089  11.357  70.486  1.00  0.00    -0.394 A  
HETATM    9  S   UNL     1     -11.906   9.657  70.026  1.00  0.00     0.143 SA 
HETATM   10  C   UNL     1     -12.947  11.561  71.587  1.00  0.00    -0.499 A  
HETATM   11  C   UNL     1     -10.622   9.738  68.813  1.00  0.00    -0.219 A  
HETATM   12  C   UNL     1     -13.292  12.842  71.989  1.00  0.00    -0.565 A  
HETATM   13  C   UNL     1     -10.201   8.487  68.320  1.00  0.00    -0.244 A  
HETATM   14  C   UNL     1      -9.177   8.393  67.390  1.00  0.00    -0.163 A  
HETATM   15  C   UNL     1      -8.497   9.547  67.035  1.00  0.00    -0.128 A  
HETATM   16  C   UNL     1      -8.889  10.783  67.569  1.00  0.00    -0.128 A  
HETATM   17  C   UNL     1     -10.038  10.942  68.368  1.00  0.00    -0.183 A  
HETATM   18  N   UNL     1     -10.587  12.217  68.699  1.00  0.00    -0.227 NA 
BRANCH  18  19
HETATM   19  C   UNL     1     -10.169  13.428  67.902  1.00  0.00    -0.241 C  
BRANCH  19  20
HETATM   20  C   UNL     1     -10.832  13.695  66.497  1.00  0.00    -0.283 C  
HETATM   21  C   UNL     1     -12.032  12.753  66.302  1.00  0.00    -0.460 C  
BRANCH  20  22
HETATM   22  N   UNL     1     -11.252  15.127  66.293  1.00  0.00    -0.314 NA 
HETATM   23  C   UNL     1     -10.912  15.594  64.938  1.00  0.00    -0.431 C  
HETATM   24  C   UNL     1     -10.630  16.047  67.256  1.00  0.00    -0.313 C  
ENDBRANCH  20  22
ENDBRANCH  19  20
ENDBRANCH  18  19
ENDBRANCH   3   5
ENDBRANCH   2   3
TORSDOF 5
ENDMDL
MODEL       17
REMARK 921   NORMALIZED FREE ENERGY PREDICTED BY IDOCK:   -6.01 KCAL/MOL
REMARK 922        TOTAL FREE ENERGY PREDICTED BY IDOCK:   -8.50 KCAL/MOL
REMARK 923 INTER-LIGAND FREE ENERGY PREDICTED BY IDOCK:   -7.80 KCAL/MOL
REMARK 924 INTRA-LIGAND FREE ENERGY PREDICTED BY IDOCK:   -0.70 KCAL/MOL
REMARK 927      BINDING AFFINITY PREDICTED BY RF-SCORE:    0.00 PKD
ROOT
HETATM    1  C   UNL     1     -10.510  19.576  66.142  1.00  0.00    -0.613 C  
HETATM    2  C   UNL     1      -9.495  18.468  66.385  1.00  0.00    -0.304 C  
ENDROOT
BRANCH   2   3
HETATM    3  C   UNL     1     -10.105  17.088  66.203  1.00  0.00    -0.319 C  
HETATM    4  O   UNL     1     -10.206  16.566  65.098  1.00  0.00    -0.590 OA 
BRANCH   3   5
HETATM    5  C   UNL     1     -10.576  16.338  67.412  1.00  0.00    -0.307 A  
HETATM    6  C   UNL     1     -10.883  14.959  67.398  1.00  0.00    -0.304 A  
HETATM    7  C   UNL     1     -11.430  14.283  68.522  1.00  0.00    -0.298 A  
HETATM    8  C   UNL     1     -11.596  15.069  69.682  1.00  0.00    -0.304 A  
HETATM    9  S   UNL     1     -12.354  14.494  71.174  1.00  0.00    -0.367 SA 
HETATM   10  C   UNL     1     -11.217  16.427  69.720  1.00  0.00    -0.252 A  
HETATM   11  C   UNL     1     -12.478  12.755  70.881  1.00  0.00    -0.283 A  
HETATM   12  C   UNL     1     -10.726  17.059  68.588  1.00  0.00    -0.333 A  
HETATM   13  C   UNL     1     -12.983  12.011  71.966  1.00  0.00    -0.374 A  
HETATM   14  C   UNL     1     -13.101  10.632  71.894  1.00  0.00    -0.563 A  
HETATM   15  C   UNL     1     -12.610   9.983  70.772  1.00  0.00    -0.372 A  
HETATM   16  C   UNL     1     -12.063  10.726  69.717  1.00  0.00    -0.389 A  
HETATM   17  C   UNL     1     -12.095  12.134  69.674  1.00  0.00    -0.218 A  
HETATM   18  N   UNL     1     -11.780  12.886  68.503  1.00  0.00    -0.320 NA 
BRANCH  18  19
HETATM   19  C   UNL     1     -11.755  12.190  67.165  1.00  0.00    -0.302 C  
BRANCH  19  20
HETATM   20  C   UNL     1     -10.427  11.494  66.680  1.00  0.00    -0.238 C  
HETATM   21  C   UNL     1     -10.002  12.077  65.322  1.00  0.00    -0.273 C  
BRANCH  20  22
HETATM   22  N   UNL     1      -9.297  11.599  67.671  1.00  0.00    -0.174 NA 
HETATM   23  C   UNL     1      -8.192  12.411  67.136  1.00  0.00    -0.176 C  
HETATM   24  C   UNL     1      -8.749  10.289  68.052  1.00  0.00    -0.122 C  
ENDBRANCH  20  22
ENDBRANCH  19  20
ENDBRANCH  18  19
ENDBRANCH   3   5
ENDBRANCH   2   3
TORSDOF 5
ENDMDL
MODEL       18
REMARK 921   NORMALIZED FREE ENERGY PREDICTED BY IDOCK:   -5.99 KCAL/MOL
REMARK 922        TOTAL FREE ENERGY PREDICTED BY IDOCK:   -8.48 KCAL/MOL
REMARK 923 INTER-LIGAND FREE ENERGY PREDICTED BY IDOCK:   -8.02 KCAL/MOL
REMARK 924 INTRA-LIGAND FREE ENERGY PREDICTED BY IDOCK:   -0.46 KCAL/MOL
REMARK 927      BINDING AFFINITY PREDICTED BY RF-SCORE:    0.00 PKD
ROOT
HETATM    1  C   UNL     1     -10.327  11.416  63.747  1.00  0.00    -0.447 C  
HETATM    2  C   UNL     1      -9.665  10.188  64.356  1.00  0.00    -0.345 C  
ENDROOT
BRANCH   2   3
HETATM    3  C   UNL     1      -9.037  10.491  65.706  1.00  0.00    -0.179 C  
HETATM    4  O   UNL     1      -7.821  10.536  65.857  1.00  0.00    -0.143 OA 
BRANCH   3   5
HETATM    5  C   UNL     1      -9.931  10.760  66.878  1.00  0.00    -0.240 A  
HETATM    6  C   UNL     1     -10.185  12.057  67.376  1.00  0.00    -0.216 A  
HETATM    7  C   UNL     1     -10.948  12.293  68.552  1.00  0.00    -0.240 A  
HETATM    8  C   UNL     1     -11.489  11.142  69.165  1.00  0.00    -0.298 A  
HETATM    9  S   UNL     1     -12.381  11.155  70.693  1.00  0.00    -0.388 SA 
HETATM   10  C   UNL     1     -11.300   9.854  68.624  1.00  0.00    -0.048 A  
HETATM   11  C   UNL     1     -12.640  12.884  70.957  1.00  0.00    -0.287 A  
HETATM   12  C   UNL     1     -10.514   9.664  67.499  1.00  0.00    -0.321 A  
HETATM   13  C   UNL     1     -13.419  13.194  72.090  1.00  0.00    -0.653 A  
HETATM   14  C   UNL     1     -13.735  14.507  72.402  1.00  0.00    -0.583 A  
HETATM   15  C   UNL     1     -13.362  15.506  71.516  1.00  0.00    -0.593 A  
HETATM   16  C   UNL     1     -12.631  15.184  70.365  1.00  0.00    -0.405 A  
HETATM   17  C   UNL     1     -12.133  13.891  70.110  1.00  0.00    -0.349 A  
HETATM   18  N   UNL     1     -11.180  13.610  69.087  1.00  0.00    -0.263 NA 
BRANCH  18  19
HETATM   19  C   UNL     1     -10.395  14.746  68.479  1.00  0.00    -0.237 C  
BRANCH  19  20
HETATM   20  C   UNL     1     -11.048  15.611  67.335  1.00  0.00    -0.260 C  
HETATM   21  C   UNL     1     -10.274  16.930  67.176  1.00  0.00    -0.297 C  
BRANCH  20  22
HETATM   22  N   UNL     1     -11.135  14.893  66.013  1.00  0.00    -0.333 NA 
HETATM   23  C   UNL     1     -10.945  15.823  64.888  1.00  0.00    -0.427 C  
HETATM   24  C   UNL     1     -12.421  14.208  65.820  1.00  0.00    -0.466 C  
ENDBRANCH  20  22
ENDBRANCH  19  20
ENDBRANCH  18  19
ENDBRANCH   3   5
ENDBRANCH   2   3
TORSDOF 5
ENDMDL
MODEL       19
REMARK 921   NORMALIZED FREE ENERGY PREDICTED BY IDOCK:   -5.99 KCAL/MOL
REMARK 922        TOTAL FREE ENERGY PREDICTED BY IDOCK:   -8.47 KCAL/MOL
REMARK 923 INTER-LIGAND FREE ENERGY PREDICTED BY IDOCK:   -7.82 KCAL/MOL
REMARK 924 INTRA-LIGAND FREE ENERGY PREDICTED BY IDOCK:   -0.65 KCAL/MOL
REMARK 927      BINDING AFFINITY PREDICTED BY RF-SCORE:    0.00 PKD
ROOT
HETATM    1  C   UNL     1      -9.731  11.179  63.115  1.00  0.00    -0.401 C  
HETATM    2  C   UNL     1      -9.954  10.483  64.450  1.00  0.00    -0.410 C  
ENDROOT
BRANCH   2   3
HETATM    3  C   UNL     1      -9.108  11.090  65.557  1.00  0.00    -0.207 C  
HETATM    4  O   UNL     1      -7.928  10.790  65.706  1.00  0.00    -0.161 OA 
BRANCH   3   5
HETATM    5  C   UNL     1      -9.729  12.096  66.477  1.00  0.00    -0.234 A  
HETATM    6  C   UNL     1     -10.495  11.742  67.609  1.00  0.00    -0.223 A  
HETATM    7  C   UNL     1     -11.167  12.702  68.413  1.00  0.00    -0.279 A  
HETATM    8  C   UNL     1     -10.973  14.050  68.038  1.00  0.00    -0.251 A  
HETATM    9  S   UNL     1     -11.783  15.423  68.806  1.00  0.00    -0.327 SA 
HETATM   10  C   UNL     1     -10.145  14.408  66.955  1.00  0.00    -0.259 A  
HETATM   11  C   UNL     1     -12.522  14.671  70.226  1.00  0.00    -0.346 A  
HETATM   12  C   UNL     1      -9.541  13.437  66.171  1.00  0.00    -0.216 A  
HETATM   13  C   UNL     1     -13.181  15.569  71.090  1.00  0.00    -0.576 A  
HETATM   14  C   UNL     1     -13.776  15.127  72.261  1.00  0.00    -0.596 A  
HETATM   15  C   UNL     1     -13.616  13.799  72.625  1.00  0.00    -0.617 A  
HETATM   16  C   UNL     1     -12.915  12.922  71.785  1.00  0.00    -0.416 A  
HETATM   17  C   UNL     1     -12.460  13.289  70.504  1.00  0.00    -0.260 A  
HETATM   18  N   UNL     1     -11.981  12.346  69.546  1.00  0.00    -0.288 NA 
BRANCH  18  19
HETATM   19  C   UNL     1     -12.288  10.881  69.738  1.00  0.00    -0.256 C  
BRANCH  19  20
HETATM   20  C   UNL     1     -11.373  10.018  70.688  1.00  0.00    -0.348 C  
HETATM   21  C   UNL     1     -12.245   9.284  71.720  1.00  0.00    -0.457 C  
BRANCH  20  22
HETATM   22  N   UNL     1     -10.497   9.039  69.951  1.00  0.00    -0.208 NA 
HETATM   23  C   UNL     1     -10.848   7.650  70.291  1.00  0.00    -0.246 C  
HETATM   24  C   UNL     1      -9.067   9.226  70.238  1.00  0.00    -0.237 C  
ENDBRANCH  20  22
ENDBRANCH  19  20
ENDBRANCH  18  19
ENDBRANCH   3   5
ENDBRANCH   2   3
TORSDOF 5
ENDMDL
MODEL       20
REMARK 921   NORMALIZED FREE ENERGY PREDICTED BY IDOCK:   -5.99 KCAL/MOL
REMARK 922        TOTAL FREE ENERGY PREDICTED BY IDOCK:   -8.47 KCAL/MOL
REMARK 923 INTER-LIGAND FREE ENERGY PREDICTED BY IDOCK:   -7.73 KCAL/MOL
REMARK 924 INTRA-LIGAND FREE ENERGY PREDICTED BY IDOCK:   -0.74 KCAL/MOL
REMARK 927      BINDING AFFINITY PREDICTED BY RF-SCORE:    0.00 PKD
ROOT
HETATM    1  C   UNL     1     -10.584  19.535  65.859  1.00  0.00    -0.572 C  
HETATM    2  C   UNL     1     -10.502  19.743  67.364  1.00  0.00    -0.577 C  
ENDROOT
BRANCH   2   3
HETATM    3  C   UNL     1      -9.260  19.101  67.960  1.00  0.00    -0.313 C  
HETATM    4  O   UNL     1      -8.416  19.760  68.558  1.00  0.00    -0.316 OA 
BRANCH   3   5
HETATM    5  C   UNL     1      -9.075  17.620  67.830  1.00  0.00    -0.260 A  
HETATM    6  C   UNL     1     -10.046  16.679  68.238  1.00  0.00    -0.268 A  
HETATM    7  C   UNL     1      -9.817  15.277  68.208  1.00  0.00    -0.218 A  
HETATM    8  C   UNL     1      -8.567  14.877  67.688  1.00  0.00    -0.174 A  
HETATM    9  S   UNL     1      -7.997  13.202  67.644  1.00  0.00    -0.188 SA 
HETATM   10  C   UNL     1      -7.628  15.813  67.208  1.00  0.00    -0.244 A  
HETATM   11  C   UNL     1      -9.458  12.302  68.072  1.00  0.00    -0.206 A  
HETATM   12  C   UNL     1      -7.875  17.174  67.295  1.00  0.00    -0.200 A  
HETATM   13  C   UNL     1      -9.315  10.900  68.032  1.00  0.00    -0.160 A  
HETATM   14  C   UNL     1     -10.387  10.065  68.308  1.00  0.00    -0.224 A  
HETATM   15  C   UNL     1     -11.634  10.635  68.516  1.00  0.00    -0.279 A  
HETATM   16  C   UNL     1     -11.777  12.029  68.504  1.00  0.00    -0.387 A  
HETATM   17  C   UNL     1     -10.683  12.911  68.413  1.00  0.00    -0.255 A  
HETATM   18  N   UNL     1     -10.788  14.312  68.657  1.00  0.00    -0.246 NA 
BRANCH  18  19
HETATM   19  C   UNL     1     -12.001  14.845  69.380  1.00  0.00    -0.301 C  
BRANCH  19  20
HETATM   20  C   UNL     1     -12.133  14.623  70.935  1.00  0.00    -0.328 C  
HETATM   21  C   UNL     1     -11.708  15.899  71.679  1.00  0.00    -0.563 C  
BRANCH  20  22
HETATM   22  N   UNL     1     -13.513  14.200  71.366  1.00  0.00    -0.338 NA 
HETATM   23  C   UNL     1     -14.180  15.264  72.136  1.00  0.00    -0.571 C  
HETATM   24  C   UNL     1     -13.505  12.985  72.193  1.00  0.00    -0.542 C  
ENDBRANCH  20  22
ENDBRANCH  19  20
ENDBRANCH  18  19
ENDBRANCH   3   5
ENDBRANCH   2   3
TORSDOF 5
ENDMDL
MODEL       21
REMARK 921   NORMALIZED FREE ENERGY PREDICTED BY IDOCK:   -5.92 KCAL/MOL
REMARK 922        TOTAL FREE ENERGY PREDICTED BY IDOCK:   -8.39 KCAL/MOL
REMARK 923 INTER-LIGAND FREE ENERGY PREDICTED BY IDOCK:   -7.48 KCAL/MOL
REMARK 924 INTRA-LIGAND FREE ENERGY PREDICTED BY IDOCK:   -0.91 KCAL/MOL
REMARK 927      BINDING AFFINITY PREDICTED BY RF-SCORE:    0.00 PKD
ROOT
HETATM    1  C   UNL     1     -10.951   8.343  72.517  1.00  0.00    -0.388 C  
HETATM    2  C   UNL     1     -12.174   8.393  71.614  1.00  0.00    -0.358 C  
ENDROOT
BRANCH   2   3
HETATM    3  C   UNL     1     -13.127   9.510  72.007  1.00  0.00    -0.438 C  
HETATM    4  O   UNL     1     -14.073   9.315  72.763  1.00  0.00    -0.481 OA 
BRANCH   3   5
HETATM    5  C   UNL     1     -12.890  10.889  71.471  1.00  0.00    -0.560 A  
HETATM    6  C   UNL     1     -12.096  11.151  70.333  1.00  0.00    -0.475 A  
HETATM    7  C   UNL     1     -11.791  12.469  69.897  1.00  0.00    -0.303 A  
HETATM    8  C   UNL     1     -12.384  13.508  70.646  1.00  0.00    -0.358 A  
HETATM    9  S   UNL     1     -12.076  15.230  70.375  1.00  0.00    -0.378 SA 
HETATM   10  C   UNL     1     -13.240  13.245  71.734  1.00  0.00    -0.495 A  
HETATM   11  C   UNL     1     -11.194  15.213  68.843  1.00  0.00    -0.283 A  
HETATM   12  C   UNL     1     -13.477  11.945  72.153  1.00  0.00    -0.300 A  
HETATM   13  C   UNL     1     -10.884  16.489  68.330  1.00  0.00    -0.352 A  
HETATM   14  C   UNL     1     -10.227  16.631  67.118  1.00  0.00    -0.290 A  
HETATM   15  C   UNL     1      -9.976  15.496  66.364  1.00  0.00    -0.300 A  
HETATM   16  C   UNL     1     -10.332  14.234  66.858  1.00  0.00    -0.268 A  
HETATM   17  C   UNL     1     -10.830  14.034  68.160  1.00  0.00    -0.248 A  
HETATM   18  N   UNL     1     -10.951  12.745  68.760  1.00  0.00    -0.247 NA 
BRANCH  18  19
HETATM   19  C   UNL     1     -10.207  11.579  68.157  1.00  0.00    -0.194 C  
BRANCH  19  20
HETATM   20  C   UNL     1      -8.699  11.340  68.548  1.00  0.00    -0.156 C  
HETATM   21  C   UNL     1      -8.604  10.197  69.573  1.00  0.00    -0.177 C  
BRANCH  20  22
HETATM   22  N   UNL     1      -7.808  11.059  67.366  1.00  0.00    -0.115 NA 
HETATM   23  C   UNL     1      -6.780  12.102  67.214  1.00  0.00    -0.144 C  
HETATM   24  C   UNL     1      -8.551  10.971  66.100  1.00  0.00    -0.175 C  
ENDBRANCH  20  22
ENDBRANCH  19  20
ENDBRANCH  18  19
ENDBRANCH   3   5
ENDBRANCH   2   3
TORSDOF 5
ENDMDL
MODEL       22
REMARK 921   NORMALIZED FREE ENERGY PREDICTED BY IDOCK:   -5.81 KCAL/MOL
REMARK 922        TOTAL FREE ENERGY PREDICTED BY IDOCK:   -8.25 KCAL/MOL
REMARK 923 INTER-LIGAND FREE ENERGY PREDICTED BY IDOCK:   -7.68 KCAL/MOL
REMARK 924 INTRA-LIGAND FREE ENERGY PREDICTED BY IDOCK:   -0.57 KCAL/MOL
REMARK 927      BINDING AFFINITY PREDICTED BY RF-SCORE:    0.00 PKD
ROOT
HETATM    1  C   UNL     1     -11.696   6.879  72.324  1.00  0.00    -0.296 C  
HETATM    2  C   UNL     1     -11.351   8.361  72.318  1.00  0.00    -0.448 C  
ENDROOT
BRANCH   2   3
HETATM    3  C   UNL     1     -12.583   9.231  72.130  1.00  0.00    -0.371 C  
HETATM    4  O   UNL     1     -13.673   8.919  72.597  1.00  0.00    -0.444 OA 
BRANCH   3   5
HETATM    5  C   UNL     1     -12.453  10.517  71.370  1.00  0.00    -0.516 A  
HETATM    6  C   UNL     1     -11.690  10.645  70.189  1.00  0.00    -0.417 A  
HETATM    7  C   UNL     1     -11.488  11.891  69.537  1.00  0.00    -0.288 A  
HETATM    8  C   UNL     1     -12.151  12.994  70.116  1.00  0.00    -0.307 A  
HETATM    9  S   UNL     1     -11.976  14.666  69.561  1.00  0.00    -0.312 SA 
HETATM   10  C   UNL     1     -12.977  12.852  71.250  1.00  0.00    -0.317 A  
HETATM   11  C   UNL     1     -11.106  14.460  68.035  1.00  0.00    -0.272 A  
HETATM   12  C   UNL     1     -13.113  11.626  71.881  1.00  0.00    -0.490 A  
HETATM   13  C   UNL     1     -10.897  15.653  67.314  1.00  0.00    -0.298 A  
HETATM   14  C   UNL     1     -10.261  15.641  66.082  1.00  0.00    -0.327 A  
HETATM   15  C   UNL     1      -9.931  14.418  65.520  1.00  0.00    -0.359 A  
HETATM   16  C   UNL     1     -10.188  13.232  66.221  1.00  0.00    -0.296 A  
HETATM   17  C   UNL     1     -10.660  13.214  67.548  1.00  0.00    -0.235 A  
HETATM   18  N   UNL     1     -10.679  12.037  68.354  1.00  0.00    -0.220 NA 
BRANCH  18  19
HETATM   19  C   UNL     1      -9.854  10.844  67.935  1.00  0.00    -0.172 C  
BRANCH  19  20
HETATM   20  C   UNL     1     -10.543   9.667  67.147  1.00  0.00    -0.228 C  
HETATM   21  C   UNL     1      -9.892   9.519  65.762  1.00  0.00    -0.363 C  
BRANCH  20  22
HETATM   22  N   UNL     1     -10.514   8.352  67.883  1.00  0.00    -0.215 NA 
HETATM   23  C   UNL     1      -9.258   8.191  68.634  1.00  0.00    -0.143 C  
HETATM   24  C   UNL     1     -10.656   7.195  66.988  1.00  0.00    -0.343 C  
ENDBRANCH  20  22
ENDBRANCH  19  20
ENDBRANCH  18  19
ENDBRANCH   3   5
ENDBRANCH   2   3
TORSDOF 5
ENDMDL
MODEL       23
REMARK 921   NORMALIZED FREE ENERGY PREDICTED BY IDOCK:   -5.75 KCAL/MOL
REMARK 922        TOTAL FREE ENERGY PREDICTED BY IDOCK:   -8.17 KCAL/MOL
REMARK 923 INTER-LIGAND FREE ENERGY PREDICTED BY IDOCK:   -7.87 KCAL/MOL
REMARK 924 INTRA-LIGAND FREE ENERGY PREDICTED BY IDOCK:   -0.30 KCAL/MOL
REMARK 927      BINDING AFFINITY PREDICTED BY RF-SCORE:    0.00 PKD
ROOT
HETATM    1  C   UNL     1     -13.142   9.295  72.536  1.00  0.00    -0.416 C  
HETATM    2  C   UNL     1     -13.521  10.051  71.272  1.00  0.00    -0.331 C  
ENDROOT
BRANCH   2   3
HETATM    3  C   UNL     1     -12.299  10.514  70.496  1.00  0.00    -0.343 C  
HETATM    4  O   UNL     1     -11.488   9.719  70.034  1.00  0.00    -0.237 OA 
BRANCH   3   5
HETATM    5  C   UNL     1     -12.093  11.982  70.275  1.00  0.00    -0.395 A  
HETATM    6  C   UNL     1     -11.582  12.520  69.074  1.00  0.00    -0.365 A  
HETATM    7  C   UNL     1     -11.291  13.902  68.914  1.00  0.00    -0.282 A  
HETATM    8  C   UNL     1     -11.601  14.720  70.022  1.00  0.00    -0.286 A  
HETATM    9  S   UNL     1     -11.235  16.449  70.117  1.00  0.00    -0.123 SA 
HETATM   10  C   UNL     1     -12.184  14.194  71.194  1.00  0.00    -0.435 A  
HETATM   11  C   UNL     1     -10.757  16.818  68.455  1.00  0.00    -0.362 A  
HETATM   12  C   UNL     1     -12.412  12.833  71.324  1.00  0.00    -0.284 A  
HETATM   13  C   UNL     1     -10.484  18.179  68.212  1.00  0.00    -0.333 A  
HETATM   14  C   UNL     1     -10.132  18.622  66.946  1.00  0.00    -0.399 A  
HETATM   15  C   UNL     1     -10.162  17.718  65.896  1.00  0.00    -0.231 A  
HETATM   16  C   UNL     1     -10.484  16.375  66.137  1.00  0.00    -0.321 A  
HETATM   17  C   UNL     1     -10.664  15.851  67.432  1.00  0.00    -0.313 A  
HETATM   18  N   UNL     1     -10.734  14.453  67.705  1.00  0.00    -0.246 NA 
BRANCH  18  19
HETATM   19  C   UNL     1     -10.252  13.473  66.663  1.00  0.00    -0.275 C  
BRANCH  19  20
HETATM   20  C   UNL     1     -11.303  12.757  65.732  1.00  0.00    -0.320 C  
HETATM   21  C   UNL     1     -12.676  13.432  65.884  1.00  0.00    -0.317 C  
BRANCH  20  22
HETATM   22  N   UNL     1     -10.895  12.719  64.283  1.00  0.00    -0.364 NA 
HETATM   23  C   UNL     1     -12.063  12.859  63.397  1.00  0.00    -0.530 C  
HETATM   24  C   UNL     1     -10.200  11.476  63.918  1.00  0.00    -0.362 C  
ENDBRANCH  20  22
ENDBRANCH  19  20
ENDBRANCH  18  19
ENDBRANCH   3   5
ENDBRANCH   2   3
TORSDOF 5
ENDMDL
MODEL       24
REMARK 921   NORMALIZED FREE ENERGY PREDICTED BY IDOCK:   -5.72 KCAL/MOL
REMARK 922        TOTAL FREE ENERGY PREDICTED BY IDOCK:   -8.13 KCAL/MOL
REMARK 923 INTER-LIGAND FREE ENERGY PREDICTED BY IDOCK:   -7.44 KCAL/MOL
REMARK 924 INTRA-LIGAND FREE ENERGY PREDICTED BY IDOCK:   -0.69 KCAL/MOL
REMARK 927      BINDING AFFINITY PREDICTED BY RF-SCORE:    0.00 PKD
ROOT
HETATM    1  C   UNL     1     -11.837   8.399  72.450  1.00  0.00    -0.452 C  
HETATM    2  C   UNL     1     -10.793   9.134  71.622  1.00  0.00    -0.442 C  
ENDROOT
BRANCH   2   3
HETATM    3  C   UNL     1     -10.706   8.592  70.204  1.00  0.00    -0.235 C  
HETATM    4  O   UNL     1     -10.678   7.388  69.974  1.00  0.00    -0.237 OA 
BRANCH   3   5
HETATM    5  C   UNL     1     -10.675   9.558  69.059  1.00  0.00    -0.224 A  
HETATM    6  C   UNL     1     -10.739  10.959  69.225  1.00  0.00    -0.271 A  
HETATM    7  C   UNL     1     -10.816  11.859  68.129  1.00  0.00    -0.221 A  
HETATM    8  C   UNL     1     -10.767  11.264  66.850  1.00  0.00    -0.273 A  
HETATM    9  S   UNL     1     -10.953  12.152  65.330  1.00  0.00    -0.312 SA 
HETATM   10  C   UNL     1     -10.624   9.871  66.683  1.00  0.00    -0.186 A  
HETATM   11  C   UNL     1     -10.866  13.834  65.871  1.00  0.00    -0.283 A  
HETATM   12  C   UNL     1     -10.595   9.024  67.780  1.00  0.00    -0.278 A  
HETATM   13  C   UNL     1     -10.904  14.786  64.833  1.00  0.00    -0.433 A  
HETATM   14  C   UNL     1     -10.807  16.142  65.104  1.00  0.00    -0.376 A  
HETATM   15  C   UNL     1     -10.563  16.541  66.408  1.00  0.00    -0.221 A  
HETATM   16  C   UNL     1     -10.476  15.584  67.428  1.00  0.00    -0.281 A  
HETATM   17  C   UNL     1     -10.752  14.218  67.223  1.00  0.00    -0.277 A  
HETATM   18  N   UNL     1     -10.920  13.287  68.290  1.00  0.00    -0.246 NA 
BRANCH  18  19
HETATM   19  C   UNL     1     -11.170  13.803  69.686  1.00  0.00    -0.115 C  
BRANCH  19  20
HETATM   20  C   UNL     1     -12.644  13.850  70.240  1.00  0.00    -0.264 C  
HETATM   21  C   UNL     1     -12.815  12.801  71.351  1.00  0.00    -0.371 C  
BRANCH  20  22
HETATM   22  N   UNL     1     -13.057  15.211  70.737  1.00  0.00    -0.408 NA 
HETATM   23  C   UNL     1     -11.956  15.870  71.461  1.00  0.00    -0.471 C  
HETATM   24  C   UNL     1     -14.220  15.162  71.634  1.00  0.00    -0.567 C  
ENDBRANCH  20  22
ENDBRANCH  19  20
ENDBRANCH  18  19
ENDBRANCH   3   5
ENDBRANCH   2   3
TORSDOF 5
ENDMDL
MODEL       25
REMARK 921   NORMALIZED FREE ENERGY PREDICTED BY IDOCK:   -5.64 KCAL/MOL
REMARK 922        TOTAL FREE ENERGY PREDICTED BY IDOCK:   -8.02 KCAL/MOL
REMARK 923 INTER-LIGAND FREE ENERGY PREDICTED BY IDOCK:   -7.09 KCAL/MOL
REMARK 924 INTRA-LIGAND FREE ENERGY PREDICTED BY IDOCK:   -0.93 KCAL/MOL
REMARK 927      BINDING AFFINITY PREDICTED BY RF-SCORE:    0.00 PKD
ROOT
HETATM    1  C   UNL     1     -12.020  13.736  64.558  1.00  0.00    -0.458 C  
HETATM    2  C   UNL     1     -10.601  14.170  64.891  1.00  0.00    -0.449 C  
ENDROOT
BRANCH   2   3
HETATM    3  C   UNL     1     -10.499  14.765  66.285  1.00  0.00    -0.296 C  
HETATM    4  O   UNL     1     -10.112  15.913  66.471  1.00  0.00    -0.260 OA 
BRANCH   3   5
HETATM    5  C   UNL     1     -10.902  13.928  67.462  1.00  0.00    -0.274 A  
HETATM    6  C   UNL     1     -10.413  12.623  67.689  1.00  0.00    -0.226 A  
HETATM    7  C   UNL     1     -10.882  11.800  68.748  1.00  0.00    -0.227 A  
HETATM    8  C   UNL     1     -11.835  12.396  69.602  1.00  0.00    -0.311 A  
HETATM    9  S   UNL     1     -12.652  11.550  70.925  1.00  0.00    -0.283 SA 
HETATM   10  C   UNL     1     -12.265  13.726  69.423  1.00  0.00    -0.325 A  
HETATM   11  C   UNL     1     -11.734  10.042  71.024  1.00  0.00    -0.392 A  
HETATM   12  C   UNL     1     -11.814  14.480  68.351  1.00  0.00    -0.351 A  
HETATM   13  C   UNL     1     -12.122   9.187  72.075  1.00  0.00    -0.431 A  
HETATM   14  C   UNL     1     -11.466   7.986  72.298  1.00  0.00    -0.419 A  
HETATM   15  C   UNL     1     -10.347   7.691  71.535  1.00  0.00    -0.223 A  
HETATM   16  C   UNL     1      -9.937   8.571  70.525  1.00  0.00    -0.214 A  
HETATM   17  C   UNL     1     -10.683   9.704  70.146  1.00  0.00    -0.275 A  
HETATM   18  N   UNL     1     -10.416  10.455  68.963  1.00  0.00    -0.205 NA 
BRANCH  18  19
HETATM   19  C   UNL     1      -9.556   9.845  67.882  1.00  0.00    -0.138 C  
BRANCH  19  20
HETATM   20  C   UNL     1     -10.245   9.140  66.653  1.00  0.00    -0.258 C  
HETATM   21  C   UNL     1      -9.909   9.905  65.362  1.00  0.00    -0.384 C  
BRANCH  20  22
HETATM   22  N   UNL     1      -9.879   7.686  66.511  1.00  0.00    -0.203 NA 
HETATM   23  C   UNL     1     -10.828   6.825  67.237  1.00  0.00    -0.373 C  
HETATM   24  C   UNL     1      -8.529   7.386  67.006  1.00  0.00    -0.118 C  
ENDBRANCH  20  22
ENDBRANCH  19  20
ENDBRANCH  18  19
ENDBRANCH   3   5
ENDBRANCH   2   3
TORSDOF 5
ENDMDL
MODEL       26
REMARK 921   NORMALIZED FREE ENERGY PREDICTED BY IDOCK:   -5.60 KCAL/MOL
REMARK 922        TOTAL FREE ENERGY PREDICTED BY IDOCK:   -7.97 KCAL/MOL
REMARK 923 INTER-LIGAND FREE ENERGY PREDICTED BY IDOCK:   -7.45 KCAL/MOL
REMARK 924 INTRA-LIGAND FREE ENERGY PREDICTED BY IDOCK:   -0.52 KCAL/MOL
REMARK 927      BINDING AFFINITY PREDICTED BY RF-SCORE:    0.00 PKD
ROOT
HETATM    1  C   UNL     1     -10.765   5.934  70.643  1.00  0.00    -0.353 C  
HETATM    2  C   UNL     1     -11.979   6.700  71.146  1.00  0.00    -0.412 C  
ENDROOT
BRANCH   2   3
HETATM    3  C   UNL     1     -11.585   7.971  71.881  1.00  0.00    -0.298 C  
HETATM    4  O   UNL     1     -11.125   7.945  73.017  1.00  0.00    -0.402 OA 
BRANCH   3   5
HETATM    5  C   UNL     1     -11.746   9.289  71.187  1.00  0.00    -0.394 A  
HETATM    6  C   UNL     1     -11.122   9.600  69.959  1.00  0.00    -0.293 A  
HETATM    7  C   UNL     1     -11.195  10.888  69.364  1.00  0.00    -0.272 A  
HETATM    8  C   UNL     1     -11.986  11.831  70.055  1.00  0.00    -0.344 A  
HETATM    9  S   UNL     1     -12.150  13.529  69.583  1.00  0.00    -0.270 SA 
HETATM   10  C   UNL     1     -12.674  11.499  71.240  1.00  0.00    -0.469 A  
HETATM   11  C   UNL     1     -11.394  13.544  67.984  1.00  0.00    -0.285 A  
HETATM   12  C   UNL     1     -12.540  10.242  71.809  1.00  0.00    -0.488 A  
HETATM   13  C   UNL     1     -11.458  14.784  67.317  1.00  0.00    -0.378 A  
HETATM   14  C   UNL     1     -10.939  14.936  66.040  1.00  0.00    -0.334 A  
HETATM   15  C   UNL     1     -10.453  13.815  65.386  1.00  0.00    -0.342 A  
HETATM   16  C   UNL     1     -10.440  12.574  66.037  1.00  0.00    -0.282 A  
HETATM   17  C   UNL     1     -10.784  12.418  67.394  1.00  0.00    -0.229 A  
HETATM   18  N   UNL     1     -10.530  11.223  68.131  1.00  0.00    -0.182 NA 
BRANCH  18  19
HETATM   19  C   UNL     1      -9.551  10.214  67.583  1.00  0.00    -0.148 C  
BRANCH  19  20
HETATM   20  C   UNL     1     -10.040   9.168  66.510  1.00  0.00    -0.287 C  
HETATM   21  C   UNL     1      -9.447   9.520  65.135  1.00  0.00    -0.305 C  
BRANCH  20  22
HETATM   22  N   UNL     1      -9.717   7.741  66.870  1.00  0.00    -0.198 NA 
HETATM   23  C   UNL     1     -10.943   6.963  67.111  1.00  0.00    -0.357 C  
HETATM   24  C   UNL     1      -8.871   7.633  68.067  1.00  0.00    -0.127 C  
ENDBRANCH  20  22
ENDBRANCH  19  20
ENDBRANCH  18  19
ENDBRANCH   3   5
ENDBRANCH   2   3
TORSDOF 5
ENDMDL
MODEL       27
REMARK 921   NORMALIZED FREE ENERGY PREDICTED BY IDOCK:   -5.58 KCAL/MOL
REMARK 922        TOTAL FREE ENERGY PREDICTED BY IDOCK:   -7.94 KCAL/MOL
REMARK 923 INTER-LIGAND FREE ENERGY PREDICTED BY IDOCK:   -7.01 KCAL/MOL
REMARK 924 INTRA-LIGAND FREE ENERGY PREDICTED BY IDOCK:   -0.94 KCAL/MOL
REMARK 927      BINDING AFFINITY PREDICTED BY RF-SCORE:    0.00 PKD
ROOT
HETATM    1  C   UNL     1     -12.186  14.003  65.967  1.00  0.00    -0.484 C  
HETATM    2  C   UNL     1     -10.739  14.357  66.275  1.00  0.00    -0.307 C  
ENDROOT
BRANCH   2   3
HETATM    3  C   UNL     1     -10.497  14.515  67.767  1.00  0.00    -0.242 C  
HETATM    4  O   UNL     1      -9.951  15.511  68.231  1.00  0.00    -0.211 OA 
BRANCH   3   5
HETATM    5  C   UNL     1     -10.956  13.432  68.696  1.00  0.00    -0.288 A  
HETATM    6  C   UNL     1     -10.487  12.102  68.627  1.00  0.00    -0.237 A  
HETATM    7  C   UNL     1     -11.007  11.061  69.442  1.00  0.00    -0.248 A  
HETATM    8  C   UNL     1     -11.992  11.455  70.374  1.00  0.00    -0.374 A  
HETATM    9  S   UNL     1     -12.871  10.335  71.426  1.00  0.00    -0.476 SA 
HETATM   10  C   UNL     1     -12.404  12.798  70.497  1.00  0.00    -0.355 A  
HETATM   11  C   UNL     1     -11.969   8.831  71.203  1.00  0.00    -0.285 A  
HETATM   12  C   UNL     1     -11.901  13.775  69.653  1.00  0.00    -0.393 A  
HETATM   13  C   UNL     1     -12.409   7.759  72.005  1.00  0.00    -0.328 A  
HETATM   14  C   UNL     1     -11.773   6.528  71.964  1.00  0.00    -0.367 A  
HETATM   15  C   UNL     1     -10.624   6.401  71.198  1.00  0.00    -0.282 A  
HETATM   16  C   UNL     1     -10.164   7.488  70.441  1.00  0.00    -0.202 A  
HETATM   17  C   UNL     1     -10.884   8.691  70.312  1.00  0.00    -0.235 A  
HETATM   18  N   UNL     1     -10.561   9.695  69.351  1.00  0.00    -0.217 NA 
BRANCH  18  19
HETATM   19  C   UNL     1      -9.661   9.342  68.192  1.00  0.00    -0.142 C  
BRANCH  19  20
HETATM   20  C   UNL     1     -10.301   8.855  66.837  1.00  0.00    -0.262 C  
HETATM   21  C   UNL     1      -9.857   9.781  65.692  1.00  0.00    -0.371 C  
BRANCH  20  22
HETATM   22  N   UNL     1      -9.986   7.420  66.504  1.00  0.00    -0.170 NA 
HETATM   23  C   UNL     1     -10.984   6.507  67.084  1.00  0.00    -0.408 C  
HETATM   24  C   UNL     1      -8.660   7.002  66.982  1.00  0.00    -0.122 C  
ENDBRANCH  20  22
ENDBRANCH  19  20
ENDBRANCH  18  19
ENDBRANCH   3   5
ENDBRANCH   2   3
TORSDOF 5
ENDMDL
MODEL       28
REMARK 921   NORMALIZED FREE ENERGY PREDICTED BY IDOCK:   -5.58 KCAL/MOL
REMARK 922        TOTAL FREE ENERGY PREDICTED BY IDOCK:   -7.94 KCAL/MOL
REMARK 923 INTER-LIGAND FREE ENERGY PREDICTED BY IDOCK:   -7.56 KCAL/MOL
REMARK 924 INTRA-LIGAND FREE ENERGY PREDICTED BY IDOCK:   -0.38 KCAL/MOL
REMARK 927      BINDING AFFINITY PREDICTED BY RF-SCORE:    0.00 PKD
ROOT
HETATM    1  C   UNL     1     -11.766   8.465  72.187  1.00  0.00    -0.442 C  
HETATM    2  C   UNL     1     -11.267   9.056  70.876  1.00  0.00    -0.348 C  
ENDROOT
BRANCH   2   3
HETATM    3  C   UNL     1     -12.195  10.138  70.350  1.00  0.00    -0.218 C  
HETATM    4  O   UNL     1     -13.365  10.217  70.708  1.00  0.00    -0.361 OA 
BRANCH   3   5
HETATM    5  C   UNL     1     -11.657  11.148  69.382  1.00  0.00    -0.388 A  
HETATM    6  C   UNL     1     -11.862  12.538  69.519  1.00  0.00    -0.375 A  
HETATM    7  C   UNL     1     -11.438  13.477  68.540  1.00  0.00    -0.310 A  
HETATM    8  C   UNL     1     -10.742  12.933  67.438  1.00  0.00    -0.237 A  
HETATM    9  S   UNL     1     -10.207  13.872  66.037  1.00  0.00    -0.318 SA 
HETATM   10  C   UNL     1     -10.469  11.553  67.340  1.00  0.00    -0.240 A  
HETATM   11  C   UNL     1     -10.477  15.534  66.579  1.00  0.00    -0.300 A  
HETATM   12  C   UNL     1     -10.937  10.667  68.297  1.00  0.00    -0.314 A  
HETATM   13  C   UNL     1     -10.050  16.523  65.670  1.00  0.00    -0.278 A  
HETATM   14  C   UNL     1     -10.164  17.870  65.976  1.00  0.00    -0.297 A  
HETATM   15  C   UNL     1     -10.606  18.227  67.241  1.00  0.00    -0.406 A  
HETATM   16  C   UNL     1     -10.981  17.235  68.157  1.00  0.00    -0.193 A  
HETATM   17  C   UNL     1     -11.055  15.870  67.820  1.00  0.00    -0.288 A  
HETATM   18  N   UNL     1     -11.676  14.893  68.654  1.00  0.00    -0.331 NA 
BRANCH  18  19
HETATM   19  C   UNL     1     -12.600  15.346  69.758  1.00  0.00    -0.103 C  
BRANCH  19  20
HETATM   20  C   UNL     1     -12.193  15.090  71.259  1.00  0.00    -0.320 C  
HETATM   21  C   UNL     1     -11.350  16.268  71.776  1.00  0.00    -0.142 C  
BRANCH  20  22
HETATM   22  N   UNL     1     -13.370  14.850  72.168  1.00  0.00    -0.344 NA 
HETATM   23  C   UNL     1     -13.343  15.759  73.326  1.00  0.00    -0.549 C  
HETATM   24  C   UNL     1     -13.424  13.473  72.678  1.00  0.00    -0.462 C  
ENDBRANCH  20  22
ENDBRANCH  19  20
ENDBRANCH  18  19
ENDBRANCH   3   5
ENDBRANCH   2   3
TORSDOF 5
ENDMDL
MODEL       29
REMARK 921   NORMALIZED FREE ENERGY PREDICTED BY IDOCK:   -5.52 KCAL/MOL
REMARK 922        TOTAL FREE ENERGY PREDICTED BY IDOCK:   -7.87 KCAL/MOL
REMARK 923 INTER-LIGAND FREE ENERGY PREDICTED BY IDOCK:   -7.14 KCAL/MOL
REMARK 924 INTRA-LIGAND FREE ENERGY PREDICTED BY IDOCK:   -0.73 KCAL/MOL
REMARK 927      BINDING AFFINITY PREDICTED BY RF-SCORE:    0.00 PKD
ROOT
HETATM    1  C   UNL     1     -13.664  14.784  72.475  1.00  0.00    -0.572 C  
HETATM    2  C   UNL     1     -13.753  13.283  72.244  1.00  0.00    -0.686 C  
ENDROOT
BRANCH   2   3
HETATM    3  C   UNL     1     -12.800  12.818  71.154  1.00  0.00    -0.226 C  
HETATM    4  O   UNL     1     -12.324  13.597  70.336  1.00  0.00    -0.339 OA 
BRANCH   3   5
HETATM    5  C   UNL     1     -12.419  11.370  71.094  1.00  0.00    -0.465 A  
HETATM    6  C   UNL     1     -11.435  10.864  70.217  1.00  0.00    -0.391 A  
HETATM    7  C   UNL     1     -11.157   9.476  70.092  1.00  0.00    -0.255 A  
HETATM    8  C   UNL     1     -11.895   8.630  70.950  1.00  0.00    -0.225 A  
HETATM    9  S   UNL     1     -11.815   6.863  70.915  1.00  0.00    -0.380 SA 
HETATM   10  C   UNL     1     -12.822   9.142  71.881  1.00  0.00    -0.466 A  
HETATM   11  C   UNL     1     -10.431   6.575  69.852  1.00  0.00    -0.213 A  
HETATM   12  C   UNL     1     -13.093  10.500  71.940  1.00  0.00    -0.567 A  
HETATM   13  C   UNL     1     -10.075   5.219  69.706  1.00  0.00    -0.334 A  
HETATM   14  C   UNL     1      -8.988   4.845  68.932  1.00  0.00    -0.136 A  
HETATM   15  C   UNL     1      -8.187   5.839  68.391  1.00  0.00    -0.108 A  
HETATM   16  C   UNL     1      -8.519   7.187  68.582  1.00  0.00    -0.125 A  
HETATM   17  C   UNL     1      -9.714   7.601  69.202  1.00  0.00    -0.164 A  
HETATM   18  N   UNL     1     -10.182   8.949  69.173  1.00  0.00    -0.201 NA 
BRANCH  18  19
HETATM   19  C   UNL     1      -9.600   9.909  68.165  1.00  0.00    -0.139 C  
BRANCH  19  20
HETATM   20  C   UNL     1     -10.183   9.939  66.701  1.00  0.00    -0.226 C  
HETATM   21  C   UNL     1     -10.964  11.245  66.481  1.00  0.00    -0.303 C  
BRANCH  20  22
HETATM   22  N   UNL     1      -9.134   9.770  65.633  1.00  0.00    -0.164 NA 
HETATM   23  C   UNL     1      -7.884  10.455  66.000  1.00  0.00    -0.142 C  
HETATM   24  C   UNL     1      -9.564  10.286  64.325  1.00  0.00    -0.313 C  
ENDBRANCH  20  22
ENDBRANCH  19  20
ENDBRANCH  18  19
ENDBRANCH   3   5
ENDBRANCH   2   3
TORSDOF 5
ENDMDL
MODEL       30
REMARK 921   NORMALIZED FREE ENERGY PREDICTED BY IDOCK:   -5.51 KCAL/MOL
REMARK 922        TOTAL FREE ENERGY PREDICTED BY IDOCK:   -7.86 KCAL/MOL
REMARK 923 INTER-LIGAND FREE ENERGY PREDICTED BY IDOCK:   -7.15 KCAL/MOL
REMARK 924 INTRA-LIGAND FREE ENERGY PREDICTED BY IDOCK:   -0.71 KCAL/MOL
REMARK 927      BINDING AFFINITY PREDICTED BY RF-SCORE:    0.00 PKD
ROOT
HETATM    1  C   UNL     1     -10.692  19.240  66.951  1.00  0.00    -0.543 C  
HETATM    2  C   UNL     1     -10.185  18.139  67.870  1.00  0.00    -0.391 C  
ENDROOT
BRANCH   2   3
HETATM    3  C   UNL     1     -10.466  16.754  67.310  1.00  0.00    -0.310 C  
HETATM    4  O   UNL     1     -10.313  16.495  66.121  1.00  0.00    -0.319 OA 
BRANCH   3   5
HETATM    5  C   UNL     1     -10.924  15.674  68.241  1.00  0.00    -0.315 A  
HETATM    6  C   UNL     1     -10.593  14.311  68.069  1.00  0.00    -0.238 A  
HETATM    7  C   UNL     1     -11.119  13.283  68.897  1.00  0.00    -0.261 A  
HETATM    8  C   UNL     1     -11.956  13.718  69.947  1.00  0.00    -0.347 A  
HETATM    9  S   UNL     1     -12.820  12.632  71.047  1.00  0.00    -0.071 SA 
HETATM   10  C   UNL     1     -12.224  15.085  70.167  1.00  0.00    -0.392 A  
HETATM   11  C   UNL     1     -12.093  11.065  70.667  1.00  0.00    -0.373 A  
HETATM   12  C   UNL     1     -11.724  16.053  69.310  1.00  0.00    -0.302 A  
HETATM   13  C   UNL     1     -12.544  10.000  71.472  1.00  0.00    -0.525 A  
HETATM   14  C   UNL     1     -12.035   8.720  71.313  1.00  0.00    -0.353 A  
HETATM   15  C   UNL     1     -10.993   8.528  70.419  1.00  0.00    -0.254 A  
HETATM   16  C   UNL     1     -10.516   9.604  69.658  1.00  0.00    -0.246 A  
HETATM   17  C   UNL     1     -11.128  10.872  69.656  1.00  0.00    -0.266 A  
HETATM   18  N   UNL     1     -10.817  11.888  68.705  1.00  0.00    -0.226 NA 
BRANCH  18  19
HETATM   19  C   UNL     1     -10.083  11.513  67.440  1.00  0.00    -0.191 C  
BRANCH  19  20
HETATM   20  C   UNL     1     -10.888  10.890  66.237  1.00  0.00    -0.124 C  
HETATM   21  C   UNL     1     -11.415  12.014  65.328  1.00  0.00    -0.358 C  
BRANCH  20  22
HETATM   22  N   UNL     1     -10.093   9.896  65.432  1.00  0.00    -0.281 NA 
HETATM   23  C   UNL     1      -9.699   8.739  66.253  1.00  0.00    -0.272 C  
HETATM   24  C   UNL     1      -8.871  10.475  64.855  1.00  0.00    -0.192 C  
ENDBRANCH  20  22
ENDBRANCH  19  20
ENDBRANCH  18  19
ENDBRANCH   3   5
ENDBRANCH   2   3
TORSDOF 5
ENDMDL
MODEL       31
REMARK 921   NORMALIZED FREE ENERGY PREDICTED BY IDOCK:   -5.49 KCAL/MOL
REMARK 922        TOTAL FREE ENERGY PREDICTED BY IDOCK:   -7.84 KCAL/MOL
REMARK 923 INTER-LIGAND FREE ENERGY PREDICTED BY IDOCK:   -7.05 KCAL/MOL
REMARK 924 INTRA-LIGAND FREE ENERGY PREDICTED BY IDOCK:   -0.78 KCAL/MOL
REMARK 927      BINDING AFFINITY PREDICTED BY RF-SCORE:    0.00 PKD
ROOT
HETATM    1  C   UNL     1     -12.108  12.783  63.418  1.00  0.00    -0.619 C  
HETATM    2  C   UNL     1     -12.252  13.989  64.334  1.00  0.00    -0.457 C  
ENDROOT
BRANCH   2   3
HETATM    3  C   UNL     1     -11.127  14.069  65.353  1.00  0.00    -0.318 C  
HETATM    4  O   UNL     1     -10.100  14.702  65.133  1.00  0.00    -0.377 OA 
BRANCH   3   5
HETATM    5  C   UNL     1     -11.289  13.371  66.669  1.00  0.00    -0.350 A  
HETATM    6  C   UNL     1     -10.961  12.012  66.870  1.00  0.00    -0.328 A  
HETATM    7  C   UNL     1     -11.218  11.333  68.092  1.00  0.00    -0.286 A  
HETATM    8  C   UNL     1     -11.775  12.124  69.120  1.00  0.00    -0.328 A  
HETATM    9  S   UNL     1     -12.287  11.494  70.693  1.00  0.00    -0.323 SA 
HETATM   10  C   UNL     1     -12.031  13.499  68.944  1.00  0.00    -0.378 A  
HETATM   11  C   UNL     1     -11.622   9.856  70.672  1.00  0.00    -0.335 A  
HETATM   12  C   UNL     1     -11.805  14.113  67.722  1.00  0.00    -0.414 A  
HETATM   13  C   UNL     1     -11.810   9.131  71.865  1.00  0.00    -0.439 A  
HETATM   14  C   UNL     1     -11.309   7.846  72.007  1.00  0.00    -0.343 A  
HETATM   15  C   UNL     1     -10.523   7.326  70.991  1.00  0.00    -0.226 A  
HETATM   16  C   UNL     1     -10.298   8.074  69.827  1.00  0.00    -0.219 A  
HETATM   17  C   UNL     1     -10.939   9.301  69.569  1.00  0.00    -0.151 A  
HETATM   18  N   UNL     1     -10.921   9.938  68.293  1.00  0.00    -0.227 NA 
BRANCH  18  19
HETATM   19  C   UNL     1     -10.520   9.139  67.077  1.00  0.00    -0.240 C  
BRANCH  19  20
HETATM   20  C   UNL     1      -8.998   9.054  66.675  1.00  0.00    -0.135 C  
HETATM   21  C   UNL     1      -8.839   9.367  65.178  1.00  0.00    -0.233 C  
BRANCH  20  22
HETATM   22  N   UNL     1      -8.109   9.953  67.495  1.00  0.00    -0.110 NA 
HETATM   23  C   UNL     1      -7.383  10.906  66.640  1.00  0.00    -0.139 C  
HETATM   24  C   UNL     1      -7.117   9.208  68.283  1.00  0.00    -0.077 C  
ENDBRANCH  20  22
ENDBRANCH  19  20
ENDBRANCH  18  19
ENDBRANCH   3   5
ENDBRANCH   2   3
TORSDOF 5
ENDMDL
MODEL       32
REMARK 921   NORMALIZED FREE ENERGY PREDICTED BY IDOCK:   -5.48 KCAL/MOL
REMARK 922        TOTAL FREE ENERGY PREDICTED BY IDOCK:   -7.81 KCAL/MOL
REMARK 923 INTER-LIGAND FREE ENERGY PREDICTED BY IDOCK:   -7.24 KCAL/MOL
REMARK 924 INTRA-LIGAND FREE ENERGY PREDICTED BY IDOCK:   -0.58 KCAL/MOL
REMARK 927      BINDING AFFINITY PREDICTED BY RF-SCORE:    0.00 PKD
ROOT
HETATM    1  C   UNL     1     -10.142   5.563  69.392  1.00  0.00    -0.306 C  
HETATM    2  C   UNL     1     -11.502   6.224  69.563  1.00  0.00    -0.387 C  
ENDROOT
BRANCH   2   3
HETATM    3  C   UNL     1     -11.679   6.811  70.954  1.00  0.00    -0.372 C  
HETATM    4  O   UNL     1     -11.481   6.147  71.966  1.00  0.00    -0.290 OA 
BRANCH   3   5
HETATM    5  C   UNL     1     -12.088   8.246  71.089  1.00  0.00    -0.274 A  
HETATM    6  C   UNL     1     -11.558   9.281  70.287  1.00  0.00    -0.151 A  
HETATM    7  C   UNL     1     -11.873  10.651  70.494  1.00  0.00    -0.357 A  
HETATM    8  C   UNL     1     -12.801  10.911  71.526  1.00  0.00    -0.454 A  
HETATM    9  S   UNL     1     -13.274  12.533  72.053  1.00  0.00    -0.303 SA 
HETATM   10  C   UNL     1     -13.389   9.872  72.275  1.00  0.00    -0.429 A  
HETATM   11  C   UNL     1     -12.573  13.553  70.791  1.00  0.00    -0.309 A  
HETATM   12  C   UNL     1     -13.022   8.552  72.068  1.00  0.00    -0.406 A  
HETATM   13  C   UNL     1     -12.871  14.925  70.913  1.00  0.00    -0.432 A  
HETATM   14  C   UNL     1     -12.419  15.840  69.975  1.00  0.00    -0.178 A  
HETATM   15  C   UNL     1     -11.759  15.366  68.852  1.00  0.00    -0.377 A  
HETATM   16  C   UNL     1     -11.510  13.994  68.713  1.00  0.00    -0.327 A  
HETATM   17  C   UNL     1     -11.788  13.059  69.728  1.00  0.00    -0.311 A  
HETATM   18  N   UNL     1     -11.308  11.715  69.704  1.00  0.00    -0.258 NA 
BRANCH  18  19
HETATM   19  C   UNL     1     -10.181  11.352  68.770  1.00  0.00    -0.197 C  
BRANCH  19  20
HETATM   20  C   UNL     1     -10.494  10.525  67.465  1.00  0.00    -0.239 C  
HETATM   21  C   UNL     1     -10.829  11.485  66.311  1.00  0.00    -0.333 C  
BRANCH  20  22
HETATM   22  N   UNL     1      -9.383   9.591  67.064  1.00  0.00    -0.144 NA 
HETATM   23  C   UNL     1      -9.915   8.303  66.589  1.00  0.00    -0.278 C  
HETATM   24  C   UNL     1      -8.446   9.314  68.162  1.00  0.00    -0.121 C  
ENDBRANCH  20  22
ENDBRANCH  19  20
ENDBRANCH  18  19
ENDBRANCH   3   5
ENDBRANCH   2   3
TORSDOF 5
ENDMDL
MODEL       33
REMARK 921   NORMALIZED FREE ENERGY PREDICTED BY IDOCK:   -5.43 KCAL/MOL
REMARK 922        TOTAL FREE ENERGY PREDICTED BY IDOCK:   -7.75 KCAL/MOL
REMARK 923 INTER-LIGAND FREE ENERGY PREDICTED BY IDOCK:   -6.95 KCAL/MOL
REMARK 924 INTRA-LIGAND FREE ENERGY PREDICTED BY IDOCK:   -0.80 KCAL/MOL
REMARK 927      BINDING AFFINITY PREDICTED BY RF-SCORE:    0.00 PKD
ROOT
HETATM    1  C   UNL     1      -9.036  17.565  68.275  1.00  0.00    -0.267 C  
HETATM    2  C   UNL     1     -10.482  17.493  67.811  1.00  0.00    -0.381 C  
ENDROOT
BRANCH   2   3
HETATM    3  C   UNL     1     -10.888  16.079  67.430  1.00  0.00    -0.277 C  
HETATM    4  O   UNL     1     -10.827  15.679  66.272  1.00  0.00    -0.315 OA 
BRANCH   3   5
HETATM    5  C   UNL     1     -11.356  15.144  68.503  1.00  0.00    -0.321 A  
HETATM    6  C   UNL     1     -11.239  13.739  68.412  1.00  0.00    -0.300 A  
HETATM    7  C   UNL     1     -11.781  12.858  69.386  1.00  0.00    -0.321 A  
HETATM    8  C   UNL     1     -12.401  13.483  70.491  1.00  0.00    -0.342 A  
HETATM    9  S   UNL     1     -13.245  12.614  71.781  1.00  0.00    -0.253 SA 
HETATM   10  C   UNL     1     -12.449  14.886  70.621  1.00  0.00    -0.411 A  
HETATM   11  C   UNL     1     -12.796  10.935  71.453  1.00  0.00    -0.449 A  
HETATM   12  C   UNL     1     -11.944  15.709  69.626  1.00  0.00    -0.367 A  
HETATM   13  C   UNL     1     -13.272  10.005  72.399  1.00  0.00    -0.263 A  
HETATM   14  C   UNL     1     -12.968   8.657  72.291  1.00  0.00    -0.430 A  
HETATM   15  C   UNL     1     -12.092   8.254  71.295  1.00  0.00    -0.307 A  
HETATM   16  C   UNL     1     -11.582   9.193  70.388  1.00  0.00    -0.181 A  
HETATM   17  C   UNL     1     -12.013  10.534  70.351  1.00  0.00    -0.335 A  
HETATM   18  N   UNL     1     -11.699  11.424  69.282  1.00  0.00    -0.306 NA 
BRANCH  18  19
HETATM   19  C   UNL     1     -11.202  10.859  67.974  1.00  0.00    -0.314 C  
BRANCH  19  20
HETATM   20  C   UNL     1      -9.657  10.621  67.772  1.00  0.00    -0.157 C  
HETATM   21  C   UNL     1      -9.201  11.266  66.453  1.00  0.00    -0.206 C  
BRANCH  20  22
HETATM   22  N   UNL     1      -8.817  11.122  68.918  1.00  0.00    -0.125 NA 
HETATM   23  C   UNL     1      -7.791  12.070  68.451  1.00  0.00    -0.147 C  
HETATM   24  C   UNL     1      -8.135  10.040  69.641  1.00  0.00    -0.172 C  
ENDBRANCH  20  22
ENDBRANCH  19  20
ENDBRANCH  18  19
ENDBRANCH   3   5
ENDBRANCH   2   3
TORSDOF 5
ENDMDL
MODEL       34
REMARK 921   NORMALIZED FREE ENERGY PREDICTED BY IDOCK:   -5.38 KCAL/MOL
REMARK 922        TOTAL FREE ENERGY PREDICTED BY IDOCK:   -7.69 KCAL/MOL
REMARK 923 INTER-LIGAND FREE ENERGY PREDICTED BY IDOCK:   -6.93 KCAL/MOL
REMARK 924 INTRA-LIGAND FREE ENERGY PREDICTED BY IDOCK:   -0.76 KCAL/MOL
REMARK 927      BINDING AFFINITY PREDICTED BY RF-SCORE:    0.00 PKD
ROOT
HETATM    1  C   UNL     1      -9.794   6.069  70.785  1.00  0.00    -0.221 C  
HETATM    2  C   UNL     1     -11.014   6.919  70.463  1.00  0.00    -0.313 C  
ENDROOT
BRANCH   2   3
HETATM    3  C   UNL     1     -10.963   8.272  71.152  1.00  0.00    -0.245 C  
HETATM    4  O   UNL     1     -10.652   8.385  72.334  1.00  0.00    -0.316 OA 
BRANCH   3   5
HETATM    5  C   UNL     1     -11.281   9.503  70.359  1.00  0.00    -0.323 A  
HETATM    6  C   UNL     1     -11.041   9.614  68.971  1.00  0.00    -0.104 A  
HETATM    7  C   UNL     1     -11.247  10.821  68.250  1.00  0.00    -0.297 A  
HETATM    8  C   UNL     1     -11.765  11.897  69.003  1.00  0.00    -0.331 A  
HETATM    9  S   UNL     1     -12.008  13.531  68.368  1.00  0.00    -0.283 SA 
HETATM   10  C   UNL     1     -12.078  11.763  70.372  1.00  0.00    -0.440 A  
HETATM   11  C   UNL     1     -11.763  13.294  66.632  1.00  0.00    -0.377 A  
HETATM   12  C   UNL     1     -11.822  10.581  71.047  1.00  0.00    -0.438 A  
HETATM   13  C   UNL     1     -11.983  14.443  65.847  1.00  0.00    -0.367 A  
HETATM   14  C   UNL     1     -11.864  14.398  64.466  1.00  0.00    -0.463 A  
HETATM   15  C   UNL     1     -11.632  13.173  63.861  1.00  0.00    -0.488 A  
HETATM   16  C   UNL     1     -11.465  12.024  64.647  1.00  0.00    -0.371 A  
HETATM   17  C   UNL     1     -11.394  12.062  66.053  1.00  0.00    -0.343 A  
HETATM   18  N   UNL     1     -10.970  10.952  66.843  1.00  0.00    -0.256 NA 
BRANCH  18  19
HETATM   19  C   UNL     1     -10.232   9.815  66.180  1.00  0.00    -0.208 C  
BRANCH  19  20
HETATM   20  C   UNL     1      -8.658   9.849  66.115  1.00  0.00    -0.128 C  
HETATM   21  C   UNL     1      -8.094   8.467  66.487  1.00  0.00    -0.103 C  
BRANCH  20  22
HETATM   22  N   UNL     1      -8.120  10.292  64.779  1.00  0.00    -0.156 NA 
HETATM   23  C   UNL     1      -8.811   9.608  63.674  1.00  0.00    -0.232 C  
HETATM   24  C   UNL     1      -6.679  10.042  64.633  1.00  0.00    -0.128 C  
ENDBRANCH  20  22
ENDBRANCH  19  20
ENDBRANCH  18  19
ENDBRANCH   3   5
ENDBRANCH   2   3
TORSDOF 5
ENDMDL
MODEL       35
REMARK 921   NORMALIZED FREE ENERGY PREDICTED BY IDOCK:   -5.33 KCAL/MOL
REMARK 922        TOTAL FREE ENERGY PREDICTED BY IDOCK:   -7.62 KCAL/MOL
REMARK 923 INTER-LIGAND FREE ENERGY PREDICTED BY IDOCK:   -7.01 KCAL/MOL
REMARK 924 INTRA-LIGAND FREE ENERGY PREDICTED BY IDOCK:   -0.61 KCAL/MOL
REMARK 927      BINDING AFFINITY PREDICTED BY RF-SCORE:    0.00 PKD
ROOT
HETATM    1  C   UNL     1     -10.749  12.542  63.629  1.00  0.00    -0.469 C  
HETATM    2  C   UNL     1     -10.389  11.120  63.226  1.00  0.00    -0.368 C  
ENDROOT
BRANCH   2   3
HETATM    3  C   UNL     1      -9.275  10.548  64.088  1.00  0.00    -0.249 C  
HETATM    4  O   UNL     1      -8.102  10.578  63.731  1.00  0.00    -0.135 OA 
BRANCH   3   5
HETATM    5  C   UNL     1      -9.620   9.951  65.418  1.00  0.00    -0.350 A  
HETATM    6  C   UNL     1     -10.432  10.603  66.373  1.00  0.00    -0.276 A  
HETATM    7  C   UNL     1     -10.665  10.075  67.671  1.00  0.00    -0.284 A  
HETATM    8  C   UNL     1     -10.076   8.818  67.930  1.00  0.00    -0.207 A  
HETATM    9  S   UNL     1     -10.126   8.000  69.498  1.00  0.00    -0.200 SA 
HETATM   10  C   UNL     1      -9.331   8.131  66.950  1.00  0.00    -0.219 A  
HETATM   11  C   UNL     1     -11.301   8.976  70.389  1.00  0.00    -0.210 A  
HETATM   12  C   UNL     1      -9.092   8.701  65.710  1.00  0.00    -0.242 A  
HETATM   13  C   UNL     1     -11.609   8.493  71.677  1.00  0.00    -0.364 A  
HETATM   14  C   UNL     1     -12.541   9.136  72.477  1.00  0.00    -0.311 A  
HETATM   15  C   UNL     1     -13.249  10.201  71.943  1.00  0.00    -0.557 A  
HETATM   16  C   UNL     1     -12.973  10.644  70.642  1.00  0.00    -0.343 A  
HETATM   17  C   UNL     1     -11.909  10.138  69.871  1.00  0.00    -0.135 A  
HETATM   18  N   UNL     1     -11.461  10.751  68.663  1.00  0.00    -0.291 NA 
BRANCH  18  19
HETATM   19  C   UNL     1     -11.872  12.171  68.361  1.00  0.00    -0.303 C  
BRANCH  19  20
HETATM   20  C   UNL     1     -11.130  13.360  69.081  1.00  0.00    -0.213 C  
HETATM   21  C   UNL     1     -10.107  13.990  68.121  1.00  0.00    -0.244 C  
BRANCH  20  22
HETATM   22  N   UNL     1     -12.063  14.415  69.617  1.00  0.00    -0.328 NA 
HETATM   23  C   UNL     1     -11.525  15.767  69.391  1.00  0.00    -0.355 C  
HETATM   24  C   UNL     1     -12.322  14.268  71.057  1.00  0.00    -0.361 C  
ENDBRANCH  20  22
ENDBRANCH  19  20
ENDBRANCH  18  19
ENDBRANCH   3   5
ENDBRANCH   2   3
TORSDOF 5
ENDMDL
MODEL       36
REMARK 921   NORMALIZED FREE ENERGY PREDICTED BY IDOCK:   -5.31 KCAL/MOL
REMARK 922        TOTAL FREE ENERGY PREDICTED BY IDOCK:   -7.59 KCAL/MOL
REMARK 923 INTER-LIGAND FREE ENERGY PREDICTED BY IDOCK:   -6.97 KCAL/MOL
REMARK 924 INTRA-LIGAND FREE ENERGY PREDICTED BY IDOCK:   -0.62 KCAL/MOL
REMARK 927      BINDING AFFINITY PREDICTED BY RF-SCORE:    0.00 PKD
ROOT
HETATM    1  C   UNL     1     -10.683  19.312  67.495  1.00  0.00    -0.571 C  
HETATM    2  C   UNL     1     -10.467  19.228  65.991  1.00  0.00    -0.573 C  
ENDROOT
BRANCH   2   3
HETATM    3  C   UNL     1     -10.490  17.793  65.492  1.00  0.00    -0.017 C  
HETATM    4  O   UNL     1     -11.207  17.444  64.561  1.00  0.00    -1.018 OA 
BRANCH   3   5
HETATM    5  C   UNL     1      -9.595  16.783  66.145  1.00  0.00    -0.302 A  
HETATM    6  C   UNL     1     -10.024  15.488  66.509  1.00  0.00    -0.283 A  
HETATM    7  C   UNL     1      -9.199  14.577  67.223  1.00  0.00    -0.207 A  
HETATM    8  C   UNL     1      -7.891  15.032  67.498  1.00  0.00    -0.182 A  
HETATM    9  S   UNL     1      -6.709  14.135  68.464  1.00  0.00    -0.112 SA 
HETATM   10  C   UNL     1      -7.437  16.295  67.067  1.00  0.00    -0.257 A  
HETATM   11  C   UNL     1      -7.486  12.555  68.627  1.00  0.00    -0.090 A  
HETATM   12  C   UNL     1      -8.288  17.169  66.410  1.00  0.00    -0.315 A  
HETATM   13  C   UNL     1      -6.711  11.587  69.298  1.00  0.00    -0.118 A  
HETATM   14  C   UNL     1      -7.176  10.293  69.468  1.00  0.00    -0.122 A  
HETATM   15  C   UNL     1      -8.373   9.935  68.869  1.00  0.00    -0.124 A  
HETATM   16  C   UNL     1      -9.114  10.891  68.161  1.00  0.00    -0.155 A  
HETATM   17  C   UNL     1      -8.768  12.255  68.124  1.00  0.00    -0.186 A  
HETATM   18  N   UNL     1      -9.643  13.269  67.630  1.00  0.00    -0.207 NA 
BRANCH  18  19
HETATM   19  C   UNL     1     -11.111  12.961  67.469  1.00  0.00    -0.269 C  
BRANCH  19  20
HETATM   20  C   UNL     1     -11.629  12.362  66.106  1.00  0.00    -0.396 C  
HETATM   21  C   UNL     1     -12.658  13.317  65.478  1.00  0.00    -0.505 C  
BRANCH  20  22
HETATM   22  N   UNL     1     -10.527  12.061  65.124  1.00  0.00    -0.278 NA 
HETATM   23  C   UNL     1     -10.758  12.742  63.839  1.00  0.00    -0.409 C  
HETATM   24  C   UNL     1     -10.383  10.624  64.852  1.00  0.00    -0.277 C  
ENDBRANCH  20  22
ENDBRANCH  19  20
ENDBRANCH  18  19
ENDBRANCH   3   5
ENDBRANCH   2   3
TORSDOF 5
ENDMDL
MODEL       37
REMARK 921   NORMALIZED FREE ENERGY PREDICTED BY IDOCK:   -5.30 KCAL/MOL
REMARK 922        TOTAL FREE ENERGY PREDICTED BY IDOCK:   -7.59 KCAL/MOL
REMARK 923 INTER-LIGAND FREE ENERGY PREDICTED BY IDOCK:   -7.10 KCAL/MOL
REMARK 924 INTRA-LIGAND FREE ENERGY PREDICTED BY IDOCK:   -0.49 KCAL/MOL
REMARK 927      BINDING AFFINITY PREDICTED BY RF-SCORE:    0.00 PKD
ROOT
HETATM    1  C   UNL     1     -10.547   5.653  68.486  1.00  0.00    -0.259 C  
HETATM    2  C   UNL     1     -11.092   6.296  67.219  1.00  0.00    -0.387 C  
ENDROOT
BRANCH   2   3
HETATM    3  C   UNL     1     -10.033   7.110  66.493  1.00  0.00    -0.103 C  
HETATM    4  O   UNL     1      -9.139   6.576  65.846  1.00  0.00    -0.134 OA 
BRANCH   3   5
HETATM    5  C   UNL     1     -10.098   8.606  66.556  1.00  0.00    -0.339 A  
HETATM    6  C   UNL     1     -10.760   9.310  67.586  1.00  0.00    -0.276 A  
HETATM    7  C   UNL     1     -10.907  10.723  67.580  1.00  0.00    -0.288 A  
HETATM    8  C   UNL     1     -10.295  11.391  66.497  1.00  0.00    -0.236 A  
HETATM    9  S   UNL     1     -10.424  13.131  66.200  1.00  0.00    -0.285 SA 
HETATM   10  C   UNL     1      -9.567  10.696  65.510  1.00  0.00    -0.271 A  
HETATM   11  C   UNL     1     -11.162  13.709  67.700  1.00  0.00    -0.279 A  
HETATM   12  C   UNL     1      -9.484   9.312  65.532  1.00  0.00    -0.309 A  
HETATM   13  C   UNL     1     -11.310  15.109  67.779  1.00  0.00    -0.335 A  
HETATM   14  C   UNL     1     -11.840  15.708  68.911  1.00  0.00    -0.368 A  
HETATM   15  C   UNL     1     -12.121  14.913  70.011  1.00  0.00    -0.387 A  
HETATM   16  C   UNL     1     -11.923  13.527  69.942  1.00  0.00    -0.416 A  
HETATM   17  C   UNL     1     -11.565  12.863  68.753  1.00  0.00    -0.311 A  
HETATM   18  N   UNL     1     -11.613  11.444  68.607  1.00  0.00    -0.293 NA 
BRANCH  18  19
HETATM   19  C   UNL     1     -12.399  10.627  69.603  1.00  0.00    -0.139 C  
BRANCH  19  20
HETATM   20  C   UNL     1     -11.917  10.564  71.102  1.00  0.00    -0.336 C  
HETATM   21  C   UNL     1     -13.111  10.805  72.041  1.00  0.00    -0.476 C  
BRANCH  20  22
HETATM   22  N   UNL     1     -11.224   9.274  71.456  1.00  0.00    -0.364 NA 
HETATM   23  C   UNL     1      -9.839   9.259  70.958  1.00  0.00    -0.285 C  
HETATM   24  C   UNL     1     -11.910   8.091  70.917  1.00  0.00    -0.224 C  
ENDBRANCH  20  22
ENDBRANCH  19  20
ENDBRANCH  18  19
ENDBRANCH   3   5
ENDBRANCH   2   3
TORSDOF 5
ENDMDL
MODEL       38
REMARK 921   NORMALIZED FREE ENERGY PREDICTED BY IDOCK:   -5.29 KCAL/MOL
REMARK 922        TOTAL FREE ENERGY PREDICTED BY IDOCK:   -7.58 KCAL/MOL
REMARK 923 INTER-LIGAND FREE ENERGY PREDICTED BY IDOCK:   -7.52 KCAL/MOL
REMARK 924 INTRA-LIGAND FREE ENERGY PREDICTED BY IDOCK:   -0.06 KCAL/MOL
REMARK 927      BINDING AFFINITY PREDICTED BY RF-SCORE:    0.00 PKD
ROOT
HETATM    1  C   UNL     1     -12.175  16.010  72.847  1.00  0.00    -0.621 C  
HETATM    2  C   UNL     1     -12.271  14.540  73.227  1.00  0.00    -0.203 C  
ENDROOT
BRANCH   2   3
HETATM    3  C   UNL     1     -13.150  13.759  72.265  1.00  0.00    -0.405 C  
HETATM    4  O   UNL     1     -14.305  13.456  72.546  1.00  0.00    -0.692 OA 
BRANCH   3   5
HETATM    5  C   UNL     1     -12.595  13.368  70.929  1.00  0.00    -0.406 A  
HETATM    6  C   UNL     1     -12.109  12.074  70.641  1.00  0.00    -0.369 A  
HETATM    7  C   UNL     1     -11.487  11.744  69.406  1.00  0.00    -0.307 A  
HETATM    8  C   UNL     1     -11.437  12.786  68.455  1.00  0.00    -0.311 A  
HETATM    9  S   UNL     1     -10.623  12.664  66.888  1.00  0.00    -0.242 SA 
HETATM   10  C   UNL     1     -11.993  14.055  68.713  1.00  0.00    -0.382 A  
HETATM   11  C   UNL     1     -10.267  10.935  66.788  1.00  0.00    -0.231 A  
HETATM   12  C   UNL     1     -12.553  14.348  69.947  1.00  0.00    -0.217 A  
HETATM   13  C   UNL     1      -9.678  10.526  65.574  1.00  0.00    -0.298 A  
HETATM   14  C   UNL     1      -9.378   9.194  65.339  1.00  0.00    -0.258 A  
HETATM   15  C   UNL     1      -9.768   8.251  66.277  1.00  0.00    -0.253 A  
HETATM   16  C   UNL     1     -10.399   8.661  67.460  1.00  0.00    -0.336 A  
HETATM   17  C   UNL     1     -10.554  10.014  67.817  1.00  0.00    -0.261 A  
HETATM   18  N   UNL     1     -10.955  10.437  69.119  1.00  0.00    -0.227 NA 
BRANCH  18  19
HETATM   19  C   UNL     1     -10.875   9.461  70.268  1.00  0.00    -0.258 C  
BRANCH  19  20
HETATM   20  C   UNL     1     -12.023   8.399  70.460  1.00  0.00     0.068 C  
HETATM   21  C   UNL     1     -11.589   7.051  69.860  1.00  0.00    -0.179 C  
BRANCH  20  22
HETATM   22  N   UNL     1     -12.443   8.221  71.896  1.00  0.00    -0.321 NA 
HETATM   23  C   UNL     1     -13.345   9.304  72.325  1.00  0.00    -0.477 C  
HETATM   24  C   UNL     1     -11.304   8.190  72.824  1.00  0.00    -0.336 C  
ENDBRANCH  20  22
ENDBRANCH  19  20
ENDBRANCH  18  19
ENDBRANCH   3   5
ENDBRANCH   2   3
TORSDOF 5
ENDMDL
MODEL       39
REMARK 921   NORMALIZED FREE ENERGY PREDICTED BY IDOCK:   -5.25 KCAL/MOL
REMARK 922        TOTAL FREE ENERGY PREDICTED BY IDOCK:   -7.53 KCAL/MOL
REMARK 923 INTER-LIGAND FREE ENERGY PREDICTED BY IDOCK:   -6.64 KCAL/MOL
REMARK 924 INTRA-LIGAND FREE ENERGY PREDICTED BY IDOCK:   -0.89 KCAL/MOL
REMARK 927      BINDING AFFINITY PREDICTED BY RF-SCORE:    0.00 PKD
ROOT
HETATM    1  C   UNL     1     -12.162   6.599  71.724  1.00  0.00    -0.400 C  
HETATM    2  C   UNL     1     -12.001   7.927  72.449  1.00  0.00    -0.373 C  
ENDROOT
BRANCH   2   3
HETATM    3  C   UNL     1     -10.839   8.738  71.900  1.00  0.00    -0.360 C  
HETATM    4  O   UNL     1      -9.721   8.689  72.402  1.00  0.00    -0.295 OA 
BRANCH   3   5
HETATM    5  C   UNL     1     -11.063   9.606  70.699  1.00  0.00    -0.384 A  
HETATM    6  C   UNL     1     -10.441   9.379  69.451  1.00  0.00    -0.231 A  
HETATM    7  C   UNL     1     -10.578  10.268  68.351  1.00  0.00    -0.216 A  
HETATM    8  C   UNL     1     -11.429  11.374  68.567  1.00  0.00    -0.297 A  
HETATM    9  S   UNL     1     -11.681  12.679  67.399  1.00  0.00    -0.338 SA 
HETATM   10  C   UNL     1     -12.112  11.559  69.787  1.00  0.00    -0.374 A  
HETATM   11  C   UNL     1     -10.907  12.031  65.947  1.00  0.00    -0.288 A  
HETATM   12  C   UNL     1     -11.917  10.690  70.849  1.00  0.00    -0.469 A  
HETATM   13  C   UNL     1     -11.030  12.846  64.803  1.00  0.00    -0.344 A  
HETATM   14  C   UNL     1     -10.504  12.449  63.584  1.00  0.00    -0.460 A  
HETATM   15  C   UNL     1      -9.949  11.183  63.482  1.00  0.00    -0.425 A  
HETATM   16  C   UNL     1      -9.875  10.358  64.613  1.00  0.00    -0.405 A  
HETATM   17  C   UNL     1     -10.228  10.796  65.905  1.00  0.00    -0.259 A  
HETATM   18  N   UNL     1      -9.917  10.063  67.088  1.00  0.00    -0.191 NA 
BRANCH  18  19
HETATM   19  C   UNL     1      -8.877   8.971  67.028  1.00  0.00    -0.119 C  
BRANCH  19  20
HETATM   20  C   UNL     1      -7.369   9.324  67.317  1.00  0.00    -0.091 C  
HETATM   21  C   UNL     1      -6.866   8.507  68.519  1.00  0.00    -0.064 C  
BRANCH  20  22
HETATM   22  N   UNL     1      -6.465   9.119  66.129  1.00  0.00    -0.064 NA 
HETATM   23  C   UNL     1      -6.197  10.392  65.439  1.00  0.00    -0.127 C  
HETATM   24  C   UNL     1      -7.021   8.180  65.145  1.00  0.00    -0.063 C  
ENDBRANCH  20  22
ENDBRANCH  19  20
ENDBRANCH  18  19
ENDBRANCH   3   5
ENDBRANCH   2   3
TORSDOF 5
ENDMDL
MODEL       40
REMARK 921   NORMALIZED FREE ENERGY PREDICTED BY IDOCK:   -5.25 KCAL/MOL
REMARK 922        TOTAL FREE ENERGY PREDICTED BY IDOCK:   -7.52 KCAL/MOL
REMARK 923 INTER-LIGAND FREE ENERGY PREDICTED BY IDOCK:   -7.18 KCAL/MOL
REMARK 924 INTRA-LIGAND FREE ENERGY PREDICTED BY IDOCK:   -0.35 KCAL/MOL
REMARK 927      BINDING AFFINITY PREDICTED BY RF-SCORE:    0.00 PKD
ROOT
HETATM    1  C   UNL     1     -10.762   7.116  73.258  1.00  0.00    -0.403 C  
HETATM    2  C   UNL     1     -11.036   8.328  72.380  1.00  0.00    -0.438 C  
ENDROOT
BRANCH   2   3
HETATM    3  C   UNL     1      -9.766   8.865  71.739  1.00  0.00    -0.295 C  
HETATM    4  O   UNL     1      -8.704   8.911  72.350  1.00  0.00    -0.400 OA 
BRANCH   3   5
HETATM    5  C   UNL     1      -9.813   9.331  70.316  1.00  0.00    -0.265 A  
HETATM    6  C   UNL     1     -10.618  10.406  69.879  1.00  0.00    -0.299 A  
HETATM    7  C   UNL     1     -10.735  10.771  68.510  1.00  0.00    -0.210 A  
HETATM    8  C   UNL     1      -9.946  10.021  67.612  1.00  0.00    -0.176 A  
HETATM    9  S   UNL     1      -9.993  10.204  65.853  1.00  0.00    -0.260 SA 
HETATM   10  C   UNL     1      -9.083   8.998  68.057  1.00  0.00    -0.140 A  
HETATM   11  C   UNL     1     -10.950  11.678  65.659  1.00  0.00    -0.266 A  
HETATM   12  C   UNL     1      -9.030   8.646  69.397  1.00  0.00    -0.145 A  
HETATM   13  C   UNL     1     -11.083  12.121  64.328  1.00  0.00    -0.403 A  
HETATM   14  C   UNL     1     -11.776  13.283  64.027  1.00  0.00    -0.483 A  
HETATM   15  C   UNL     1     -12.244  14.064  65.072  1.00  0.00    -0.448 A  
HETATM   16  C   UNL     1     -12.063  13.643  66.396  1.00  0.00    -0.478 A  
HETATM   17  C   UNL     1     -11.532  12.383  66.734  1.00  0.00    -0.362 A  
HETATM   18  N   UNL     1     -11.582  11.842  68.053  1.00  0.00    -0.369 NA 
BRANCH  18  19
HETATM   19  C   UNL     1     -12.533  12.443  69.059  1.00  0.00     0.457 C  
BRANCH  19  20
HETATM   20  C   UNL     1     -11.962  13.350  70.215  1.00  0.00    -0.308 C  
HETATM   21  C   UNL     1     -10.930  14.334  69.640  1.00  0.00    -0.159 C  
BRANCH  20  22
HETATM   22  N   UNL     1     -13.027  14.094  70.977  1.00  0.00    -0.338 NA 
HETATM   23  C   UNL     1     -12.575  15.448  71.339  1.00  0.00    -0.405 C  
HETATM   24  C   UNL     1     -13.429  13.408  72.214  1.00  0.00    -0.586 C  
ENDBRANCH  20  22
ENDBRANCH  19  20
ENDBRANCH  18  19
ENDBRANCH   3   5
ENDBRANCH   2   3
TORSDOF 5
ENDMDL
MODEL       41
REMARK 921   NORMALIZED FREE ENERGY PREDICTED BY IDOCK:   -5.22 KCAL/MOL
REMARK 922        TOTAL FREE ENERGY PREDICTED BY IDOCK:   -7.48 KCAL/MOL
REMARK 923 INTER-LIGAND FREE ENERGY PREDICTED BY IDOCK:   -7.25 KCAL/MOL
REMARK 924 INTRA-LIGAND FREE ENERGY PREDICTED BY IDOCK:   -0.23 KCAL/MOL
REMARK 927      BINDING AFFINITY PREDICTED BY RF-SCORE:    0.00 PKD
ROOT
HETATM    1  C   UNL     1     -11.983  12.544  63.753  1.00  0.00    -0.598 C  
HETATM    2  C   UNL     1     -12.020  12.944  65.221  1.00  0.00    -0.459 C  
ENDROOT
BRANCH   2   3
HETATM    3  C   UNL     1     -10.722  12.605  65.936  1.00  0.00    -0.266 C  
HETATM    4  O   UNL     1      -9.857  13.451  66.140  1.00  0.00    -0.284 OA 
BRANCH   3   5
HETATM    5  C   UNL     1     -10.505  11.204  66.421  1.00  0.00    -0.311 A  
HETATM    6  C   UNL     1     -10.803  10.785  67.737  1.00  0.00    -0.320 A  
HETATM    7  C   UNL     1     -10.494   9.484  68.217  1.00  0.00    -0.223 A  
HETATM    8  C   UNL     1      -9.917   8.609  67.271  1.00  0.00    -0.219 A  
HETATM    9  S   UNL     1      -9.343   6.977  67.645  1.00  0.00    -0.122 SA 
HETATM   10  C   UNL     1      -9.691   9.003  65.936  1.00  0.00    -0.306 A  
HETATM   11  C   UNL     1      -9.981   6.724  69.275  1.00  0.00    -0.160 A  
HETATM   12  C   UNL     1      -9.968  10.295  65.520  1.00  0.00    -0.364 A  
HETATM   13  C   UNL     1      -9.741   5.441  69.806  1.00  0.00    -0.248 A  
HETATM   14  C   UNL     1     -10.215   5.087  71.059  1.00  0.00    -0.283 A  
HETATM   15  C   UNL     1     -11.025   5.983  71.739  1.00  0.00    -0.323 A  
HETATM   16  C   UNL     1     -11.301   7.239  71.181  1.00  0.00    -0.294 A  
HETATM   17  C   UNL     1     -10.689   7.704  70.001  1.00  0.00    -0.241 A  
HETATM   18  N   UNL     1     -10.761   9.062  69.568  1.00  0.00    -0.227 NA 
BRANCH  18  19
HETATM   19  C   UNL     1     -11.187  10.126  70.549  1.00  0.00    -0.336 C  
BRANCH  19  20
HETATM   20  C   UNL     1     -12.721  10.439  70.731  1.00  0.00    -0.371 C  
HETATM   21  C   UNL     1     -13.241   9.759  72.008  1.00  0.00    -0.557 C  
BRANCH  20  22
HETATM   22  N   UNL     1     -13.035  11.913  70.756  1.00  0.00    -0.030 NA 
HETATM   23  C   UNL     1     -11.924  12.703  70.201  1.00  0.00    -0.299 C  
HETATM   24  C   UNL     1     -13.311  12.413  72.110  1.00  0.00    -0.403 C  
ENDBRANCH  20  22
ENDBRANCH  19  20
ENDBRANCH  18  19
ENDBRANCH   3   5
ENDBRANCH   2   3
TORSDOF 5
ENDMDL
MODEL       42
REMARK 921   NORMALIZED FREE ENERGY PREDICTED BY IDOCK:   -5.14 KCAL/MOL
REMARK 922        TOTAL FREE ENERGY PREDICTED BY IDOCK:   -7.37 KCAL/MOL
REMARK 923 INTER-LIGAND FREE ENERGY PREDICTED BY IDOCK:   -6.64 KCAL/MOL
REMARK 924 INTRA-LIGAND FREE ENERGY PREDICTED BY IDOCK:   -0.74 KCAL/MOL
REMARK 927      BINDING AFFINITY PREDICTED BY RF-SCORE:    0.00 PKD
ROOT
HETATM    1  C   UNL     1     -11.251  15.834  64.719  1.00  0.00    -0.375 C  
HETATM    2  C   UNL     1     -11.762  14.487  65.208  1.00  0.00    -0.361 C  
ENDROOT
BRANCH   2   3
HETATM    3  C   UNL     1     -11.825  13.462  64.087  1.00  0.00    -0.442 C  
HETATM    4  O   UNL     1     -12.522  13.633  63.093  1.00  0.00    -0.786 OA 
BRANCH   3   5
HETATM    5  C   UNL     1     -10.995  12.218  64.194  1.00  0.00    -0.415 A  
HETATM    6  C   UNL     1     -11.028  11.359  65.315  1.00  0.00    -0.251 A  
HETATM    7  C   UNL     1     -10.161  10.242  65.452  1.00  0.00    -0.284 A  
HETATM    8  C   UNL     1      -9.295  10.009  64.361  1.00  0.00    -0.290 A  
HETATM    9  S   UNL     1      -8.048   8.754  64.332  1.00  0.00    -0.160 SA 
HETATM   10  C   UNL     1      -9.316  10.821  63.209  1.00  0.00    -0.324 A  
HETATM   11  C   UNL     1      -8.446   7.801  65.767  1.00  0.00    -0.144 A  
HETATM   12  C   UNL     1     -10.149  11.926  63.134  1.00  0.00    -0.341 A  
HETATM   13  C   UNL     1      -7.646   6.655  65.951  1.00  0.00    -0.087 A  
HETATM   14  C   UNL     1      -7.867   5.793  67.014  1.00  0.00    -0.102 A  
HETATM   15  C   UNL     1      -8.963   6.019  67.833  1.00  0.00    -0.118 A  
HETATM   16  C   UNL     1      -9.784   7.133  67.613  1.00  0.00    -0.172 A  
HETATM   17  C   UNL     1      -9.485   8.129  66.663  1.00  0.00    -0.213 A  
HETATM   18  N   UNL     1     -10.162   9.383  66.608  1.00  0.00    -0.258 NA 
BRANCH  18  19
HETATM   19  C   UNL     1     -10.976   9.834  67.796  1.00  0.00    -0.180 C  
BRANCH  19  20
HETATM   20  C   UNL     1     -10.257  10.577  68.987  1.00  0.00    -0.216 C  
HETATM   21  C   UNL     1     -10.194  12.085  68.694  1.00  0.00    -0.189 C  
BRANCH  20  22
HETATM   22  N   UNL     1     -10.902  10.330  70.326  1.00  0.00    -0.298 NA 
HETATM   23  C   UNL     1     -11.166   8.897  70.533  1.00  0.00    -0.252 C  
HETATM   24  C   UNL     1     -12.173  11.051  70.488  1.00  0.00    -0.381 C  
ENDBRANCH  20  22
ENDBRANCH  19  20
ENDBRANCH  18  19
ENDBRANCH   3   5
ENDBRANCH   2   3
TORSDOF 5
ENDMDL
MODEL       43
REMARK 921   NORMALIZED FREE ENERGY PREDICTED BY IDOCK:   -5.07 KCAL/MOL
REMARK 922        TOTAL FREE ENERGY PREDICTED BY IDOCK:   -7.29 KCAL/MOL
REMARK 923 INTER-LIGAND FREE ENERGY PREDICTED BY IDOCK:   -6.45 KCAL/MOL
REMARK 924 INTRA-LIGAND FREE ENERGY PREDICTED BY IDOCK:   -0.85 KCAL/MOL
REMARK 927      BINDING AFFINITY PREDICTED BY RF-SCORE:    0.00 PKD
ROOT
HETATM    1  C   UNL     1      -8.854   8.621  71.670  1.00  0.00    -0.292 C  
HETATM    2  C   UNL     1      -7.381   8.722  71.304  1.00  0.00    -0.112 C  
ENDROOT
BRANCH   2   3
HETATM    3  C   UNL     1      -7.084   9.961  70.476  1.00  0.00    -0.101 C  
HETATM    4  O   UNL     1      -6.291  10.817  70.855  1.00  0.00    -0.351 OA 
BRANCH   3   5
HETATM    5  C   UNL     1      -7.764  10.130  69.151  1.00  0.00    -0.112 A  
HETATM    6  C   UNL     1      -8.573  11.242  68.832  1.00  0.00    -0.056 A  
HETATM    7  C   UNL     1      -9.299  11.340  67.614  1.00  0.00    -0.160 A  
HETATM    8  C   UNL     1      -9.114  10.271  66.710  1.00  0.00    -0.143 A  
HETATM    9  S   UNL     1      -9.984  10.102  65.178  1.00  0.00    -0.248 SA 
HETATM   10  C   UNL     1      -8.245   9.198  66.996  1.00  0.00    -0.116 A  
HETATM   11  C   UNL     1     -10.771  11.678  65.022  1.00  0.00    -0.296 A  
HETATM   12  C   UNL     1      -7.589   9.121  68.214  1.00  0.00    -0.083 A  
HETATM   13  C   UNL     1     -11.485  11.860  63.821  1.00  0.00    -0.542 A  
HETATM   14  C   UNL     1     -12.122  13.060  63.544  1.00  0.00    -0.617 A  
HETATM   15  C   UNL     1     -11.953  14.118  64.423  1.00  0.00    -0.478 A  
HETATM   16  C   UNL     1     -11.200  13.943  65.592  1.00  0.00    -0.306 A  
HETATM   17  C   UNL     1     -10.694  12.693  65.998  1.00  0.00    -0.269 A  
HETATM   18  N   UNL     1     -10.155  12.453  67.297  1.00  0.00    -0.208 NA 
BRANCH  18  19
HETATM   19  C   UNL     1     -10.443  13.436  68.406  1.00  0.00    -0.250 C  
BRANCH  19  20
HETATM   20  C   UNL     1     -11.844  13.398  69.127  1.00  0.00    -0.336 C  
HETATM   21  C   UNL     1     -11.854  12.278  70.182  1.00  0.00    -0.352 C  
BRANCH  20  22
HETATM   22  N   UNL     1     -12.233  14.711  69.754  1.00  0.00    -0.315 NA 
HETATM   23  C   UNL     1     -11.436  15.820  69.205  1.00  0.00    -0.365 C  
HETATM   24  C   UNL     1     -12.068  14.717  71.215  1.00  0.00    -0.341 C  
ENDBRANCH  20  22
ENDBRANCH  19  20
ENDBRANCH  18  19
ENDBRANCH   3   5
ENDBRANCH   2   3
TORSDOF 5
ENDMDL
MODEL       44
REMARK 921   NORMALIZED FREE ENERGY PREDICTED BY IDOCK:   -5.02 KCAL/MOL
REMARK 922        TOTAL FREE ENERGY PREDICTED BY IDOCK:   -7.22 KCAL/MOL
REMARK 923 INTER-LIGAND FREE ENERGY PREDICTED BY IDOCK:   -6.47 KCAL/MOL
REMARK 924 INTRA-LIGAND FREE ENERGY PREDICTED BY IDOCK:   -0.75 KCAL/MOL
REMARK 927      BINDING AFFINITY PREDICTED BY RF-SCORE:    0.00 PKD
ROOT
HETATM    1  C   UNL     1      -9.093  10.087  69.376  1.00  0.00    -0.228 C  
HETATM    2  C   UNL     1      -8.209  10.728  68.317  1.00  0.00    -0.124 C  
ENDROOT
BRANCH   2   3
HETATM    3  C   UNL     1      -7.181  11.668  68.925  1.00  0.00    -0.113 C  
HETATM    4  O   UNL     1      -6.362  11.282  69.752  1.00  0.00    -0.108 OA 
BRANCH   3   5
HETATM    5  C   UNL     1      -7.158  13.101  68.485  1.00  0.00    -0.105 A  
HETATM    6  C   UNL     1      -8.327  13.861  68.259  1.00  0.00    -0.163 A  
HETATM    7  C   UNL     1      -8.294  15.183  67.741  1.00  0.00    -0.151 A  
HETATM    8  C   UNL     1      -7.006  15.716  67.517  1.00  0.00    -0.189 A  
HETATM    9  S   UNL     1      -6.696  17.294  66.778  1.00  0.00    -0.237 SA 
HETATM   10  C   UNL     1      -5.838  14.986  67.817  1.00  0.00    -0.125 A  
HETATM   11  C   UNL     1      -8.309  18.018  66.757  1.00  0.00    -0.253 A  
HETATM   12  C   UNL     1      -5.914  13.683  68.282  1.00  0.00    -0.106 A  
HETATM   13  C   UNL     1      -8.351  19.345  66.285  1.00  0.00    -0.346 A  
HETATM   14  C   UNL     1      -9.542  20.052  66.247  1.00  0.00    -0.516 A  
HETATM   15  C   UNL     1     -10.677  19.467  66.786  1.00  0.00    -0.569 A  
HETATM   16  C   UNL     1     -10.617  18.165  67.301  1.00  0.00    -0.384 A  
HETATM   17  C   UNL     1      -9.474  17.349  67.188  1.00  0.00    -0.257 A  
HETATM   18  N   UNL     1      -9.483  15.951  67.472  1.00  0.00    -0.218 NA 
BRANCH  18  19
HETATM   19  C   UNL     1     -10.802  15.223  67.550  1.00  0.00    -0.304 C  
BRANCH  19  20
HETATM   20  C   UNL     1     -11.509  14.760  66.220  1.00  0.00    -0.316 C  
HETATM   21  C   UNL     1     -10.455  14.540  65.122  1.00  0.00    -0.439 C  
BRANCH  20  22
HETATM   22  N   UNL     1     -12.356  13.525  66.388  1.00  0.00    -0.391 NA 
HETATM   23  C   UNL     1     -11.695  12.541  67.262  1.00  0.00    -0.362 C  
HETATM   24  C   UNL     1     -12.657  12.862  65.111  1.00  0.00    -0.471 C  
ENDBRANCH  20  22
ENDBRANCH  19  20
ENDBRANCH  18  19
ENDBRANCH   3   5
ENDBRANCH   2   3
TORSDOF 5
ENDMDL
MODEL       45
REMARK 921   NORMALIZED FREE ENERGY PREDICTED BY IDOCK:   -4.98 KCAL/MOL
REMARK 922        TOTAL FREE ENERGY PREDICTED BY IDOCK:   -7.18 KCAL/MOL
REMARK 923 INTER-LIGAND FREE ENERGY PREDICTED BY IDOCK:   -6.53 KCAL/MOL
REMARK 924 INTRA-LIGAND FREE ENERGY PREDICTED BY IDOCK:   -0.64 KCAL/MOL
REMARK 927      BINDING AFFINITY PREDICTED BY RF-SCORE:    0.00 PKD
ROOT
HETATM    1  C   UNL     1      -8.735   7.997  72.729  1.00  0.00    -0.262 C  
HETATM    2  C   UNL     1     -10.187   7.907  73.172  1.00  0.00    -0.358 C  
ENDROOT
BRANCH   2   3
HETATM    3  C   UNL     1     -11.125   7.656  72.003  1.00  0.00    -0.255 C  
HETATM    4  O   UNL     1     -11.757   6.610  71.895  1.00  0.00    -0.283 OA 
BRANCH   3   5
HETATM    5  C   UNL     1     -11.297   8.726  70.968  1.00  0.00    -0.332 A  
HETATM    6  C   UNL     1     -10.660   8.694  69.708  1.00  0.00    -0.224 A  
HETATM    7  C   UNL     1     -10.745   9.763  68.777  1.00  0.00    -0.215 A  
HETATM    8  C   UNL     1     -11.560  10.847  69.170  1.00  0.00    -0.319 A  
HETATM    9  S   UNL     1     -11.744  12.343  68.242  1.00  0.00    -0.329 SA 
HETATM   10  C   UNL     1     -12.259  10.844  70.395  1.00  0.00    -0.453 A  
HETATM   11  C   UNL     1     -10.965  11.926  66.710  1.00  0.00    -0.292 A  
HETATM   12  C   UNL     1     -12.115   9.799  71.293  1.00  0.00    -0.470 A  
HETATM   13  C   UNL     1     -11.039  12.930  65.723  1.00  0.00    -0.312 A  
HETATM   14  C   UNL     1     -10.504  12.730  64.460  1.00  0.00    -0.392 A  
HETATM   15  C   UNL     1      -9.991  11.480  64.148  1.00  0.00    -0.327 A  
HETATM   16  C   UNL     1      -9.968  10.471  65.120  1.00  0.00    -0.375 A  
HETATM   17  C   UNL     1     -10.329  10.692  66.463  1.00  0.00    -0.241 A  
HETATM   18  N   UNL     1     -10.067   9.755  67.506  1.00  0.00    -0.184 NA 
BRANCH  18  19
HETATM   19  C   UNL     1      -9.065   8.651  67.270  1.00  0.00    -0.133 C  
BRANCH  19  20
HETATM   20  C   UNL     1      -9.498   7.378  66.448  1.00  0.00    -0.134 C  
HETATM   21  C   UNL     1      -8.378   6.987  65.470  1.00  0.00    -0.135 C  
BRANCH  20  22
HETATM   22  N   UNL     1      -9.871   6.202  67.314  1.00  0.00    -0.126 NA 
HETATM   23  C   UNL     1      -8.773   5.845  68.228  1.00  0.00    -0.112 C  
HETATM   24  C   UNL     1     -10.213   5.005  66.532  1.00  0.00    -0.271 C  
ENDBRANCH  20  22
ENDBRANCH  19  20
ENDBRANCH  18  19
ENDBRANCH   3   5
ENDBRANCH   2   3
TORSDOF 5
ENDMDL
MODEL       46
REMARK 921   NORMALIZED FREE ENERGY PREDICTED BY IDOCK:   -4.97 KCAL/MOL
REMARK 922        TOTAL FREE ENERGY PREDICTED BY IDOCK:   -7.16 KCAL/MOL
REMARK 923 INTER-LIGAND FREE ENERGY PREDICTED BY IDOCK:   -6.30 KCAL/MOL
REMARK 924 INTRA-LIGAND FREE ENERGY PREDICTED BY IDOCK:   -0.86 KCAL/MOL
REMARK 927      BINDING AFFINITY PREDICTED BY RF-SCORE:    0.00 PKD
ROOT
HETATM    1  C   UNL     1      -6.968   9.239  65.351  1.00  0.00    -0.085 C  
HETATM    2  C   UNL     1      -7.957   8.837  64.268  1.00  0.00    -0.146 C  
ENDROOT
BRANCH   2   3
HETATM    3  C   UNL     1      -9.123   9.808  64.172  1.00  0.00    -0.244 C  
HETATM    4  O   UNL     1      -9.536  10.217  63.092  1.00  0.00    -0.305 OA 
BRANCH   3   5
HETATM    5  C   UNL     1      -9.796  10.260  65.433  1.00  0.00    -0.362 A  
HETATM    6  C   UNL     1      -9.936  11.619  65.792  1.00  0.00    -0.270 A  
HETATM    7  C   UNL     1     -10.480  12.032  67.038  1.00  0.00    -0.221 A  
HETATM    8  C   UNL     1     -10.929  10.990  67.879  1.00  0.00    -0.264 A  
HETATM    9  S   UNL     1     -11.544  11.232  69.520  1.00  0.00    -0.360 SA 
HETATM   10  C   UNL     1     -10.862   9.637  67.487  1.00  0.00    -0.265 A  
HETATM   11  C   UNL     1     -11.721  12.990  69.595  1.00  0.00    -0.297 A  
HETATM   12  C   UNL     1     -10.284   9.276  66.280  1.00  0.00    -0.273 A  
HETATM   13  C   UNL     1     -12.287  13.472  70.792  1.00  0.00    -0.440 A  
HETATM   14  C   UNL     1     -12.520  14.826  70.978  1.00  0.00    -0.400 A  
HETATM   15  C   UNL     1     -12.287  15.689  69.919  1.00  0.00    -0.260 A  
HETATM   16  C   UNL     1     -11.771  15.195  68.713  1.00  0.00    -0.366 A  
HETATM   17  C   UNL     1     -11.349  13.861  68.550  1.00  0.00    -0.280 A  
HETATM   18  N   UNL     1     -10.592  13.414  67.427  1.00  0.00    -0.250 NA 
BRANCH  18  19
HETATM   19  C   UNL     1      -9.901  14.431  66.552  1.00  0.00    -0.287 C  
BRANCH  19  20
HETATM   20  C   UNL     1      -8.434  14.886  66.906  1.00  0.00    -0.223 C  
HETATM   21  C   UNL     1      -8.417  16.394  67.203  1.00  0.00    -0.208 C  
BRANCH  20  22
HETATM   22  N   UNL     1      -7.827  14.119  68.051  1.00  0.00    -0.131 NA 
HETATM   23  C   UNL     1      -7.665  14.975  69.238  1.00  0.00    -0.194 C  
HETATM   24  C   UNL     1      -6.513  13.549  67.723  1.00  0.00    -0.170 C  
ENDBRANCH  20  22
ENDBRANCH  19  20
ENDBRANCH  18  19
ENDBRANCH   3   5
ENDBRANCH   2   3
TORSDOF 5
ENDMDL
MODEL       47
REMARK 921   NORMALIZED FREE ENERGY PREDICTED BY IDOCK:   -4.97 KCAL/MOL
REMARK 922        TOTAL FREE ENERGY PREDICTED BY IDOCK:   -7.16 KCAL/MOL
REMARK 923 INTER-LIGAND FREE ENERGY PREDICTED BY IDOCK:   -6.74 KCAL/MOL
REMARK 924 INTRA-LIGAND FREE ENERGY PREDICTED BY IDOCK:   -0.42 KCAL/MOL
REMARK 927      BINDING AFFINITY PREDICTED BY RF-SCORE:    0.00 PKD
ROOT
HETATM    1  C   UNL     1     -12.408  12.273  63.603  1.00  0.00    -0.664 C  
HETATM    2  C   UNL     1     -11.183  11.901  64.426  1.00  0.00    -0.401 C  
ENDROOT
BRANCH   2   3
HETATM    3  C   UNL     1     -11.052  12.760  65.673  1.00  0.00    -0.279 C  
HETATM    4  O   UNL     1     -10.862  13.970  65.607  1.00  0.00    -0.284 OA 
BRANCH   3   5
HETATM    5  C   UNL     1     -11.180  12.111  67.017  1.00  0.00    -0.370 A  
HETATM    6  C   UNL     1     -10.842  10.762  67.262  1.00  0.00    -0.344 A  
HETATM    7  C   UNL     1     -11.066  10.128  68.513  1.00  0.00    -0.214 A  
HETATM    8  C   UNL     1     -11.601  10.956  69.525  1.00  0.00    -0.313 A  
HETATM    9  S   UNL     1     -12.072  10.384  71.132  1.00  0.00    -0.379 SA 
HETATM   10  C   UNL     1     -11.866  12.323  69.304  1.00  0.00    -0.363 A  
HETATM   11  C   UNL     1     -11.402   8.748  71.156  1.00  0.00    -0.285 A  
HETATM   12  C   UNL     1     -11.671  12.891  68.055  1.00  0.00    -0.401 A  
HETATM   13  C   UNL     1     -11.558   8.067  72.380  1.00  0.00    -0.450 A  
HETATM   14  C   UNL     1     -11.050   6.790  72.557  1.00  0.00    -0.299 A  
HETATM   15  C   UNL     1     -10.286   6.235  71.542  1.00  0.00    -0.243 A  
HETATM   16  C   UNL     1     -10.093   6.939  70.346  1.00  0.00    -0.201 A  
HETATM   17  C   UNL     1     -10.745   8.154  70.058  1.00  0.00    -0.243 A  
HETATM   18  N   UNL     1     -10.759   8.743  68.759  1.00  0.00    -0.137 NA 
BRANCH  18  19
HETATM   19  C   UNL     1     -10.386   7.900  67.564  1.00  0.00    -0.259 C  
BRANCH  19  20
HETATM   20  C   UNL     1      -8.912   7.956  67.010  1.00  0.00    -0.128 C  
HETATM   21  C   UNL     1      -7.984   8.576  68.068  1.00  0.00    -0.111 C  
BRANCH  20  22
HETATM   22  N   UNL     1      -8.383   6.615  66.572  1.00  0.00    -0.113 NA 
HETATM   23  C   UNL     1      -8.119   6.594  65.123  1.00  0.00    -0.133 C  
HETATM   24  C   UNL     1      -9.305   5.511  66.877  1.00  0.00    -0.127 C  
ENDBRANCH  20  22
ENDBRANCH  19  20
ENDBRANCH  18  19
ENDBRANCH   3   5
ENDBRANCH   2   3
TORSDOF 5
ENDMDL
MODEL       48
REMARK 921   NORMALIZED FREE ENERGY PREDICTED BY IDOCK:   -4.97 KCAL/MOL
REMARK 922        TOTAL FREE ENERGY PREDICTED BY IDOCK:   -7.16 KCAL/MOL
REMARK 923 INTER-LIGAND FREE ENERGY PREDICTED BY IDOCK:   -6.48 KCAL/MOL
REMARK 924 INTRA-LIGAND FREE ENERGY PREDICTED BY IDOCK:   -0.68 KCAL/MOL
REMARK 927      BINDING AFFINITY PREDICTED BY RF-SCORE:    0.00 PKD
ROOT
HETATM    1  C   UNL     1      -9.392  10.622  62.968  1.00  0.00    -0.342 C  
HETATM    2  C   UNL     1      -8.517  10.420  64.196  1.00  0.00    -0.163 C  
ENDROOT
BRANCH   2   3
HETATM    3  C   UNL     1      -8.465   8.963  64.625  1.00  0.00    -0.168 C  
HETATM    4  O   UNL     1      -7.843   8.123  63.984  1.00  0.00    -0.130 OA 
BRANCH   3   5
HETATM    5  C   UNL     1      -9.178   8.549  65.876  1.00  0.00    -0.245 A  
HETATM    6  C   UNL     1      -9.733   9.470  66.792  1.00  0.00    -0.254 A  
HETATM    7  C   UNL     1     -10.312   9.071  68.027  1.00  0.00    -0.224 A  
HETATM    8  C   UNL     1     -10.349   7.678  68.258  1.00  0.00    -0.198 A  
HETATM    9  S   UNL     1     -10.916   6.933  69.759  1.00  0.00    -0.268 SA 
HETATM   10  C   UNL     1      -9.865   6.755  67.309  1.00  0.00    -0.187 A  
HETATM   11  C   UNL     1     -11.653   8.304  70.598  1.00  0.00    -0.191 A  
HETATM   12  C   UNL     1      -9.269   7.189  66.135  1.00  0.00    -0.126 A  
HETATM   13  C   UNL     1     -12.278   7.978  71.819  1.00  0.00    -0.352 A  
HETATM   14  C   UNL     1     -12.929   8.945  72.569  1.00  0.00    -0.415 A  
HETATM   15  C   UNL     1     -13.050  10.221  72.042  1.00  0.00    -0.529 A  
HETATM   16  C   UNL     1     -12.469  10.525  70.803  1.00  0.00    -0.472 A  
HETATM   17  C   UNL     1     -11.645   9.624  70.102  1.00  0.00    -0.141 A  
HETATM   18  N   UNL     1     -10.847  10.006  68.983  1.00  0.00    -0.219 NA 
BRANCH  18  19
HETATM   19  C   UNL     1     -10.576  11.470  68.735  1.00  0.00    -0.211 C  
BRANCH  19  20
HETATM   20  C   UNL     1     -11.592  12.307  67.869  1.00  0.00    -0.354 C  
HETATM   21  C   UNL     1     -11.989  13.585  68.627  1.00  0.00    -0.378 C  
BRANCH  20  22
HETATM   22  N   UNL     1     -11.072  12.652  66.498  1.00  0.00    -0.270 NA 
HETATM   23  C   UNL     1     -10.695  14.072  66.413  1.00  0.00    -0.278 C  
HETATM   24  C   UNL     1     -12.048  12.380  65.433  1.00  0.00    -0.365 C  
ENDBRANCH  20  22
ENDBRANCH  19  20
ENDBRANCH  18  19
ENDBRANCH   3   5
ENDBRANCH   2   3
TORSDOF 5
ENDMDL
MODEL       49
REMARK 921   NORMALIZED FREE ENERGY PREDICTED BY IDOCK:   -4.97 KCAL/MOL
REMARK 922        TOTAL FREE ENERGY PREDICTED BY IDOCK:   -7.15 KCAL/MOL
REMARK 923 INTER-LIGAND FREE ENERGY PREDICTED BY IDOCK:   -6.46 KCAL/MOL
REMARK 924 INTRA-LIGAND FREE ENERGY PREDICTED BY IDOCK:   -0.69 KCAL/MOL
REMARK 927      BINDING AFFINITY PREDICTED BY RF-SCORE:    0.00 PKD
ROOT
HETATM    1  C   UNL     1      -9.715  16.777  65.974  1.00  0.00    -0.287 C  
HETATM    2  C   UNL     1      -9.077  15.422  66.245  1.00  0.00    -0.355 C  
ENDROOT
BRANCH   2   3
HETATM    3  C   UNL     1     -10.056  14.279  66.032  1.00  0.00    -0.318 C  
HETATM    4  O   UNL     1     -10.446  13.962  64.914  1.00  0.00    -0.386 OA 
BRANCH   3   5
HETATM    5  C   UNL     1     -10.539  13.507  67.222  1.00  0.00    -0.263 A  
HETATM    6  C   UNL     1      -9.897  12.344  67.704  1.00  0.00    -0.198 A  
HETATM    7  C   UNL     1     -10.423  11.561  68.766  1.00  0.00    -0.204 A  
HETATM    8  C   UNL     1     -11.609  12.053  69.354  1.00  0.00    -0.330 A  
HETATM    9  S   UNL     1     -12.520  11.209  70.615  1.00  0.00    -0.345 SA 
HETATM   10  C   UNL     1     -12.207  13.256  68.925  1.00  0.00    -0.133 A  
HETATM   11  C   UNL     1     -11.405   9.916  71.075  1.00  0.00    -0.386 A  
HETATM   12  C   UNL     1     -11.684  13.967  67.856  1.00  0.00    -0.397 A  
HETATM   13  C   UNL     1     -11.846   9.115  72.147  1.00  0.00    -0.333 A  
HETATM   14  C   UNL     1     -11.060   8.085  72.641  1.00  0.00    -0.453 A  
HETATM   15  C   UNL     1      -9.780   7.927  72.131  1.00  0.00    -0.257 A  
HETATM   16  C   UNL     1      -9.330   8.760  71.098  1.00  0.00    -0.297 A  
HETATM   17  C   UNL     1     -10.162   9.691  70.447  1.00  0.00    -0.288 A  
HETATM   18  N   UNL     1      -9.795  10.354  69.238  1.00  0.00    -0.222 NA 
BRANCH  18  19
HETATM   19  C   UNL     1      -8.653   9.808  68.416  1.00  0.00    -0.119 C  
BRANCH  19  20
HETATM   20  C   UNL     1      -8.951   8.741  67.294  1.00  0.00    -0.132 C  
HETATM   21  C   UNL     1     -10.455   8.422  67.268  1.00  0.00    -0.373 C  
BRANCH  20  22
HETATM   22  N   UNL     1      -8.480   9.160  65.926  1.00  0.00    -0.135 NA 
HETATM   23  C   UNL     1      -8.097   7.992  65.114  1.00  0.00    -0.143 C  
HETATM   24  C   UNL     1      -7.329  10.072  65.974  1.00  0.00    -0.112 C  
ENDBRANCH  20  22
ENDBRANCH  19  20
ENDBRANCH  18  19
ENDBRANCH   3   5
ENDBRANCH   2   3
TORSDOF 5
ENDMDL
MODEL       50
REMARK 921   NORMALIZED FREE ENERGY PREDICTED BY IDOCK:   -4.93 KCAL/MOL
REMARK 922        TOTAL FREE ENERGY PREDICTED BY IDOCK:   -7.11 KCAL/MOL
REMARK 923 INTER-LIGAND FREE ENERGY PREDICTED BY IDOCK:   -6.61 KCAL/MOL
REMARK 924 INTRA-LIGAND FREE ENERGY PREDICTED BY IDOCK:   -0.49 KCAL/MOL
REMARK 927      BINDING AFFINITY PREDICTED BY RF-SCORE:    0.00 PKD
ROOT
HETATM    1  C   UNL     1      -9.361   7.979  71.689  1.00  0.00    -0.208 C  
HETATM    2  C   UNL     1     -10.223   7.131  70.765  1.00  0.00    -0.208 C  
ENDROOT
BRANCH   2   3
HETATM    3  C   UNL     1      -9.535   6.856  69.438  1.00  0.00    -0.148 C  
HETATM    4  O   UNL     1      -8.905   5.823  69.239  1.00  0.00    -0.115 OA 
BRANCH   3   5
HETATM    5  C   UNL     1      -9.648   7.868  68.339  1.00  0.00    -0.155 A  
HETATM    6  C   UNL     1     -10.464   9.017  68.425  1.00  0.00    -0.234 A  
HETATM    7  C   UNL     1     -10.646   9.913  67.337  1.00  0.00    -0.277 A  
HETATM    8  C   UNL     1      -9.908   9.611  66.172  1.00  0.00    -0.265 A  
HETATM    9  S   UNL     1     -10.041  10.505  64.650  1.00  0.00    -0.288 SA 
HETATM   10  C   UNL     1      -9.033   8.508  66.113  1.00  0.00    -0.220 A  
HETATM   11  C   UNL     1     -10.995  11.915  65.130  1.00  0.00    -0.312 A  
HETATM   12  C   UNL     1      -8.917   7.634  67.183  1.00  0.00    -0.137 A  
HETATM   13  C   UNL     1     -11.190  12.866  64.109  1.00  0.00    -0.432 A  
HETATM   14  C   UNL     1     -11.887  14.040  64.349  1.00  0.00    -0.453 A  
HETATM   15  C   UNL     1     -12.296  14.313  65.645  1.00  0.00    -0.416 A  
HETATM   16  C   UNL     1     -12.054  13.384  66.666  1.00  0.00    -0.429 A  
HETATM   17  C   UNL     1     -11.517  12.104  66.426  1.00  0.00    -0.370 A  
HETATM   18  N   UNL     1     -11.506  11.066  67.405  1.00  0.00    -0.502 NA 
BRANCH  18  19
HETATM   19  C   UNL     1     -12.401  11.185  68.614  1.00  0.00     0.301 C  
BRANCH  19  20
HETATM   20  C   UNL     1     -11.819  11.788  69.949  1.00  0.00    -0.348 C  
HETATM   21  C   UNL     1     -12.083  13.303  69.993  1.00  0.00    -0.385 C  
BRANCH  20  22
HETATM   22  N   UNL     1     -12.357  11.127  71.192  1.00  0.00    -0.364 NA 
HETATM   23  C   UNL     1     -13.111   9.907  70.862  1.00  0.00    -0.274 C  
HETATM   24  C   UNL     1     -13.241  12.007  71.969  1.00  0.00    -0.375 C  
ENDBRANCH  20  22
ENDBRANCH  19  20
ENDBRANCH  18  19
ENDBRANCH   3   5
ENDBRANCH   2   3
TORSDOF 5
ENDMDL
MODEL       51
REMARK 921   NORMALIZED FREE ENERGY PREDICTED BY IDOCK:   -4.92 KCAL/MOL
REMARK 922        TOTAL FREE ENERGY PREDICTED BY IDOCK:   -7.10 KCAL/MOL
REMARK 923 INTER-LIGAND FREE ENERGY PREDICTED BY IDOCK:   -6.46 KCAL/MOL
REMARK 924 INTRA-LIGAND FREE ENERGY PREDICTED BY IDOCK:   -0.64 KCAL/MOL
REMARK 927      BINDING AFFINITY PREDICTED BY RF-SCORE:    0.00 PKD
ROOT
HETATM    1  C   UNL     1     -12.354  12.031  63.337  1.00  0.00    -0.635 C  
HETATM    2  C   UNL     1     -12.381  12.769  64.667  1.00  0.00    -0.524 C  
ENDROOT
BRANCH   2   3
HETATM    3  C   UNL     1     -12.033  14.240  64.510  1.00  0.00    -0.462 C  
HETATM    4  O   UNL     1     -12.622  14.962  63.713  1.00  0.00    -0.791 OA 
BRANCH   3   5
HETATM    5  C   UNL     1     -10.954  14.826  65.370  1.00  0.00    -0.365 A  
HETATM    6  C   UNL     1     -10.134  14.051  66.220  1.00  0.00    -0.307 A  
HETATM    7  C   UNL     1      -9.187  14.627  67.108  1.00  0.00    -0.221 A  
HETATM    8  C   UNL     1      -9.075  16.034  67.047  1.00  0.00    -0.214 A  
HETATM    9  S   UNL     1      -8.052  16.998  68.121  1.00  0.00    -0.220 SA 
HETATM   10  C   UNL     1      -9.838  16.801  66.142  1.00  0.00    -0.330 A  
HETATM   11  C   UNL     1      -7.086  15.756  68.928  1.00  0.00    -0.139 A  
HETATM   12  C   UNL     1     -10.781  16.202  65.322  1.00  0.00    -0.386 A  
HETATM   13  C   UNL     1      -6.101  16.256  69.803  1.00  0.00    -0.198 A  
HETATM   14  C   UNL     1      -5.244  15.399  70.478  1.00  0.00    -0.138 A  
HETATM   15  C   UNL     1      -5.302  14.044  70.192  1.00  0.00    -0.098 A  
HETATM   16  C   UNL     1      -6.252  13.561  69.282  1.00  0.00    -0.105 A  
HETATM   17  C   UNL     1      -7.257  14.372  68.720  1.00  0.00    -0.128 A  
HETATM   18  N   UNL     1      -8.374  13.847  68.005  1.00  0.00    -0.154 NA 
BRANCH  18  19
HETATM   19  C   UNL     1      -8.713  12.382  68.139  1.00  0.00    -0.190 C  
BRANCH  19  20
HETATM   20  C   UNL     1      -8.094  11.350  67.121  1.00  0.00    -0.155 C  
HETATM   21  C   UNL     1      -7.045  10.482  67.835  1.00  0.00    -0.083 C  
BRANCH  20  22
HETATM   22  N   UNL     1      -9.123  10.481  66.446  1.00  0.00    -0.159 NA 
HETATM   23  C   UNL     1      -9.280  10.845  65.028  1.00  0.00    -0.207 C  
HETATM   24  C   UNL     1     -10.445  10.563  67.082  1.00  0.00    -0.249 C  
ENDBRANCH  20  22
ENDBRANCH  19  20
ENDBRANCH  18  19
ENDBRANCH   3   5
ENDBRANCH   2   3
TORSDOF 5
ENDMDL
MODEL       52
REMARK 921   NORMALIZED FREE ENERGY PREDICTED BY IDOCK:   -4.90 KCAL/MOL
REMARK 922        TOTAL FREE ENERGY PREDICTED BY IDOCK:   -7.07 KCAL/MOL
REMARK 923 INTER-LIGAND FREE ENERGY PREDICTED BY IDOCK:   -6.74 KCAL/MOL
REMARK 924 INTRA-LIGAND FREE ENERGY PREDICTED BY IDOCK:   -0.33 KCAL/MOL
REMARK 927      BINDING AFFINITY PREDICTED BY RF-SCORE:    0.00 PKD
ROOT
HETATM    1  C   UNL     1     -10.650   6.726  73.206  1.00  0.00    -0.335 C  
HETATM    2  C   UNL     1      -9.882   7.931  72.683  1.00  0.00    -0.316 C  
ENDROOT
BRANCH   2   3
HETATM    3  C   UNL     1     -10.758   8.841  71.838  1.00  0.00    -0.359 C  
HETATM    4  O   UNL     1     -11.685   9.480  72.325  1.00  0.00    -0.108 OA 
BRANCH   3   5
HETATM    5  C   UNL     1     -10.466   8.976  70.374  1.00  0.00    -0.254 A  
HETATM    6  C   UNL     1     -10.837  10.105  69.610  1.00  0.00    -0.299 A  
HETATM    7  C   UNL     1     -10.650  10.176  68.204  1.00  0.00    -0.223 A  
HETATM    8  C   UNL     1     -10.011   9.060  67.620  1.00  0.00    -0.201 A  
HETATM    9  S   UNL     1      -9.760   8.855  65.880  1.00  0.00    -0.096 SA 
HETATM   10  C   UNL     1      -9.570   7.967  68.393  1.00  0.00    -0.155 A  
HETATM   11  C   UNL     1     -10.187  10.453  65.253  1.00  0.00    -0.262 A  
HETATM   12  C   UNL     1      -9.811   7.919  69.757  1.00  0.00    -0.179 A  
HETATM   13  C   UNL     1      -9.995  10.609  63.865  1.00  0.00    -0.390 A  
HETATM   14  C   UNL     1     -10.252  11.819  63.240  1.00  0.00    -0.452 A  
HETATM   15  C   UNL     1     -10.598  12.909  64.024  1.00  0.00    -0.418 A  
HETATM   16  C   UNL     1     -10.738  12.758  65.411  1.00  0.00    -0.309 A  
HETATM   17  C   UNL     1     -10.667  11.508  66.056  1.00  0.00    -0.281 A  
HETATM   18  N   UNL     1     -11.060  11.307  67.413  1.00  0.00    -0.280 NA 
BRANCH  18  19
HETATM   19  C   UNL     1     -11.910  12.350  68.096  1.00  0.00    -0.315 C  
BRANCH  19  20
HETATM   20  C   UNL     1     -11.222  13.416  69.030  1.00  0.00    -0.275 C  
HETATM   21  C   UNL     1      -9.812  13.734  68.505  1.00  0.00    -0.204 C  
BRANCH  20  22
HETATM   22  N   UNL     1     -12.021  14.684  69.185  1.00  0.00    -0.308 NA 
HETATM   23  C   UNL     1     -11.403  15.797  68.445  1.00  0.00    -0.372 C  
HETATM   24  C   UNL     1     -12.164  15.100  70.588  1.00  0.00    -0.351 C  
ENDBRANCH  20  22
ENDBRANCH  19  20
ENDBRANCH  18  19
ENDBRANCH   3   5
ENDBRANCH   2   3
TORSDOF 5
ENDMDL
MODEL       53
REMARK 921   NORMALIZED FREE ENERGY PREDICTED BY IDOCK:   -4.90 KCAL/MOL
REMARK 922        TOTAL FREE ENERGY PREDICTED BY IDOCK:   -7.07 KCAL/MOL
REMARK 923 INTER-LIGAND FREE ENERGY PREDICTED BY IDOCK:   -6.53 KCAL/MOL
REMARK 924 INTRA-LIGAND FREE ENERGY PREDICTED BY IDOCK:   -0.54 KCAL/MOL
REMARK 927      BINDING AFFINITY PREDICTED BY RF-SCORE:    0.00 PKD
ROOT
HETATM    1  C   UNL     1      -9.426   3.673  68.099  1.00  0.00    -0.215 C  
HETATM    2  C   UNL     1      -9.764   4.674  69.195  1.00  0.00    -0.255 C  
ENDROOT
BRANCH   2   3
HETATM    3  C   UNL     1      -9.724   6.107  68.689  1.00  0.00    -0.128 C  
HETATM    4  O   UNL     1      -9.044   6.432  67.722  1.00  0.00    -0.114 OA 
BRANCH   3   5
HETATM    5  C   UNL     1     -10.556   7.143  69.381  1.00  0.00    -0.246 A  
HETATM    6  C   UNL     1     -10.403   8.531  69.165  1.00  0.00    -0.227 A  
HETATM    7  C   UNL     1     -11.123   9.507  69.904  1.00  0.00    -0.216 A  
HETATM    8  C   UNL     1     -12.052   8.998  70.838  1.00  0.00    -0.198 A  
HETATM    9  S   UNL     1     -12.991  10.000  71.955  1.00  0.00    -0.440 SA 
HETATM   10  C   UNL     1     -12.262   7.613  70.998  1.00  0.00    -0.261 A  
HETATM   11  C   UNL     1     -12.685  11.629  71.339  1.00  0.00    -0.339 A  
HETATM   12  C   UNL     1     -11.508   6.694  70.287  1.00  0.00    -0.449 A  
HETATM   13  C   UNL     1     -13.393  12.650  72.004  1.00  0.00    -0.555 A  
HETATM   14  C   UNL     1     -13.279  13.974  71.607  1.00  0.00    -0.442 A  
HETATM   15  C   UNL     1     -12.541  14.263  70.470  1.00  0.00    -0.418 A  
HETATM   16  C   UNL     1     -11.881  13.234  69.784  1.00  0.00    -0.394 A  
HETATM   17  C   UNL     1     -11.819  11.911  70.262  1.00  0.00    -0.281 A  
HETATM   18  N   UNL     1     -10.945  10.924  69.717  1.00  0.00    -0.250 NA 
BRANCH  18  19
HETATM   19  C   UNL     1      -9.791  11.361  68.848  1.00  0.00    -0.112 C  
BRANCH  19  20
HETATM   20  C   UNL     1     -10.021  11.566  67.303  1.00  0.00    -0.191 C  
HETATM   21  C   UNL     1     -10.022  13.068  66.973  1.00  0.00    -0.242 C  
BRANCH  20  22
HETATM   22  N   UNL     1      -9.017  10.841  66.444  1.00  0.00    -0.162 NA 
HETATM   23  C   UNL     1      -9.673   9.833  65.594  1.00  0.00    -0.288 C  
HETATM   24  C   UNL     1      -7.979  10.161  67.231  1.00  0.00    -0.110 C  
ENDBRANCH  20  22
ENDBRANCH  19  20
ENDBRANCH  18  19
ENDBRANCH   3   5
ENDBRANCH   2   3
TORSDOF 5
ENDMDL
MODEL       54
REMARK 921   NORMALIZED FREE ENERGY PREDICTED BY IDOCK:   -4.88 KCAL/MOL
REMARK 922        TOTAL FREE ENERGY PREDICTED BY IDOCK:   -7.05 KCAL/MOL
REMARK 923 INTER-LIGAND FREE ENERGY PREDICTED BY IDOCK:   -6.52 KCAL/MOL
REMARK 924 INTRA-LIGAND FREE ENERGY PREDICTED BY IDOCK:   -0.52 KCAL/MOL
REMARK 927      BINDING AFFINITY PREDICTED BY RF-SCORE:    0.00 PKD
ROOT
HETATM    1  C   UNL     1      -8.621   9.968  69.500  1.00  0.00    -0.197 C  
HETATM    2  C   UNL     1      -7.310  10.677  69.194  1.00  0.00    -0.111 C  
ENDROOT
BRANCH   2   3
HETATM    3  C   UNL     1      -7.417  11.568  67.968  1.00  0.00    -0.098 C  
HETATM    4  O   UNL     1      -7.428  11.106  66.832  1.00  0.00    -0.124 OA 
BRANCH   3   5
HETATM    5  C   UNL     1      -7.531  13.051  68.157  1.00  0.00    -0.130 A  
HETATM    6  C   UNL     1      -8.363  13.871  67.363  1.00  0.00    -0.208 A  
HETATM    7  C   UNL     1      -8.384  15.286  67.480  1.00  0.00    -0.175 A  
HETATM    8  C   UNL     1      -7.555  15.824  68.488  1.00  0.00    -0.138 A  
HETATM    9  S   UNL     1      -7.319  17.556  68.765  1.00  0.00    -0.246 SA 
HETATM   10  C   UNL     1      -6.783  15.000  69.333  1.00  0.00    -0.158 A  
HETATM   11  C   UNL     1      -8.572  18.269  67.741  1.00  0.00    -0.256 A  
HETATM   12  C   UNL     1      -6.760  13.626  69.157  1.00  0.00    -0.109 A  
HETATM   13  C   UNL     1      -8.674  19.672  67.830  1.00  0.00    -0.372 A  
HETATM   14  C   UNL     1      -9.637  20.365  67.112  1.00  0.00    -0.587 A  
HETATM   15  C   UNL     1     -10.571  19.641  66.387  1.00  0.00    -0.592 A  
HETATM   16  C   UNL     1     -10.493  18.243  66.344  1.00  0.00    -0.387 A  
HETATM   17  C   UNL     1      -9.425  17.517  66.906  1.00  0.00    -0.274 A  
HETATM   18  N   UNL     1      -9.202  16.132  66.649  1.00  0.00    -0.226 NA 
BRANCH  18  19
HETATM   19  C   UNL     1      -9.891  15.480  65.475  1.00  0.00    -0.313 C  
BRANCH  19  20
HETATM   20  C   UNL     1     -11.360  14.937  65.646  1.00  0.00    -0.325 C  
HETATM   21  C   UNL     1     -12.073  14.930  64.284  1.00  0.00    -0.373 C  
BRANCH  20  22
HETATM   22  N   UNL     1     -11.427  13.571  66.279  1.00  0.00    -0.316 NA 
HETATM   23  C   UNL     1     -12.211  12.639  65.452  1.00  0.00    -0.459 C  
HETATM   24  C   UNL     1     -12.023  13.593  67.622  1.00  0.00    -0.351 C  
ENDBRANCH  20  22
ENDBRANCH  19  20
ENDBRANCH  18  19
ENDBRANCH   3   5
ENDBRANCH   2   3
TORSDOF 5
ENDMDL
MODEL       55
REMARK 921   NORMALIZED FREE ENERGY PREDICTED BY IDOCK:   -4.88 KCAL/MOL
REMARK 922        TOTAL FREE ENERGY PREDICTED BY IDOCK:   -7.04 KCAL/MOL
REMARK 923 INTER-LIGAND FREE ENERGY PREDICTED BY IDOCK:   -6.62 KCAL/MOL
REMARK 924 INTRA-LIGAND FREE ENERGY PREDICTED BY IDOCK:   -0.42 KCAL/MOL
REMARK 927      BINDING AFFINITY PREDICTED BY RF-SCORE:    0.00 PKD
ROOT
HETATM    1  C   UNL     1     -11.641  15.790  71.516  1.00  0.00    -0.531 C  
HETATM    2  C   UNL     1     -12.480  15.251  70.367  1.00  0.00    -0.426 C  
ENDROOT
BRANCH   2   3
HETATM    3  C   UNL     1     -12.152  13.800  70.054  1.00  0.00    -0.349 C  
HETATM    4  O   UNL     1     -12.170  12.932  70.921  1.00  0.00    -0.347 OA 
BRANCH   3   5
HETATM    5  C   UNL     1     -11.819  13.418  68.644  1.00  0.00    -0.397 A  
HETATM    6  C   UNL     1     -10.985  12.328  68.313  1.00  0.00    -0.268 A  
HETATM    7  C   UNL     1     -10.591  12.041  66.978  1.00  0.00    -0.227 A  
HETATM    8  C   UNL     1     -11.136  12.887  65.989  1.00  0.00    -0.281 A  
HETATM    9  S   UNL     1     -10.718  12.808  64.271  1.00  0.00    -0.417 SA 
HETATM   10  C   UNL     1     -12.032  13.927  66.311  1.00  0.00    -0.462 A  
HETATM   11  C   UNL     1      -9.804  11.297  64.181  1.00  0.00    -0.279 A  
HETATM   12  C   UNL     1     -12.357  14.200  67.631  1.00  0.00    -0.073 A  
HETATM   13  C   UNL     1      -9.406  10.929  62.880  1.00  0.00    -0.367 A  
HETATM   14  C   UNL     1      -8.713   9.750  62.651  1.00  0.00    -0.230 A  
HETATM   15  C   UNL     1      -8.515   8.882  63.714  1.00  0.00    -0.147 A  
HETATM   16  C   UNL     1      -8.958   9.233  64.996  1.00  0.00    -0.245 A  
HETATM   17  C   UNL     1      -9.497  10.498  65.301  1.00  0.00    -0.229 A  
HETATM   18  N   UNL     1      -9.710  10.954  66.636  1.00  0.00    -0.185 NA 
BRANCH  18  19
HETATM   19  C   UNL     1      -9.024  10.241  67.776  1.00  0.00    -0.134 C  
BRANCH  19  20
HETATM   20  C   UNL     1      -9.888   9.403  68.794  1.00  0.00    -0.163 C  
HETATM   21  C   UNL     1     -10.517   8.200  68.071  1.00  0.00    -0.242 C  
BRANCH  20  22
HETATM   22  N   UNL     1      -9.114   8.942  70.002  1.00  0.00    -0.157 NA 
HETATM   23  C   UNL     1      -9.875   9.173  71.241  1.00  0.00    -0.293 C  
HETATM   24  C   UNL     1      -7.815   9.615  70.138  1.00  0.00    -0.174 C  
ENDBRANCH  20  22
ENDBRANCH  19  20
ENDBRANCH  18  19
ENDBRANCH   3   5
ENDBRANCH   2   3
TORSDOF 5
ENDMDL
MODEL       56
REMARK 921   NORMALIZED FREE ENERGY PREDICTED BY IDOCK:   -4.86 KCAL/MOL
REMARK 922        TOTAL FREE ENERGY PREDICTED BY IDOCK:   -7.02 KCAL/MOL
REMARK 923 INTER-LIGAND FREE ENERGY PREDICTED BY IDOCK:   -6.19 KCAL/MOL
REMARK 924 INTRA-LIGAND FREE ENERGY PREDICTED BY IDOCK:   -0.83 KCAL/MOL
REMARK 927      BINDING AFFINITY PREDICTED BY RF-SCORE:    0.00 PKD
ROOT
HETATM    1  C   UNL     1     -10.559  19.772  66.025  1.00  0.00    -0.573 C  
HETATM    2  C   UNL     1      -9.268  20.197  66.708  1.00  0.00    -0.487 C  
ENDROOT
BRANCH   2   3
HETATM    3  C   UNL     1      -8.057  19.478  66.135  1.00  0.00    -0.333 C  
HETATM    4  O   UNL     1      -7.383  19.965  65.234  1.00  0.00    -0.362 OA 
BRANCH   3   5
HETATM    5  C   UNL     1      -7.667  18.147  66.703  1.00  0.00    -0.264 A  
HETATM    6  C   UNL     1      -8.351  16.948  66.405  1.00  0.00    -0.333 A  
HETATM    7  C   UNL     1      -8.039  15.711  67.032  1.00  0.00    -0.241 A  
HETATM    8  C   UNL     1      -6.956  15.745  67.937  1.00  0.00    -0.140 A  
HETATM    9  S   UNL     1      -6.441  14.369  68.924  1.00  0.00    -0.100 SA 
HETATM   10  C   UNL     1      -6.224  16.925  68.176  1.00  0.00    -0.135 A  
HETATM   11  C   UNL     1      -7.372  13.039  68.222  1.00  0.00    -0.116 A  
HETATM   12  C   UNL     1      -6.588  18.120  67.575  1.00  0.00    -0.197 A  
HETATM   13  C   UNL     1      -7.091  11.772  68.772  1.00  0.00    -0.111 A  
HETATM   14  C   UNL     1      -7.719  10.632  68.295  1.00  0.00    -0.107 A  
HETATM   15  C   UNL     1      -8.548  10.745  67.190  1.00  0.00    -0.128 A  
HETATM   16  C   UNL     1      -8.782  12.002  66.616  1.00  0.00    -0.171 A  
HETATM   17  C   UNL     1      -8.313  13.203  67.184  1.00  0.00    -0.140 A  
HETATM   18  N   UNL     1      -8.756  14.491  66.761  1.00  0.00    -0.218 NA 
BRANCH  18  19
HETATM   19  C   UNL     1     -10.017  14.604  65.940  1.00  0.00    -0.328 C  
BRANCH  19  20
HETATM   20  C   UNL     1     -11.401  14.789  66.670  1.00  0.00    -0.347 C  
HETATM   21  C   UNL     1     -12.390  13.715  66.188  1.00  0.00    -0.476 C  
BRANCH  20  22
HETATM   22  N   UNL     1     -11.295  14.766  68.173  1.00  0.00    -0.293 NA 
HETATM   23  C   UNL     1     -12.111  13.683  68.748  1.00  0.00    -0.297 C  
HETATM   24  C   UNL     1     -11.721  16.029  68.794  1.00  0.00    -0.299 C  
ENDBRANCH  20  22
ENDBRANCH  19  20
ENDBRANCH  18  19
ENDBRANCH   3   5
ENDBRANCH   2   3
TORSDOF 5
ENDMDL
MODEL       57
REMARK 921   NORMALIZED FREE ENERGY PREDICTED BY IDOCK:   -4.85 KCAL/MOL
REMARK 922        TOTAL FREE ENERGY PREDICTED BY IDOCK:   -7.00 KCAL/MOL
REMARK 923 INTER-LIGAND FREE ENERGY PREDICTED BY IDOCK:   -6.44 KCAL/MOL
REMARK 924 INTRA-LIGAND FREE ENERGY PREDICTED BY IDOCK:   -0.56 KCAL/MOL
REMARK 927      BINDING AFFINITY PREDICTED BY RF-SCORE:    0.00 PKD
ROOT
HETATM    1  C   UNL     1     -13.125  15.219  71.403  1.00  0.00    -0.529 C  
HETATM    2  C   UNL     1     -12.420  13.954  70.936  1.00  0.00    -0.447 C  
ENDROOT
BRANCH   2   3
HETATM    3  C   UNL     1     -12.104  13.994  69.450  1.00  0.00    -0.340 C  
HETATM    4  O   UNL     1     -12.132  15.041  68.812  1.00  0.00    -0.272 OA 
BRANCH   3   5
HETATM    5  C   UNL     1     -11.728  12.721  68.754  1.00  0.00    -0.363 A  
HETATM    6  C   UNL     1     -11.588  11.485  69.422  1.00  0.00    -0.388 A  
HETATM    7  C   UNL     1     -11.129  10.308  68.772  1.00  0.00    -0.228 A  
HETATM    8  C   UNL     1     -10.873  10.439  67.389  1.00  0.00    -0.286 A  
HETATM    9  S   UNL     1     -10.192   9.157  66.377  1.00  0.00    -0.160 SA 
HETATM   10  C   UNL     1     -11.088  11.654  66.706  1.00  0.00    -0.366 A  
HETATM   11  C   UNL     1     -10.276   7.754  67.450  1.00  0.00    -0.251 A  
HETATM   12  C   UNL     1     -11.497  12.789  67.387  1.00  0.00    -0.396 A  
HETATM   13  C   UNL     1      -9.866   6.541  66.861  1.00  0.00    -0.211 A  
HETATM   14  C   UNL     1      -9.912   5.351  67.571  1.00  0.00    -0.198 A  
HETATM   15  C   UNL     1     -10.474   5.357  68.839  1.00  0.00    -0.238 A  
HETATM   16  C   UNL     1     -10.926   6.561  69.398  1.00  0.00    -0.395 A  
HETATM   17  C   UNL     1     -10.727   7.813  68.785  1.00  0.00    -0.062 A  
HETATM   18  N   UNL     1     -10.947   9.053  69.454  1.00  0.00    -0.131 NA 
BRANCH  18  19
HETATM   19  C   UNL     1     -11.051   9.069  70.960  1.00  0.00    -0.289 C  
BRANCH  19  20
HETATM   20  C   UNL     1      -9.737   8.974  71.825  1.00  0.00    -0.241 C  
HETATM   21  C   UNL     1      -9.967   8.027  73.015  1.00  0.00    -0.349 C  
BRANCH  20  22
HETATM   22  N   UNL     1      -8.528   8.541  71.038  1.00  0.00    -0.141 NA 
HETATM   23  C   UNL     1      -7.695   7.606  71.812  1.00  0.00    -0.086 C  
HETATM   24  C   UNL     1      -7.679   9.669  70.629  1.00  0.00    -0.068 C  
ENDBRANCH  20  22
ENDBRANCH  19  20
ENDBRANCH  18  19
ENDBRANCH   3   5
ENDBRANCH   2   3
TORSDOF 5
ENDMDL
MODEL       58
REMARK 921   NORMALIZED FREE ENERGY PREDICTED BY IDOCK:   -4.84 KCAL/MOL
REMARK 922        TOTAL FREE ENERGY PREDICTED BY IDOCK:   -6.99 KCAL/MOL
REMARK 923 INTER-LIGAND FREE ENERGY PREDICTED BY IDOCK:   -6.24 KCAL/MOL
REMARK 924 INTRA-LIGAND FREE ENERGY PREDICTED BY IDOCK:   -0.75 KCAL/MOL
REMARK 927      BINDING AFFINITY PREDICTED BY RF-SCORE:    0.00 PKD
ROOT
HETATM    1  C   UNL     1     -11.086   4.958  73.065  1.00  0.00    -0.368 C  
HETATM    2  C   UNL     1     -11.471   6.006  72.031  1.00  0.00    -0.343 C  
ENDROOT
BRANCH   2   3
HETATM    3  C   UNL     1     -11.113   7.412  72.485  1.00  0.00    -0.304 C  
HETATM    4  O   UNL     1     -10.589   7.626  73.573  1.00  0.00    -0.343 OA 
BRANCH   3   5
HETATM    5  C   UNL     1     -11.393   8.564  71.567  1.00  0.00    -0.348 A  
HETATM    6  C   UNL     1     -10.831   8.680  70.277  1.00  0.00    -0.250 A  
HETATM    7  C   UNL     1     -11.017   9.826  69.458  1.00  0.00    -0.227 A  
HETATM    8  C   UNL     1     -11.855  10.827  69.997  1.00  0.00    -0.344 A  
HETATM    9  S   UNL     1     -12.158  12.391  69.228  1.00  0.00    -0.078 SA 
HETATM   10  C   UNL     1     -12.479  10.677  71.253  1.00  0.00    -0.515 A  
HETATM   11  C   UNL     1     -11.455  12.158  67.622  1.00  0.00    -0.331 A  
HETATM   12  C   UNL     1     -12.236   9.561  72.038  1.00  0.00    -0.370 A  
HETATM   13  C   UNL     1     -11.630  13.244  66.741  1.00  0.00    -0.408 A  
HETATM   14  C   UNL     1     -11.163  13.188  65.437  1.00  0.00    -0.315 A  
HETATM   15  C   UNL     1     -10.616  12.000  64.980  1.00  0.00    -0.332 A  
HETATM   16  C   UNL     1     -10.491  10.907  65.848  1.00  0.00    -0.285 A  
HETATM   17  C   UNL     1     -10.781  10.984  67.224  1.00  0.00    -0.265 A  
HETATM   18  N   UNL     1     -10.417   9.968  68.157  1.00  0.00    -0.198 NA 
BRANCH  18  19
HETATM   19  C   UNL     1      -9.383   8.942  67.762  1.00  0.00    -0.141 C  
BRANCH  19  20
HETATM   20  C   UNL     1      -7.894   9.121  68.246  1.00  0.00    -0.102 C  
HETATM   21  C   UNL     1      -7.443   7.866  69.012  1.00  0.00    -0.097 C  
BRANCH  20  22
HETATM   22  N   UNL     1      -6.931   9.426  67.128  1.00  0.00    -0.084 NA 
HETATM   23  C   UNL     1      -6.699  10.875  67.005  1.00  0.00    -0.098 C  
HETATM   24  C   UNL     1      -7.397   8.932  65.824  1.00  0.00    -0.089 C  
ENDBRANCH  20  22
ENDBRANCH  19  20
ENDBRANCH  18  19
ENDBRANCH   3   5
ENDBRANCH   2   3
TORSDOF 5
ENDMDL
MODEL       59
REMARK 921   NORMALIZED FREE ENERGY PREDICTED BY IDOCK:   -4.83 KCAL/MOL
REMARK 922        TOTAL FREE ENERGY PREDICTED BY IDOCK:   -6.98 KCAL/MOL
REMARK 923 INTER-LIGAND FREE ENERGY PREDICTED BY IDOCK:   -6.57 KCAL/MOL
REMARK 924 INTRA-LIGAND FREE ENERGY PREDICTED BY IDOCK:   -0.41 KCAL/MOL
REMARK 927      BINDING AFFINITY PREDICTED BY RF-SCORE:    0.00 PKD
ROOT
HETATM    1  C   UNL     1      -8.184  20.026  67.584  1.00  0.00    -0.347 C  
HETATM    2  C   UNL     1      -9.229  19.750  66.513  1.00  0.00    -0.466 C  
ENDROOT
BRANCH   2   3
HETATM    3  C   UNL     1     -10.473  19.093  67.087  1.00  0.00    -0.447 C  
HETATM    4  O   UNL     1     -11.347  19.744  67.650  1.00  0.00    -0.017 OA 
BRANCH   3   5
HETATM    5  C   UNL     1     -10.644  17.611  66.942  1.00  0.00    -0.235 A  
HETATM    6  C   UNL     1     -10.839  16.743  68.038  1.00  0.00    -0.341 A  
HETATM    7  C   UNL     1     -10.894  15.330  67.899  1.00  0.00    -0.288 A  
HETATM    8  C   UNL     1     -10.795  14.846  66.576  1.00  0.00    -0.322 A  
HETATM    9  S   UNL     1     -10.726  13.131  66.145  1.00  0.00    -0.281 SA 
HETATM   10  C   UNL     1     -10.678  15.718  65.473  1.00  0.00    -0.397 A  
HETATM   11  C   UNL     1     -11.133  12.348  67.677  1.00  0.00    -0.259 A  
HETATM   12  C   UNL     1     -10.587  17.088  65.658  1.00  0.00    -0.206 A  
HETATM   13  C   UNL     1     -11.237  10.944  67.609  1.00  0.00    -0.379 A  
HETATM   14  C   UNL     1     -11.585  10.198  68.724  1.00  0.00    -0.037 A  
HETATM   15  C   UNL     1     -11.938  10.868  69.885  1.00  0.00    -0.430 A  
HETATM   16  C   UNL     1     -11.881  12.268  69.930  1.00  0.00    -0.383 A  
HETATM   17  C   UNL     1     -11.356  13.047  68.882  1.00  0.00    -0.287 A  
HETATM   18  N   UNL     1     -11.055  14.435  69.016  1.00  0.00    -0.251 NA 
BRANCH  18  19
HETATM   19  C   UNL     1     -10.946  15.035  70.396  1.00  0.00    -0.190 C  
BRANCH  19  20
HETATM   20  C   UNL     1     -12.182  15.798  71.007  1.00  0.00    -0.418 C  
HETATM   21  C   UNL     1     -13.476  15.315  70.330  1.00  0.00     0.014 C  
BRANCH  20  22
HETATM   22  N   UNL     1     -12.292  15.664  72.504  1.00  0.00    -0.389 NA 
HETATM   23  C   UNL     1     -12.061  14.275  72.932  1.00  0.00     0.234 C  
HETATM   24  C   UNL     1     -13.604  16.081  73.019  1.00  0.00    -0.453 C  
ENDBRANCH  20  22
ENDBRANCH  19  20
ENDBRANCH  18  19
ENDBRANCH   3   5
ENDBRANCH   2   3
TORSDOF 5
ENDMDL
MODEL       60
REMARK 921   NORMALIZED FREE ENERGY PREDICTED BY IDOCK:   -4.83 KCAL/MOL
REMARK 922        TOTAL FREE ENERGY PREDICTED BY IDOCK:   -6.98 KCAL/MOL
REMARK 923 INTER-LIGAND FREE ENERGY PREDICTED BY IDOCK:   -6.61 KCAL/MOL
REMARK 924 INTRA-LIGAND FREE ENERGY PREDICTED BY IDOCK:   -0.37 KCAL/MOL
REMARK 927      BINDING AFFINITY PREDICTED BY RF-SCORE:    0.00 PKD
ROOT
HETATM    1  C   UNL     1     -12.522  11.985  63.382  1.00  0.00    -0.625 C  
HETATM    2  C   UNL     1     -11.041  12.284  63.563  1.00  0.00    -0.533 C  
ENDROOT
BRANCH   2   3
HETATM    3  C   UNL     1     -10.773  13.097  64.818  1.00  0.00    -0.364 C  
HETATM    4  O   UNL     1     -10.483  14.288  64.767  1.00  0.00    -0.431 OA 
BRANCH   3   5
HETATM    5  C   UNL     1     -10.887  12.428  66.154  1.00  0.00    -0.308 A  
HETATM    6  C   UNL     1     -10.474  11.099  66.393  1.00  0.00    -0.311 A  
HETATM    7  C   UNL     1     -10.684  10.441  67.635  1.00  0.00    -0.286 A  
HETATM    8  C   UNL     1     -11.286  11.224  68.643  1.00  0.00    -0.273 A  
HETATM    9  S   UNL     1     -11.753  10.610  70.236  1.00  0.00    -0.368 SA 
HETATM   10  C   UNL     1     -11.628  12.576  68.429  1.00  0.00    -0.368 A  
HETATM   11  C   UNL     1     -10.986   9.016  70.257  1.00  0.00    -0.244 A  
HETATM   12  C   UNL     1     -11.444  13.167  67.189  1.00  0.00    -0.378 A  
HETATM   13  C   UNL     1     -11.125   8.315  71.472  1.00  0.00    -0.315 A  
HETATM   14  C   UNL     1     -10.545   7.069  71.648  1.00  0.00    -0.226 A  
HETATM   15  C   UNL     1      -9.731   6.570  70.643  1.00  0.00    -0.194 A  
HETATM   16  C   UNL     1      -9.557   7.297  69.457  1.00  0.00    -0.155 A  
HETATM   17  C   UNL     1     -10.274   8.473  69.168  1.00  0.00    -0.211 A  
HETATM   18  N   UNL     1     -10.299   9.074  67.874  1.00  0.00    -0.225 NA 
BRANCH  18  19
HETATM   19  C   UNL     1      -9.854   8.267  66.679  1.00  0.00    -0.267 C  
BRANCH  19  20
HETATM   20  C   UNL     1      -8.609   8.750  65.841  1.00  0.00    -0.154 C  
HETATM   21  C   UNL     1      -7.328   8.586  66.675  1.00  0.00    -0.081 C  
BRANCH  20  22
HETATM   22  N   UNL     1      -8.466   8.047  64.516  1.00  0.00    -0.032 NA 
HETATM   23  C   UNL     1      -7.464   6.971  64.591  1.00  0.00    -0.098 C  
HETATM   24  C   UNL     1      -8.074   8.954  63.429  1.00  0.00    -0.167 C  
ENDBRANCH  20  22
ENDBRANCH  19  20
ENDBRANCH  18  19
ENDBRANCH   3   5
ENDBRANCH   2   3
TORSDOF 5
ENDMDL
MODEL       61
REMARK 921   NORMALIZED FREE ENERGY PREDICTED BY IDOCK:   -4.80 KCAL/MOL
REMARK 922        TOTAL FREE ENERGY PREDICTED BY IDOCK:   -6.94 KCAL/MOL
REMARK 923 INTER-LIGAND FREE ENERGY PREDICTED BY IDOCK:   -6.22 KCAL/MOL
REMARK 924 INTRA-LIGAND FREE ENERGY PREDICTED BY IDOCK:   -0.72 KCAL/MOL
REMARK 927      BINDING AFFINITY PREDICTED BY RF-SCORE:    0.00 PKD
ROOT
HETATM    1  C   UNL     1     -10.719  11.727  64.416  1.00  0.00    -0.381 C  
HETATM    2  C   UNL     1     -10.327  11.224  65.798  1.00  0.00    -0.310 C  
ENDROOT
BRANCH   2   3
HETATM    3  C   UNL     1     -11.273  11.725  66.876  1.00  0.00    -0.327 C  
HETATM    4  O   UNL     1     -12.020  12.680  66.688  1.00  0.00    -0.470 OA 
BRANCH   3   5
HETATM    5  C   UNL     1     -11.307  11.019  68.197  1.00  0.00    -0.374 A  
HETATM    6  C   UNL     1     -10.615   9.814  68.449  1.00  0.00    -0.264 A  
HETATM    7  C   UNL     1     -10.740   9.097  69.670  1.00  0.00    -0.225 A  
HETATM    8  C   UNL     1     -11.562   9.701  70.646  1.00  0.00    -0.299 A  
HETATM    9  S   UNL     1     -11.966   8.961  72.203  1.00  0.00    -0.319 SA 
HETATM   10  C   UNL     1     -12.191  10.943  70.424  1.00  0.00    -0.453 A  
HETATM   11  C   UNL     1     -10.857   7.584  72.257  1.00  0.00    -0.258 A  
HETATM   12  C   UNL     1     -12.077  11.588  69.202  1.00  0.00    -0.329 A  
HETATM   13  C   UNL     1     -10.901   6.843  73.456  1.00  0.00    -0.265 A  
HETATM   14  C   UNL     1     -10.062   5.758  73.656  1.00  0.00    -0.210 A  
HETATM   15  C   UNL     1      -9.099   5.480  72.698  1.00  0.00    -0.140 A  
HETATM   16  C   UNL     1      -9.029   6.254  71.531  1.00  0.00    -0.142 A  
HETATM   17  C   UNL     1      -9.979   7.242  71.208  1.00  0.00    -0.188 A  
HETATM   18  N   UNL     1     -10.067   7.849  69.920  1.00  0.00    -0.193 NA 
BRANCH  18  19
HETATM   19  C   UNL     1      -9.381   7.191  68.748  1.00  0.00    -0.135 C  
BRANCH  19  20
HETATM   20  C   UNL     1     -10.052   5.940  68.064  1.00  0.00    -0.162 C  
HETATM   21  C   UNL     1     -10.942   6.401  66.898  1.00  0.00    -0.413 C  
BRANCH  20  22
HETATM   22  N   UNL     1      -9.059   4.910  67.589  1.00  0.00    -0.112 NA 
HETATM   23  C   UNL     1      -9.532   3.545  67.872  1.00  0.00    -0.165 C  
HETATM   24  C   UNL     1      -7.735   5.067  68.208  1.00  0.00    -0.083 C  
ENDBRANCH  20  22
ENDBRANCH  19  20
ENDBRANCH  18  19
ENDBRANCH   3   5
ENDBRANCH   2   3
TORSDOF 5
ENDMDL
MODEL       62
REMARK 921   NORMALIZED FREE ENERGY PREDICTED BY IDOCK:   -4.80 KCAL/MOL
REMARK 922        TOTAL FREE ENERGY PREDICTED BY IDOCK:   -6.94 KCAL/MOL
REMARK 923 INTER-LIGAND FREE ENERGY PREDICTED BY IDOCK:   -6.02 KCAL/MOL
REMARK 924 INTRA-LIGAND FREE ENERGY PREDICTED BY IDOCK:   -0.92 KCAL/MOL
REMARK 927      BINDING AFFINITY PREDICTED BY RF-SCORE:    0.00 PKD
ROOT
HETATM    1  C   UNL     1     -10.294  11.149  64.559  1.00  0.00    -0.400 C  
HETATM    2  C   UNL     1     -10.772  12.515  65.030  1.00  0.00    -0.326 C  
ENDROOT
BRANCH   2   3
HETATM    3  C   UNL     1     -10.135  12.916  66.350  1.00  0.00    -0.269 C  
HETATM    4  O   UNL     1      -9.350  13.855  66.430  1.00  0.00    -0.266 OA 
BRANCH   3   5
HETATM    5  C   UNL     1     -10.493  12.154  67.590  1.00  0.00    -0.225 A  
HETATM    6  C   UNL     1      -9.627  11.224  68.205  1.00  0.00    -0.193 A  
HETATM    7  C   UNL     1     -10.017  10.430  69.318  1.00  0.00    -0.228 A  
HETATM    8  C   UNL     1     -11.318  10.673  69.809  1.00  0.00    -0.301 A  
HETATM    9  S   UNL     1     -12.079   9.745  71.111  1.00  0.00    -0.397 SA 
HETATM   10  C   UNL     1     -12.155  11.657  69.244  1.00  0.00    -0.323 A  
HETATM   11  C   UNL     1     -10.721   8.799  71.735  1.00  0.00    -0.343 A  
HETATM   12  C   UNL     1     -11.751  12.380  68.133  1.00  0.00    -0.408 A  
HETATM   13  C   UNL     1     -11.026   8.010  72.862  1.00  0.00    -0.398 A  
HETATM   14  C   UNL     1     -10.051   7.244  73.482  1.00  0.00    -0.387 A  
HETATM   15  C   UNL     1      -8.742   7.353  73.038  1.00  0.00    -0.178 A  
HETATM   16  C   UNL     1      -8.438   8.180  71.948  1.00  0.00    -0.196 A  
HETATM   17  C   UNL     1      -9.425   8.826  71.179  1.00  0.00    -0.240 A  
HETATM   18  N   UNL     1      -9.153   9.453  69.927  1.00  0.00    -0.187 NA 
BRANCH  18  19
HETATM   19  C   UNL     1      -7.868   9.128  69.205  1.00  0.00    -0.092 C  
BRANCH  19  20
HETATM   20  C   UNL     1      -7.796   7.841  68.298  1.00  0.00    -0.121 C  
HETATM   21  C   UNL     1      -7.062   6.718  69.048  1.00  0.00    -0.089 C  
BRANCH  20  22
HETATM   22  N   UNL     1      -9.144   7.361  67.826  1.00  0.00    -0.129 NA 
HETATM   23  C   UNL     1      -9.208   5.891  67.802  1.00  0.00    -0.108 C  
HETATM   24  C   UNL     1      -9.486   7.849  66.483  1.00  0.00    -0.214 C  
ENDBRANCH  20  22
ENDBRANCH  19  20
ENDBRANCH  18  19
ENDBRANCH   3   5
ENDBRANCH   2   3
TORSDOF 5
ENDMDL
MODEL       63
REMARK 921   NORMALIZED FREE ENERGY PREDICTED BY IDOCK:   -4.79 KCAL/MOL
REMARK 922        TOTAL FREE ENERGY PREDICTED BY IDOCK:   -6.93 KCAL/MOL
REMARK 923 INTER-LIGAND FREE ENERGY PREDICTED BY IDOCK:   -6.71 KCAL/MOL
REMARK 924 INTRA-LIGAND FREE ENERGY PREDICTED BY IDOCK:   -0.22 KCAL/MOL
REMARK 927      BINDING AFFINITY PREDICTED BY RF-SCORE:    0.00 PKD
ROOT
HETATM    1  C   UNL     1     -12.423  11.945  63.370  1.00  0.00    -0.582 C  
HETATM    2  C   UNL     1     -12.604  12.738  64.656  1.00  0.00    -0.491 C  
ENDROOT
BRANCH   2   3
HETATM    3  C   UNL     1     -12.126  14.174  64.511  1.00  0.00    -0.468 C  
HETATM    4  O   UNL     1     -12.674  14.964  63.750  1.00  0.00    -0.754 OA 
BRANCH   3   5
HETATM    5  C   UNL     1     -10.965  14.638  65.337  1.00  0.00    -0.358 A  
HETATM    6  C   UNL     1     -10.301  13.815  66.273  1.00  0.00    -0.294 A  
HETATM    7  C   UNL     1      -9.272  14.296  67.126  1.00  0.00    -0.223 A  
HETATM    8  C   UNL     1      -8.911  15.648  66.938  1.00  0.00    -0.241 A  
HETATM    9  S   UNL     1      -7.739  16.515  67.942  1.00  0.00    -0.156 SA 
HETATM   10  C   UNL     1      -9.520  16.449  65.950  1.00  0.00    -0.289 A  
HETATM   11  C   UNL     1      -7.015  15.203  68.882  1.00  0.00    -0.124 A  
HETATM   12  C   UNL     1     -10.550  15.952  65.168  1.00  0.00    -0.421 A  
HETATM   13  C   UNL     1      -5.961  15.601  69.729  1.00  0.00    -0.151 A  
HETATM   14  C   UNL     1      -5.275  14.675  70.499  1.00  0.00    -0.116 A  
HETATM   15  C   UNL     1      -5.571  13.331  70.337  1.00  0.00    -0.158 A  
HETATM   16  C   UNL     1      -6.586  12.938  69.454  1.00  0.00    -0.062 A  
HETATM   17  C   UNL     1      -7.428  13.857  68.798  1.00  0.00    -0.114 A  
HETATM   18  N   UNL     1      -8.616  13.473  68.109  1.00  0.00    -0.168 NA 
BRANCH  18  19
HETATM   19  C   UNL     1      -9.210  12.110  68.369  1.00  0.00    -0.154 C  
BRANCH  19  20
HETATM   20  C   UNL     1     -10.774  11.962  68.505  1.00  0.00    -0.224 C  
HETATM   21  C   UNL     1     -11.184  10.508  68.219  1.00  0.00    -0.354 C  
BRANCH  20  22
HETATM   22  N   UNL     1     -11.305  12.404  69.844  1.00  0.00    -0.082 NA 
HETATM   23  C   UNL     1     -12.131  11.352  70.461  1.00  0.00    -0.394 C  
HETATM   24  C   UNL     1     -12.119  13.625  69.760  1.00  0.00    -0.334 C  
ENDBRANCH  20  22
ENDBRANCH  19  20
ENDBRANCH  18  19
ENDBRANCH   3   5
ENDBRANCH   2   3
TORSDOF 5
ENDMDL
MODEL       64
REMARK 921   NORMALIZED FREE ENERGY PREDICTED BY IDOCK:   -4.79 KCAL/MOL
REMARK 922        TOTAL FREE ENERGY PREDICTED BY IDOCK:   -6.93 KCAL/MOL
REMARK 923 INTER-LIGAND FREE ENERGY PREDICTED BY IDOCK:   -6.18 KCAL/MOL
REMARK 924 INTRA-LIGAND FREE ENERGY PREDICTED BY IDOCK:   -0.74 KCAL/MOL
REMARK 927      BINDING AFFINITY PREDICTED BY RF-SCORE:    0.00 PKD
ROOT
HETATM    1  C   UNL     1      -8.214  19.786  66.163  1.00  0.00    -0.363 C  
HETATM    2  C   UNL     1      -9.701  19.467  66.205  1.00  0.00    -0.455 C  
ENDROOT
BRANCH   2   3
HETATM    3  C   UNL     1     -10.010  18.310  67.142  1.00  0.00    -0.337 C  
HETATM    4  O   UNL     1     -10.145  18.476  68.350  1.00  0.00    -0.358 OA 
BRANCH   3   5
HETATM    5  C   UNL     1     -10.172  16.935  66.569  1.00  0.00    -0.320 A  
HETATM    6  C   UNL     1      -9.611  15.780  67.156  1.00  0.00    -0.224 A  
HETATM    7  C   UNL     1      -9.681  14.498  66.547  1.00  0.00    -0.285 A  
HETATM    8  C   UNL     1     -10.403  14.440  65.335  1.00  0.00    -0.378 A  
HETATM    9  S   UNL     1     -10.545  12.991  64.329  1.00  0.00    -0.381 SA 
HETATM   10  C   UNL     1     -11.030  15.579  64.789  1.00  0.00    -0.416 A  
HETATM   11  C   UNL     1      -9.882  11.739  65.387  1.00  0.00    -0.233 A  
HETATM   12  C   UNL     1     -10.901  16.819  65.394  1.00  0.00    -0.149 A  
HETATM   13  C   UNL     1      -9.948  10.432  64.863  1.00  0.00    -0.409 A  
HETATM   14  C   UNL     1      -9.500   9.344  65.596  1.00  0.00    -0.328 A  
HETATM   15  C   UNL     1      -9.085   9.552  66.902  1.00  0.00    -0.158 A  
HETATM   16  C   UNL     1      -9.070  10.849  67.434  1.00  0.00    -0.144 A  
HETATM   17  C   UNL     1      -9.340  11.996  66.664  1.00  0.00    -0.219 A  
HETATM   18  N   UNL     1      -9.079  13.322  67.121  1.00  0.00    -0.223 NA 
BRANCH  18  19
HETATM   19  C   UNL     1      -8.163  13.527  68.302  1.00  0.00    -0.157 C  
BRANCH  19  20
HETATM   20  C   UNL     1      -6.602  13.515  68.081  1.00  0.00    -0.121 C  
HETATM   21  C   UNL     1      -6.108  14.945  67.803  1.00  0.00    -0.149 C  
BRANCH  20  22
HETATM   22  N   UNL     1      -5.837  12.910  69.229  1.00  0.00    -0.081 NA 
HETATM   23  C   UNL     1      -6.382  11.592  69.596  1.00  0.00    -0.133 C  
HETATM   24  C   UNL     1      -5.850  13.754  70.432  1.00  0.00    -0.162 C  
ENDBRANCH  20  22
ENDBRANCH  19  20
ENDBRANCH  18  19
ENDBRANCH   3   5
ENDBRANCH   2   3
TORSDOF 5
ENDMDL
MODEL       65
REMARK 921   NORMALIZED FREE ENERGY PREDICTED BY IDOCK:   -4.77 KCAL/MOL
REMARK 922        TOTAL FREE ENERGY PREDICTED BY IDOCK:   -6.90 KCAL/MOL
REMARK 923 INTER-LIGAND FREE ENERGY PREDICTED BY IDOCK:   -6.60 KCAL/MOL
REMARK 924 INTRA-LIGAND FREE ENERGY PREDICTED BY IDOCK:   -0.30 KCAL/MOL
REMARK 927      BINDING AFFINITY PREDICTED BY RF-SCORE:    0.00 PKD
ROOT
HETATM    1  C   UNL     1     -12.815  11.430  71.473  1.00  0.00    -0.508 C  
HETATM    2  C   UNL     1     -12.786   9.953  71.110  1.00  0.00    -0.462 C  
ENDROOT
BRANCH   2   3
HETATM    3  C   UNL     1     -11.371   9.397  71.094  1.00  0.00    -0.351 C  
HETATM    4  O   UNL     1     -10.787   9.089  72.127  1.00  0.00    -0.337 OA 
BRANCH   3   5
HETATM    5  C   UNL     1     -10.682   9.204  69.778  1.00  0.00    -0.239 A  
HETATM    6  C   UNL     1     -10.901  10.038  68.659  1.00  0.00    -0.265 A  
HETATM    7  C   UNL     1     -10.323   9.782  67.386  1.00  0.00    -0.240 A  
HETATM    8  C   UNL     1      -9.464   8.664  67.323  1.00  0.00    -0.156 A  
HETATM    9  S   UNL     1      -8.710   8.071  65.836  1.00  0.00    -0.143 SA 
HETATM   10  C   UNL     1      -9.184   7.877  68.459  1.00  0.00    -0.138 A  
HETATM   11  C   UNL     1      -9.055   9.379  64.698  1.00  0.00    -0.173 A  
HETATM   12  C   UNL     1      -9.802   8.136  69.672  1.00  0.00    -0.184 A  
HETATM   13  C   UNL     1      -8.486   9.211  63.419  1.00  0.00    -0.195 A  
HETATM   14  C   UNL     1      -8.642  10.174  62.435  1.00  0.00    -0.216 A  
HETATM   15  C   UNL     1      -9.277  11.361  62.765  1.00  0.00    -0.309 A  
HETATM   16  C   UNL     1      -9.797  11.542  64.054  1.00  0.00    -0.306 A  
HETATM   17  C   UNL     1      -9.822  10.518  65.021  1.00  0.00    -0.306 A  
HETATM   18  N   UNL     1     -10.571  10.606  66.231  1.00  0.00    -0.201 NA 
BRANCH  18  19
HETATM   19  C   UNL     1     -11.656  11.648  66.352  1.00  0.00    -0.062 C  
BRANCH  19  20
HETATM   20  C   UNL     1     -11.297  13.167  66.128  1.00  0.00    -0.312 C  
HETATM   21  C   UNL     1     -12.483  13.887  65.463  1.00  0.00    -0.541 C  
BRANCH  20  22
HETATM   22  N   UNL     1     -10.891  13.881  67.390  1.00  0.00    -0.282 NA 
HETATM   23  C   UNL     1     -11.799  13.555  68.502  1.00  0.00    -0.362 C  
HETATM   24  C   UNL     1     -10.874  15.343  67.237  1.00  0.00    -0.316 C  
ENDBRANCH  20  22
ENDBRANCH  19  20
ENDBRANCH  18  19
ENDBRANCH   3   5
ENDBRANCH   2   3
TORSDOF 5
ENDMDL
MODEL       66
REMARK 921   NORMALIZED FREE ENERGY PREDICTED BY IDOCK:   -4.76 KCAL/MOL
REMARK 922        TOTAL FREE ENERGY PREDICTED BY IDOCK:   -6.89 KCAL/MOL
REMARK 923 INTER-LIGAND FREE ENERGY PREDICTED BY IDOCK:   -6.57 KCAL/MOL
REMARK 924 INTRA-LIGAND FREE ENERGY PREDICTED BY IDOCK:   -0.32 KCAL/MOL
REMARK 927      BINDING AFFINITY PREDICTED BY RF-SCORE:    0.00 PKD
ROOT
HETATM    1  C   UNL     1      -9.358  19.981  66.406  1.00  0.00    -0.481 C  
HETATM    2  C   UNL     1     -10.671  19.213  66.446  1.00  0.00    -0.450 C  
ENDROOT
BRANCH   2   3
HETATM    3  C   UNL     1     -10.615  18.037  67.407  1.00  0.00    -0.365 C  
HETATM    4  O   UNL     1     -10.650  18.195  68.623  1.00  0.00    -0.265 OA 
BRANCH   3   5
HETATM    5  C   UNL     1     -10.533  16.648  66.851  1.00  0.00    -0.271 A  
HETATM    6  C   UNL     1     -10.639  15.487  67.647  1.00  0.00    -0.291 A  
HETATM    7  C   UNL     1     -10.455  14.178  67.126  1.00  0.00    -0.270 A  
HETATM    8  C   UNL     1     -10.213  14.107  65.737  1.00  0.00    -0.332 A  
HETATM    9  S   UNL     1      -9.844  12.611  64.866  1.00  0.00     0.024 SA 
HETATM   10  C   UNL     1     -10.185  15.262  64.927  1.00  0.00    -0.209 A  
HETATM   11  C   UNL     1     -10.193  11.378  66.084  1.00  0.00    -0.239 A  
HETATM   12  C   UNL     1     -10.328  16.523  65.484  1.00  0.00    -0.307 A  
HETATM   13  C   UNL     1     -10.063  10.050  65.628  1.00  0.00    -0.321 A  
HETATM   14  C   UNL     1     -10.340   8.978  66.462  1.00  0.00    -0.263 A  
HETATM   15  C   UNL     1     -10.855   9.236  67.723  1.00  0.00    -0.192 A  
HETATM   16  C   UNL     1     -11.029  10.559  68.151  1.00  0.00    -0.330 A  
HETATM   17  C   UNL     1     -10.587  11.670  67.406  1.00  0.00    -0.220 A  
HETATM   18  N   UNL     1     -10.524  12.992  67.939  1.00  0.00    -0.224 NA 
BRANCH  18  19
HETATM   19  C   UNL     1     -10.583  13.187  69.434  1.00  0.00     0.263 C  
BRANCH  19  20
HETATM   20  C   UNL     1     -11.985  13.308  70.143  1.00  0.00    -0.318 C  
HETATM   21  C   UNL     1     -12.329  11.983  70.843  1.00  0.00    -0.384 C  
BRANCH  20  22
HETATM   22  N   UNL     1     -12.069  14.453  71.118  1.00  0.00    -0.336 NA 
HETATM   23  C   UNL     1     -13.391  15.099  71.069  1.00  0.00    -0.443 C  
HETATM   24  C   UNL     1     -11.053  15.487  70.873  1.00  0.00    -0.348 C  
ENDBRANCH  20  22
ENDBRANCH  19  20
ENDBRANCH  18  19
ENDBRANCH   3   5
ENDBRANCH   2   3
TORSDOF 5
ENDMDL
MODEL       67
REMARK 921   NORMALIZED FREE ENERGY PREDICTED BY IDOCK:   -4.75 KCAL/MOL
REMARK 922        TOTAL FREE ENERGY PREDICTED BY IDOCK:   -6.87 KCAL/MOL
REMARK 923 INTER-LIGAND FREE ENERGY PREDICTED BY IDOCK:   -6.27 KCAL/MOL
REMARK 924 INTRA-LIGAND FREE ENERGY PREDICTED BY IDOCK:   -0.60 KCAL/MOL
REMARK 927      BINDING AFFINITY PREDICTED BY RF-SCORE:    0.00 PKD
ROOT
HETATM    1  C   UNL     1     -10.797   9.933  68.286  1.00  0.00    -0.275 C  
HETATM    2  C   UNL     1     -10.404  10.011  66.819  1.00  0.00    -0.283 C  
ENDROOT
BRANCH   2   3
HETATM    3  C   UNL     1      -9.256  10.979  66.587  1.00  0.00    -0.167 C  
HETATM    4  O   UNL     1      -8.085  10.621  66.656  1.00  0.00    -0.126 OA 
BRANCH   3   5
HETATM    5  C   UNL     1      -9.566  12.405  66.245  1.00  0.00    -0.245 A  
HETATM    6  C   UNL     1      -9.184  13.496  67.056  1.00  0.00    -0.248 A  
HETATM    7  C   UNL     1      -9.575  14.834  66.777  1.00  0.00    -0.254 A  
HETATM    8  C   UNL     1     -10.329  15.012  65.597  1.00  0.00    -0.353 A  
HETATM    9  S   UNL     1     -11.027  16.556  65.086  1.00  0.00    -0.066 SA 
HETATM   10  C   UNL     1     -10.644  13.933  64.746  1.00  0.00    -0.444 A  
HETATM   11  C   UNL     1     -10.261  17.696  66.199  1.00  0.00    -0.343 A  
HETATM   12  C   UNL     1     -10.279  12.637  65.078  1.00  0.00    -0.294 A  
HETATM   13  C   UNL     1     -10.577  19.049  65.963  1.00  0.00    -0.499 A  
HETATM   14  C   UNL     1     -10.020  20.058  66.734  1.00  0.00    -0.585 A  
HETATM   15  C   UNL     1      -9.059  19.720  67.673  1.00  0.00    -0.416 A  
HETATM   16  C   UNL     1      -8.713  18.376  67.868  1.00  0.00    -0.296 A  
HETATM   17  C   UNL     1      -9.388  17.312  67.238  1.00  0.00    -0.237 A  
HETATM   18  N   UNL     1      -9.221  15.947  67.619  1.00  0.00    -0.207 NA 
BRANCH  18  19
HETATM   19  C   UNL     1      -8.593  15.627  68.953  1.00  0.00    -0.211 C  
BRANCH  19  20
HETATM   20  C   UNL     1      -7.048  15.321  69.026  1.00  0.00    -0.141 C  
HETATM   21  C   UNL     1      -6.307  16.534  69.611  1.00  0.00    -0.216 C  
BRANCH  20  22
HETATM   22  N   UNL     1      -6.718  14.077  69.810  1.00  0.00    -0.084 NA 
HETATM   23  C   UNL     1      -5.722  14.357  70.857  1.00  0.00    -0.191 C  
HETATM   24  C   UNL     1      -6.194  12.994  68.967  1.00  0.00    -0.094 C  
ENDBRANCH  20  22
ENDBRANCH  19  20
ENDBRANCH  18  19
ENDBRANCH   3   5
ENDBRANCH   2   3
TORSDOF 5
ENDMDL
MODEL       68
REMARK 921   NORMALIZED FREE ENERGY PREDICTED BY IDOCK:   -4.73 KCAL/MOL
REMARK 922        TOTAL FREE ENERGY PREDICTED BY IDOCK:   -6.85 KCAL/MOL
REMARK 923 INTER-LIGAND FREE ENERGY PREDICTED BY IDOCK:   -6.56 KCAL/MOL
REMARK 924 INTRA-LIGAND FREE ENERGY PREDICTED BY IDOCK:   -0.29 KCAL/MOL
REMARK 927      BINDING AFFINITY PREDICTED BY RF-SCORE:    0.00 PKD
ROOT
HETATM    1  C   UNL     1     -10.781  16.573  68.974  1.00  0.00    -0.332 C  
HETATM    2  C   UNL     1     -10.857  15.456  70.005  1.00  0.00    -0.320 C  
ENDROOT
BRANCH   2   3
HETATM    3  C   UNL     1     -11.925  14.433  69.659  1.00  0.00    -0.336 C  
HETATM    4  O   UNL     1     -13.090  14.567  70.020  1.00  0.00    -0.069 OA 
BRANCH   3   5
HETATM    5  C   UNL     1     -11.547  13.239  68.836  1.00  0.00    -0.357 A  
HETATM    6  C   UNL     1     -11.367  11.948  69.381  1.00  0.00    -0.327 A  
HETATM    7  C   UNL     1     -10.905  10.847  68.611  1.00  0.00    -0.217 A  
HETATM    8  C   UNL     1     -10.689  11.113  67.241  1.00  0.00    -0.258 A  
HETATM    9  S   UNL     1     -10.014   9.945  66.095  1.00  0.00    -0.254 SA 
HETATM   10  C   UNL     1     -10.944  12.381  66.681  1.00  0.00    -0.309 A  
HETATM   11  C   UNL     1     -10.044   8.446  67.032  1.00  0.00    -0.284 A  
HETATM   12  C   UNL     1     -11.354  13.439  67.476  1.00  0.00    -0.327 A  
HETATM   13  C   UNL     1      -9.629   7.301  66.322  1.00  0.00    -0.103 A  
HETATM   14  C   UNL     1      -9.635   6.049  66.918  1.00  0.00    -0.158 A  
HETATM   15  C   UNL     1     -10.162   5.926  68.194  1.00  0.00    -0.225 A  
HETATM   16  C   UNL     1     -10.620   7.062  68.875  1.00  0.00    -0.233 A  
HETATM   17  C   UNL     1     -10.459   8.370  68.378  1.00  0.00    -0.164 A  
HETATM   18  N   UNL     1     -10.683   9.537  69.167  1.00  0.00    -0.223 NA 
BRANCH  18  19
HETATM   19  C   UNL     1     -10.746   9.410  70.669  1.00  0.00    -0.290 C  
BRANCH  19  20
HETATM   20  C   UNL     1     -11.952   8.639  71.329  1.00  0.00    -0.293 C  
HETATM   21  C   UNL     1     -11.621   8.318  72.796  1.00  0.00    -0.326 C  
BRANCH  20  22
HETATM   22  N   UNL     1     -13.261   9.380  71.238  1.00  0.00    -0.327 NA 
HETATM   23  C   UNL     1     -13.176  10.695  71.895  1.00  0.00    -0.423 C  
HETATM   24  C   UNL     1     -14.377   8.642  71.848  1.00  0.00    -0.405 C  
ENDBRANCH  20  22
ENDBRANCH  19  20
ENDBRANCH  18  19
ENDBRANCH   3   5
ENDBRANCH   2   3
TORSDOF 5
ENDMDL
MODEL       69
REMARK 921   NORMALIZED FREE ENERGY PREDICTED BY IDOCK:   -4.71 KCAL/MOL
REMARK 922        TOTAL FREE ENERGY PREDICTED BY IDOCK:   -6.83 KCAL/MOL
REMARK 923 INTER-LIGAND FREE ENERGY PREDICTED BY IDOCK:   -6.00 KCAL/MOL
REMARK 924 INTRA-LIGAND FREE ENERGY PREDICTED BY IDOCK:   -0.82 KCAL/MOL
REMARK 927      BINDING AFFINITY PREDICTED BY RF-SCORE:    0.00 PKD
ROOT
HETATM    1  C   UNL     1     -10.824   6.374  66.977  1.00  0.00    -0.464 C  
HETATM    2  C   UNL     1     -10.794   5.893  68.420  1.00  0.00    -0.322 C  
ENDROOT
BRANCH   2   3
HETATM    3  C   UNL     1     -10.045   6.857  69.325  1.00  0.00    -0.170 C  
HETATM    4  O   UNL     1      -8.870   6.677  69.630  1.00  0.00    -0.141 OA 
BRANCH   3   5
HETATM    5  C   UNL     1     -10.758   8.069  69.843  1.00  0.00    -0.242 A  
HETATM    6  C   UNL     1     -10.586   9.360  69.297  1.00  0.00    -0.239 A  
HETATM    7  C   UNL     1     -11.185  10.519  69.862  1.00  0.00    -0.307 A  
HETATM    8  C   UNL     1     -12.016  10.288  70.980  1.00  0.00    -0.385 A  
HETATM    9  S   UNL     1     -12.788  11.569  71.927  1.00  0.00    -0.133 SA 
HETATM   10  C   UNL     1     -12.250   8.990  71.477  1.00  0.00    -0.403 A  
HETATM   11  C   UNL     1     -12.502  12.996  70.923  1.00  0.00    -0.310 A  
HETATM   12  C   UNL     1     -11.612   7.892  70.922  1.00  0.00    -0.286 A  
HETATM   13  C   UNL     1     -13.095  14.181  71.405  1.00  0.00    -0.428 A  
HETATM   14  C   UNL     1     -12.986  15.371  70.703  1.00  0.00    -0.450 A  
HETATM   15  C   UNL     1     -12.374  15.352  69.459  1.00  0.00    -0.207 A  
HETATM   16  C   UNL     1     -11.831  14.159  68.964  1.00  0.00    -0.384 A  
HETATM   17  C   UNL     1     -11.757  12.977  69.725  1.00  0.00    -0.276 A  
HETATM   18  N   UNL     1     -10.984  11.844  69.334  1.00  0.00    -0.153 NA 
BRANCH  18  19
HETATM   19  C   UNL     1      -9.924  12.006  68.272  1.00  0.00    -0.203 C  
BRANCH  19  20
HETATM   20  C   UNL     1      -8.476  12.469  68.691  1.00  0.00     0.031 C  
HETATM   21  C   UNL     1      -7.484  11.311  68.492  1.00  0.00    -0.115 C  
BRANCH  20  22
HETATM   22  N   UNL     1      -8.002  13.697  67.958  1.00  0.00    -0.139 NA 
HETATM   23  C   UNL     1      -8.854  13.982  66.791  1.00  0.00    -0.157 C  
HETATM   24  C   UNL     1      -6.615  13.579  67.485  1.00  0.00    -0.117 C  
ENDBRANCH  20  22
ENDBRANCH  19  20
ENDBRANCH  18  19
ENDBRANCH   3   5
ENDBRANCH   2   3
TORSDOF 5
ENDMDL
MODEL       70
REMARK 921   NORMALIZED FREE ENERGY PREDICTED BY IDOCK:   -4.71 KCAL/MOL
REMARK 922        TOTAL FREE ENERGY PREDICTED BY IDOCK:   -6.82 KCAL/MOL
REMARK 923 INTER-LIGAND FREE ENERGY PREDICTED BY IDOCK:   -6.24 KCAL/MOL
REMARK 924 INTRA-LIGAND FREE ENERGY PREDICTED BY IDOCK:   -0.58 KCAL/MOL
REMARK 927      BINDING AFFINITY PREDICTED BY RF-SCORE:    0.00 PKD
ROOT
HETATM    1  C   UNL     1     -12.402  12.207  63.589  1.00  0.00    -0.673 C  
HETATM    2  C   UNL     1     -12.232  12.592  65.051  1.00  0.00    -0.519 C  
ENDROOT
BRANCH   2   3
HETATM    3  C   UNL     1     -10.806  12.380  65.533  1.00  0.00    -0.281 C  
HETATM    4  O   UNL     1     -10.080  13.320  65.838  1.00  0.00    -0.285 OA 
BRANCH   3   5
HETATM    5  C   UNL     1     -10.282  10.981  65.657  1.00  0.00    -0.318 A  
HETATM    6  C   UNL     1     -10.564  10.143  66.758  1.00  0.00    -0.239 A  
HETATM    7  C   UNL     1      -9.977   8.859  66.916  1.00  0.00    -0.247 A  
HETATM    8  C   UNL     1      -9.130   8.445  65.865  1.00  0.00    -0.171 A  
HETATM    9  S   UNL     1      -8.196   6.942  65.872  1.00  0.00    -0.134 SA 
HETATM   10  C   UNL     1      -8.910   9.249  64.728  1.00  0.00    -0.225 A  
HETATM   11  C   UNL     1      -8.870   6.092  67.269  1.00  0.00    -0.107 A  
HETATM   12  C   UNL     1      -9.470  10.514  64.633  1.00  0.00    -0.316 A  
HETATM   13  C   UNL     1      -8.358   4.795  67.470  1.00  0.00    -0.104 A  
HETATM   14  C   UNL     1      -8.820   3.997  68.504  1.00  0.00    -0.143 A  
HETATM   15  C   UNL     1      -9.877   4.457  69.274  1.00  0.00    -0.218 A  
HETATM   16  C   UNL     1     -10.416   5.729  69.035  1.00  0.00    -0.336 A  
HETATM   17  C   UNL     1      -9.853   6.639  68.119  1.00  0.00    -0.132 A  
HETATM   18  N   UNL     1     -10.229   8.014  68.055  1.00  0.00    -0.202 NA 
BRANCH  18  19
HETATM   19  C   UNL     1     -10.980   8.627  69.211  1.00  0.00     0.027 C  
BRANCH  19  20
HETATM   20  C   UNL     1     -10.290   8.704  70.626  1.00  0.00    -0.202 C  
HETATM   21  C   UNL     1      -8.981   9.503  70.522  1.00  0.00    -0.265 C  
BRANCH  20  22
HETATM   22  N   UNL     1     -11.176   9.287  71.696  1.00  0.00    -0.370 NA 
HETATM   23  C   UNL     1     -11.939   8.235  72.388  1.00  0.00    -0.384 C  
HETATM   24  C   UNL     1     -12.137  10.268  71.170  1.00  0.00    -0.395 C  
ENDBRANCH  20  22
ENDBRANCH  19  20
ENDBRANCH  18  19
ENDBRANCH   3   5
ENDBRANCH   2   3
TORSDOF 5
ENDMDL
MODEL       71
REMARK 921   NORMALIZED FREE ENERGY PREDICTED BY IDOCK:   -4.69 KCAL/MOL
REMARK 922        TOTAL FREE ENERGY PREDICTED BY IDOCK:   -6.80 KCAL/MOL
REMARK 923 INTER-LIGAND FREE ENERGY PREDICTED BY IDOCK:   -6.03 KCAL/MOL
REMARK 924 INTRA-LIGAND FREE ENERGY PREDICTED BY IDOCK:   -0.76 KCAL/MOL
REMARK 927      BINDING AFFINITY PREDICTED BY RF-SCORE:    0.00 PKD
ROOT
HETATM    1  C   UNL     1     -13.531   9.881  71.859  1.00  0.00    -0.467 C  
HETATM    2  C   UNL     1     -13.366   8.399  72.161  1.00  0.00    -0.341 C  
ENDROOT
BRANCH   2   3
HETATM    3  C   UNL     1     -11.907   7.976  72.158  1.00  0.00    -0.349 C  
HETATM    4  O   UNL     1     -11.272   7.839  73.198  1.00  0.00    -0.402 OA 
BRANCH   3   5
HETATM    5  C   UNL     1     -11.234   7.699  70.848  1.00  0.00    -0.282 A  
HETATM    6  C   UNL     1     -10.642   8.706  70.053  1.00  0.00    -0.233 A  
HETATM    7  C   UNL     1     -10.102   8.448  68.764  1.00  0.00    -0.196 A  
HETATM    8  C   UNL     1     -10.143   7.100  68.348  1.00  0.00    -0.168 A  
HETATM    9  S   UNL     1      -9.636   6.537  66.748  1.00  0.00    -0.161 SA 
HETATM   10  C   UNL     1     -10.663   6.082  69.174  1.00  0.00    -0.399 A  
HETATM   11  C   UNL     1      -8.838   7.969  66.086  1.00  0.00    -0.166 A  
HETATM   12  C   UNL     1     -11.218   6.383  70.407  1.00  0.00    -0.435 A  
HETATM   13  C   UNL     1      -8.248   7.780  64.820  1.00  0.00    -0.100 A  
HETATM   14  C   UNL     1      -7.556   8.805  64.194  1.00  0.00    -0.122 A  
HETATM   15  C   UNL     1      -7.360   9.990  64.885  1.00  0.00    -0.140 A  
HETATM   16  C   UNL     1      -7.908  10.153  66.165  1.00  0.00    -0.116 A  
HETATM   17  C   UNL     1      -8.770   9.209  66.756  1.00  0.00    -0.127 A  
HETATM   18  N   UNL     1      -9.531   9.476  67.932  1.00  0.00    -0.132 NA 
BRANCH  18  19
HETATM   19  C   UNL     1      -9.720  10.904  68.380  1.00  0.00    -0.176 C  
BRANCH  19  20
HETATM   20  C   UNL     1     -10.993  11.701  67.903  1.00  0.00    -0.225 C  
HETATM   21  C   UNL     1     -11.391  12.731  68.973  1.00  0.00    -0.346 C  
BRANCH  20  22
HETATM   22  N   UNL     1     -10.816  12.376  66.567  1.00  0.00    -0.243 NA 
HETATM   23  C   UNL     1      -9.776  13.416  66.631  1.00  0.00    -0.275 C  
HETATM   24  C   UNL     1     -12.051  13.003  66.076  1.00  0.00    -0.432 C  
ENDBRANCH  20  22
ENDBRANCH  19  20
ENDBRANCH  18  19
ENDBRANCH   3   5
ENDBRANCH   2   3
TORSDOF 5
ENDMDL
MODEL       72
REMARK 921   NORMALIZED FREE ENERGY PREDICTED BY IDOCK:   -4.69 KCAL/MOL
REMARK 922        TOTAL FREE ENERGY PREDICTED BY IDOCK:   -6.80 KCAL/MOL
REMARK 923 INTER-LIGAND FREE ENERGY PREDICTED BY IDOCK:   -6.13 KCAL/MOL
REMARK 924 INTRA-LIGAND FREE ENERGY PREDICTED BY IDOCK:   -0.67 KCAL/MOL
REMARK 927      BINDING AFFINITY PREDICTED BY RF-SCORE:    0.00 PKD
ROOT
HETATM    1  C   UNL     1      -9.060   6.641  68.049  1.00  0.00    -0.114 C  
HETATM    2  C   UNL     1      -9.760   7.819  68.711  1.00  0.00    -0.157 C  
ENDROOT
BRANCH   2   3
HETATM    3  C   UNL     1     -10.093   8.917  67.714  1.00  0.00    -0.210 C  
HETATM    4  O   UNL     1     -10.782   8.702  66.722  1.00  0.00    -0.221 OA 
BRANCH   3   5
HETATM    5  C   UNL     1      -9.581  10.303  67.964  1.00  0.00    -0.159 A  
HETATM    6  C   UNL     1     -10.340  11.467  67.707  1.00  0.00    -0.206 A  
HETATM    7  C   UNL     1      -9.807  12.777  67.847  1.00  0.00    -0.223 A  
HETATM    8  C   UNL     1      -8.478  12.844  68.317  1.00  0.00    -0.161 A  
HETATM    9  S   UNL     1      -7.552  14.345  68.473  1.00  0.00    -0.132 SA 
HETATM   10  C   UNL     1      -7.747  11.685  68.648  1.00  0.00    -0.134 A  
HETATM   11  C   UNL     1      -8.798  15.576  68.225  1.00  0.00    -0.179 A  
HETATM   12  C   UNL     1      -8.290  10.424  68.456  1.00  0.00    -0.124 A  
HETATM   13  C   UNL     1      -8.350  16.903  68.380  1.00  0.00    -0.238 A  
HETATM   14  C   UNL     1      -9.223  17.972  68.252  1.00  0.00    -0.298 A  
HETATM   15  C   UNL     1     -10.572  17.706  68.076  1.00  0.00    -0.379 A  
HETATM   16  C   UNL     1     -11.018  16.382  67.973  1.00  0.00    -0.327 A  
HETATM   17  C   UNL     1     -10.141  15.281  67.912  1.00  0.00    -0.233 A  
HETATM   18  N   UNL     1     -10.562  13.967  67.551  1.00  0.00    -0.255 NA 
BRANCH  18  19
HETATM   19  C   UNL     1     -11.894  13.783  66.865  1.00  0.00    -0.413 C  
BRANCH  19  20
HETATM   20  C   UNL     1     -11.961  13.802  65.291  1.00  0.00    -0.374 C  
HETATM   21  C   UNL     1     -10.944  14.816  64.741  1.00  0.00    -0.393 C  
BRANCH  20  22
HETATM   22  N   UNL     1     -11.744  12.449  64.663  1.00  0.00    -0.350 NA 
HETATM   23  C   UNL     1     -10.423  12.368  64.017  1.00  0.00    -0.416 C  
HETATM   24  C   UNL     1     -12.761  12.119  63.654  1.00  0.00    -0.432 C  
ENDBRANCH  20  22
ENDBRANCH  19  20
ENDBRANCH  18  19
ENDBRANCH   3   5
ENDBRANCH   2   3
TORSDOF 5
ENDMDL
MODEL       73
REMARK 921   NORMALIZED FREE ENERGY PREDICTED BY IDOCK:   -4.65 KCAL/MOL
REMARK 922        TOTAL FREE ENERGY PREDICTED BY IDOCK:   -6.74 KCAL/MOL
REMARK 923 INTER-LIGAND FREE ENERGY PREDICTED BY IDOCK:   -6.47 KCAL/MOL
REMARK 924 INTRA-LIGAND FREE ENERGY PREDICTED BY IDOCK:   -0.27 KCAL/MOL
REMARK 927      BINDING AFFINITY PREDICTED BY RF-SCORE:    0.00 PKD
ROOT
HETATM    1  C   UNL     1      -8.894  19.949  68.061  1.00  0.00    -0.335 C  
HETATM    2  C   UNL     1     -10.084  19.168  68.598  1.00  0.00    -0.471 C  
ENDROOT
BRANCH   2   3
HETATM    3  C   UNL     1     -10.437  17.986  67.709  1.00  0.00    -0.408 C  
HETATM    4  O   UNL     1     -10.472  18.084  66.487  1.00  0.00    -0.368 OA 
BRANCH   3   5
HETATM    5  C   UNL     1     -10.731  16.662  68.346  1.00  0.00    -0.353 A  
HETATM    6  C   UNL     1     -10.357  15.427  67.773  1.00  0.00    -0.253 A  
HETATM    7  C   UNL     1     -10.733  14.175  68.331  1.00  0.00    -0.256 A  
HETATM    8  C   UNL     1     -11.463  14.244  69.537  1.00  0.00    -0.287 A  
HETATM    9  S   UNL     1     -12.140  12.838  70.372  1.00  0.00    -0.204 SA 
HETATM   10  C   UNL     1     -11.769  15.476  70.151  1.00  0.00    -0.367 A  
HETATM   11  C   UNL     1     -11.387  11.493  69.505  1.00  0.00    -0.274 A  
HETATM   12  C   UNL     1     -11.419  16.675  69.551  1.00  0.00     0.168 A  
HETATM   13  C   UNL     1     -11.689  10.218  70.024  1.00  0.00    -0.330 A  
HETATM   14  C   UNL     1     -11.141   9.073  69.468  1.00  0.00    -0.039 A  
HETATM   15  C   UNL     1     -10.201   9.211  68.459  1.00  0.00    -0.223 A  
HETATM   16  C   UNL     1      -9.868  10.486  67.982  1.00  0.00    -0.166 A  
HETATM   17  C   UNL     1     -10.537  11.656  68.391  1.00  0.00    -0.211 A  
HETATM   18  N   UNL     1     -10.388  12.912  67.732  1.00  0.00    -0.218 NA 
BRANCH  18  19
HETATM   19  C   UNL     1      -9.788  12.950  66.347  1.00  0.00    -0.268 C  
BRANCH  19  20
HETATM   20  C   UNL     1     -10.705  13.316  65.118  1.00  0.00    -0.322 C  
HETATM   21  C   UNL     1     -10.467  14.780  64.712  1.00  0.00    -0.317 C  
BRANCH  20  22
HETATM   22  N   UNL     1     -10.513  12.406  63.933  1.00  0.00    -0.413 NA 
HETATM   23  C   UNL     1     -11.733  12.340  63.110  1.00  0.00    -0.220 C  
HETATM   24  C   UNL     1     -10.157  11.033  64.320  1.00  0.00    -0.339 C  
ENDBRANCH  20  22
ENDBRANCH  19  20
ENDBRANCH  18  19
ENDBRANCH   3   5
ENDBRANCH   2   3
TORSDOF 5
ENDMDL
MODEL       74
REMARK 921   NORMALIZED FREE ENERGY PREDICTED BY IDOCK:   -4.64 KCAL/MOL
REMARK 922        TOTAL FREE ENERGY PREDICTED BY IDOCK:   -6.73 KCAL/MOL
REMARK 923 INTER-LIGAND FREE ENERGY PREDICTED BY IDOCK:   -6.01 KCAL/MOL
REMARK 924 INTRA-LIGAND FREE ENERGY PREDICTED BY IDOCK:   -0.72 KCAL/MOL
REMARK 927      BINDING AFFINITY PREDICTED BY RF-SCORE:    0.00 PKD
ROOT
HETATM    1  C   UNL     1     -12.347  14.389  69.983  1.00  0.00    -0.391 C  
HETATM    2  C   UNL     1     -11.702  13.087  69.532  1.00  0.00    -0.381 C  
ENDROOT
BRANCH   2   3
HETATM    3  C   UNL     1     -11.745  12.923  68.022  1.00  0.00    -0.356 C  
HETATM    4  O   UNL     1     -12.254  13.768  67.294  1.00  0.00    -0.375 OA 
BRANCH   3   5
HETATM    5  C   UNL     1     -11.129  11.703  67.407  1.00  0.00    -0.337 A  
HETATM    6  C   UNL     1     -11.108  10.442  68.042  1.00  0.00    -0.359 A  
HETATM    7  C   UNL     1     -10.429   9.319  67.498  1.00  0.00    -0.274 A  
HETATM    8  C   UNL     1      -9.818   9.529  66.242  1.00  0.00    -0.266 A  
HETATM    9  S   UNL     1      -8.823   8.328  65.406  1.00  0.00    -0.005 SA 
HETATM   10  C   UNL     1      -9.905  10.766  65.571  1.00  0.00    -0.309 A  
HETATM   11  C   UNL     1      -9.117   6.871  66.363  1.00  0.00    -0.159 A  
HETATM   12  C   UNL     1     -10.542  11.848  66.158  1.00  0.00    -0.295 A  
HETATM   13  C   UNL     1      -8.500   5.706  65.864  1.00  0.00    -0.136 A  
HETATM   14  C   UNL     1      -8.672   4.481  66.490  1.00  0.00    -0.112 A  
HETATM   15  C   UNL     1      -9.554   4.402  67.557  1.00  0.00    -0.213 A  
HETATM   16  C   UNL     1     -10.203   5.556  68.017  1.00  0.00    -0.233 A  
HETATM   17  C   UNL     1      -9.913   6.844  67.527  1.00  0.00    -0.149 A  
HETATM   18  N   UNL     1     -10.371   8.040  68.157  1.00  0.00    -0.207 NA 
BRANCH  18  19
HETATM   19  C   UNL     1     -10.876   7.977  69.578  1.00  0.00    -0.129 C  
BRANCH  19  20
HETATM   20  C   UNL     1      -9.844   7.821  70.759  1.00  0.00    -0.180 C  
HETATM   21  C   UNL     1      -9.444   9.209  71.285  1.00  0.00    -0.313 C  
BRANCH  20  22
HETATM   22  N   UNL     1     -10.347   6.958  71.887  1.00  0.00    -0.190 NA 
HETATM   23  C   UNL     1     -11.576   6.243  71.504  1.00  0.00    -0.287 C  
HETATM   24  C   UNL     1     -10.634   7.725  73.107  1.00  0.00    -0.352 C  
ENDBRANCH  20  22
ENDBRANCH  19  20
ENDBRANCH  18  19
ENDBRANCH   3   5
ENDBRANCH   2   3
TORSDOF 5
ENDMDL
MODEL       75
REMARK 921   NORMALIZED FREE ENERGY PREDICTED BY IDOCK:   -4.63 KCAL/MOL
REMARK 922        TOTAL FREE ENERGY PREDICTED BY IDOCK:   -6.72 KCAL/MOL
REMARK 923 INTER-LIGAND FREE ENERGY PREDICTED BY IDOCK:   -6.00 KCAL/MOL
REMARK 924 INTRA-LIGAND FREE ENERGY PREDICTED BY IDOCK:   -0.72 KCAL/MOL
REMARK 927      BINDING AFFINITY PREDICTED BY RF-SCORE:    0.00 PKD
ROOT
HETATM    1  C   UNL     1     -10.298   8.805  67.781  1.00  0.00    -0.297 C  
HETATM    2  C   UNL     1      -9.710   9.910  66.916  1.00  0.00    -0.236 C  
ENDROOT
BRANCH   2   3
HETATM    3  C   UNL     1      -8.308  10.294  67.358  1.00  0.00    -0.118 C  
HETATM    4  O   UNL     1      -7.431   9.453  67.526  1.00  0.00    -0.089 OA 
BRANCH   3   5
HETATM    5  C   UNL     1      -7.985  11.741  67.573  1.00  0.00    -0.148 A  
HETATM    6  C   UNL     1      -8.962  12.761  67.572  1.00  0.00    -0.192 A  
HETATM    7  C   UNL     1      -8.633  14.140  67.671  1.00  0.00    -0.189 A  
HETATM    8  C   UNL     1      -7.260  14.426  67.830  1.00  0.00    -0.175 A  
HETATM    9  S   UNL     1      -6.582  16.061  67.867  1.00  0.00    -0.158 SA 
HETATM   10  C   UNL     1      -6.292  13.404  67.910  1.00  0.00    -0.151 A  
HETATM   11  C   UNL     1      -8.034  17.062  67.989  1.00  0.00    -0.195 A  
HETATM   12  C   UNL     1      -6.651  12.073  67.766  1.00  0.00    -0.093 A  
HETATM   13  C   UNL     1      -7.785  18.443  68.124  1.00  0.00    -0.304 A  
HETATM   14  C   UNL     1      -8.827  19.346  68.267  1.00  0.00    -0.382 A  
HETATM   15  C   UNL     1     -10.117  18.855  68.386  1.00  0.00    -0.449 A  
HETATM   16  C   UNL     1     -10.352  17.475  68.302  1.00  0.00    -0.379 A  
HETATM   17  C   UNL     1      -9.346  16.546  67.972  1.00  0.00    -0.218 A  
HETATM   18  N   UNL     1      -9.620  15.188  67.632  1.00  0.00    -0.206 NA 
BRANCH  18  19
HETATM   19  C   UNL     1     -11.027  14.792  67.257  1.00  0.00    -0.318 C  
BRANCH  19  20
HETATM   20  C   UNL     1     -11.466  14.839  65.744  1.00  0.00    -0.322 C  
HETATM   21  C   UNL     1     -10.573  15.829  64.977  1.00  0.00    -0.397 C  
BRANCH  20  22
HETATM   22  N   UNL     1     -11.452  13.491  65.071  1.00  0.00    -0.310 NA 
HETATM   23  C   UNL     1     -11.979  13.576  63.699  1.00  0.00    -0.385 C  
HETATM   24  C   UNL     1     -12.241  12.485  65.796  1.00  0.00    -0.292 C  
ENDBRANCH  20  22
ENDBRANCH  19  20
ENDBRANCH  18  19
ENDBRANCH   3   5
ENDBRANCH   2   3
TORSDOF 5
ENDMDL
MODEL       76
REMARK 921   NORMALIZED FREE ENERGY PREDICTED BY IDOCK:   -4.62 KCAL/MOL
REMARK 922        TOTAL FREE ENERGY PREDICTED BY IDOCK:   -6.71 KCAL/MOL
REMARK 923 INTER-LIGAND FREE ENERGY PREDICTED BY IDOCK:   -6.32 KCAL/MOL
REMARK 924 INTRA-LIGAND FREE ENERGY PREDICTED BY IDOCK:   -0.39 KCAL/MOL
REMARK 927      BINDING AFFINITY PREDICTED BY RF-SCORE:    0.00 PKD
ROOT
HETATM    1  C   UNL     1      -5.719  14.411  71.236  1.00  0.00    -0.171 C  
HETATM    2  C   UNL     1      -5.248  13.534  70.086  1.00  0.00    -0.099 C  
ENDROOT
BRANCH   2   3
HETATM    3  C   UNL     1      -6.041  12.240  69.994  1.00  0.00    -0.130 C  
HETATM    4  O   UNL     1      -6.033  11.412  70.898  1.00  0.00    -0.353 OA 
BRANCH   3   5
HETATM    5  C   UNL     1      -6.871  11.983  68.772  1.00  0.00    -0.094 A  
HETATM    6  C   UNL     1      -7.919  12.833  68.355  1.00  0.00    -0.137 A  
HETATM    7  C   UNL     1      -8.767  12.524  67.258  1.00  0.00    -0.193 A  
HETATM    8  C   UNL     1      -8.457  11.331  66.569  1.00  0.00    -0.171 A  
HETATM    9  S   UNL     1      -9.423  10.670  65.240  1.00  0.00    -0.242 SA 
HETATM   10  C   UNL     1      -7.362  10.523  66.937  1.00  0.00    -0.110 A  
HETATM   11  C   UNL     1     -10.529  12.004  64.886  1.00  0.00    -0.285 A  
HETATM   12  C   UNL     1      -6.586  10.839  68.040  1.00  0.00    -0.063 A  
HETATM   13  C   UNL     1     -11.381  11.782  63.786  1.00  0.00    -0.524 A  
HETATM   14  C   UNL     1     -12.276  12.755  63.368  1.00  0.00    -0.594 A  
HETATM   15  C   UNL     1     -12.241  13.996  63.986  1.00  0.00    -0.395 A  
HETATM   16  C   UNL     1     -11.355  14.225  65.047  1.00  0.00    -0.365 A  
HETATM   17  C   UNL     1     -10.565  13.208  65.619  1.00  0.00    -0.277 A  
HETATM   18  N   UNL     1      -9.862  13.366  66.850  1.00  0.00    -0.249 NA 
BRANCH  18  19
HETATM   19  C   UNL     1     -10.233  14.503  67.770  1.00  0.00    -0.226 C  
BRANCH  19  20
HETATM   20  C   UNL     1      -9.503  15.892  67.614  1.00  0.00    -0.219 C  
HETATM   21  C   UNL     1      -8.566  15.852  66.396  1.00  0.00    -0.364 C  
BRANCH  20  22
HETATM   22  N   UNL     1     -10.449  17.060  67.509  1.00  0.00    -0.333 NA 
HETATM   23  C   UNL     1     -10.334  17.721  66.198  1.00  0.00    -0.340 C  
HETATM   24  C   UNL     1     -10.221  18.075  68.547  1.00  0.00    -0.385 C  
ENDBRANCH  20  22
ENDBRANCH  19  20
ENDBRANCH  18  19
ENDBRANCH   3   5
ENDBRANCH   2   3
TORSDOF 5
ENDMDL
MODEL       77
REMARK 921   NORMALIZED FREE ENERGY PREDICTED BY IDOCK:   -4.61 KCAL/MOL
REMARK 922        TOTAL FREE ENERGY PREDICTED BY IDOCK:   -6.69 KCAL/MOL
REMARK 923 INTER-LIGAND FREE ENERGY PREDICTED BY IDOCK:   -6.08 KCAL/MOL
REMARK 924 INTRA-LIGAND FREE ENERGY PREDICTED BY IDOCK:   -0.61 KCAL/MOL
REMARK 927      BINDING AFFINITY PREDICTED BY RF-SCORE:    0.00 PKD
ROOT
HETATM    1  C   UNL     1     -10.241  19.899  66.548  1.00  0.00    -0.611 C  
HETATM    2  C   UNL     1      -9.037  19.511  67.394  1.00  0.00    -0.377 C  
ENDROOT
BRANCH   2   3
HETATM    3  C   UNL     1      -8.104  18.564  66.658  1.00  0.00    -0.264 C  
HETATM    4  O   UNL     1      -7.529  18.896  65.627  1.00  0.00    -0.479 OA 
BRANCH   3   5
HETATM    5  C   UNL     1      -7.868  17.195  67.220  1.00  0.00    -0.200 A  
HETATM    6  C   UNL     1      -8.496  16.033  66.721  1.00  0.00    -0.295 A  
HETATM    7  C   UNL     1      -8.347  14.758  67.329  1.00  0.00    -0.212 A  
HETATM    8  C   UNL     1      -7.478  14.713  68.440  1.00  0.00    -0.117 A  
HETATM    9  S   UNL     1      -7.207  13.275  69.435  1.00  0.00     0.341 SA 
HETATM   10  C   UNL     1      -6.789  15.858  68.891  1.00  0.00    -0.138 A  
HETATM   11  C   UNL     1      -7.995  12.011  68.482  1.00  0.00    -0.132 A  
HETATM   12  C   UNL     1      -6.996  17.092  68.295  1.00  0.00    -0.180 A  
HETATM   13  C   UNL     1      -7.861  10.710  69.008  1.00  0.00    -0.137 A  
HETATM   14  C   UNL     1      -8.396   9.614  68.349  1.00  0.00    -0.117 A  
HETATM   15  C   UNL     1      -8.973   9.808  67.103  1.00  0.00    -0.148 A  
HETATM   16  C   UNL     1      -9.057  11.099  66.564  1.00  0.00    -0.193 A  
HETATM   17  C   UNL     1      -8.695  12.254  67.282  1.00  0.00    -0.188 A  
HETATM   18  N   UNL     1      -9.015  13.575  66.848  1.00  0.00    -0.229 NA 
BRANCH  18  19
HETATM   19  C   UNL     1     -10.073  13.767  65.789  1.00  0.00    -0.307 C  
BRANCH  19  20
HETATM   20  C   UNL     1     -11.560  13.348  66.099  1.00  0.00    -0.346 C  
HETATM   21  C   UNL     1     -12.100  14.183  67.272  1.00  0.00    -0.407 C  
BRANCH  20  22
HETATM   22  N   UNL     1     -12.477  13.462  64.909  1.00  0.00    -0.556 NA 
HETATM   23  C   UNL     1     -12.300  12.326  63.990  1.00  0.00    -0.475 C  
HETATM   24  C   UNL     1     -12.267  14.699  64.144  1.00  0.00    -0.315 C  
ENDBRANCH  20  22
ENDBRANCH  19  20
ENDBRANCH  18  19
ENDBRANCH   3   5
ENDBRANCH   2   3
TORSDOF 5
ENDMDL
MODEL       78
REMARK 921   NORMALIZED FREE ENERGY PREDICTED BY IDOCK:   -4.58 KCAL/MOL
REMARK 922        TOTAL FREE ENERGY PREDICTED BY IDOCK:   -6.65 KCAL/MOL
REMARK 923 INTER-LIGAND FREE ENERGY PREDICTED BY IDOCK:   -6.11 KCAL/MOL
REMARK 924 INTRA-LIGAND FREE ENERGY PREDICTED BY IDOCK:   -0.54 KCAL/MOL
REMARK 927      BINDING AFFINITY PREDICTED BY RF-SCORE:    0.00 PKD
ROOT
HETATM    1  C   UNL     1      -8.323   4.564  71.224  1.00  0.00    -0.107 C  
HETATM    2  C   UNL     1      -9.726   4.219  70.747  1.00  0.00    -0.274 C  
ENDROOT
BRANCH   2   3
HETATM    3  C   UNL     1     -10.172   5.110  69.599  1.00  0.00    -0.267 C  
HETATM    4  O   UNL     1     -10.097   4.745  68.431  1.00  0.00    -0.127 OA 
BRANCH   3   5
HETATM    5  C   UNL     1     -10.738   6.463  69.908  1.00  0.00    -0.332 A  
HETATM    6  C   UNL     1     -10.424   7.622  69.166  1.00  0.00    -0.220 A  
HETATM    7  C   UNL     1     -10.882   8.917  69.532  1.00  0.00    -0.153 A  
HETATM    8  C   UNL     1     -11.726   8.964  70.663  1.00  0.00    -0.179 A  
HETATM    9  S   UNL     1     -12.339  10.459  71.385  1.00  0.00    -0.387 SA 
HETATM   10  C   UNL     1     -12.103   7.797  71.358  1.00  0.00    -0.335 A  
HETATM   11  C   UNL     1     -11.899  11.666  70.170  1.00  0.00    -0.344 A  
HETATM   12  C   UNL     1     -11.600   6.559  70.992  1.00  0.00    -0.405 A  
HETATM   13  C   UNL     1     -12.350  12.972  70.450  1.00  0.00    -0.351 A  
HETATM   14  C   UNL     1     -12.111  14.014  69.568  1.00  0.00    -0.397 A  
HETATM   15  C   UNL     1     -11.515  13.728  68.350  1.00  0.00    -0.351 A  
HETATM   16  C   UNL     1     -11.115  12.417  68.057  1.00  0.00    -0.288 A  
HETATM   17  C   UNL     1     -11.171  11.370  68.999  1.00  0.00    -0.256 A  
HETATM   18  N   UNL     1     -10.535  10.109  68.802  1.00  0.00    -0.193 NA 
BRANCH  18  19
HETATM   19  C   UNL     1      -9.471   9.977  67.740  1.00  0.00    -0.140 C  
BRANCH  19  20
HETATM   20  C   UNL     1      -9.807   9.217  66.401  1.00  0.00    -0.280 C  
HETATM   21  C   UNL     1     -10.244  10.226  65.326  1.00  0.00    -0.308 C  
BRANCH  20  22
HETATM   22  N   UNL     1      -8.671   8.368  65.891  1.00  0.00    -0.160 NA 
HETATM   23  C   UNL     1      -8.368   8.675  64.483  1.00  0.00    -0.147 C  
HETATM   24  C   UNL     1      -8.946   6.928  65.989  1.00  0.00    -0.105 C  
ENDBRANCH  20  22
ENDBRANCH  19  20
ENDBRANCH  18  19
ENDBRANCH   3   5
ENDBRANCH   2   3
TORSDOF 5
ENDMDL
MODEL       79
REMARK 921   NORMALIZED FREE ENERGY PREDICTED BY IDOCK:   -4.57 KCAL/MOL
REMARK 922        TOTAL FREE ENERGY PREDICTED BY IDOCK:   -6.64 KCAL/MOL
REMARK 923 INTER-LIGAND FREE ENERGY PREDICTED BY IDOCK:   -6.06 KCAL/MOL
REMARK 924 INTRA-LIGAND FREE ENERGY PREDICTED BY IDOCK:   -0.58 KCAL/MOL
REMARK 927      BINDING AFFINITY PREDICTED BY RF-SCORE:    0.00 PKD
ROOT
HETATM    1  C   UNL     1      -9.962   8.636  66.467  1.00  0.00    -0.353 C  
HETATM    2  C   UNL     1      -9.667   9.991  67.092  1.00  0.00    -0.217 C  
ENDROOT
BRANCH   2   3
HETATM    3  C   UNL     1      -8.408  10.620  66.519  1.00  0.00    -0.143 C  
HETATM    4  O   UNL     1      -7.718  10.043  65.686  1.00  0.00    -0.123 OA 
BRANCH   3   5
HETATM    5  C   UNL     1      -8.012  11.993  66.972  1.00  0.00    -0.150 A  
HETATM    6  C   UNL     1      -8.901  13.091  66.986  1.00  0.00    -0.213 A  
HETATM    7  C   UNL     1      -8.487  14.409  67.316  1.00  0.00    -0.212 A  
HETATM    8  C   UNL     1      -7.132  14.545  67.688  1.00  0.00    -0.183 A  
HETATM    9  S   UNL     1      -6.346  16.092  68.038  1.00  0.00    -0.142 SA 
HETATM   10  C   UNL     1      -6.264  13.436  67.750  1.00  0.00    -0.160 A  
HETATM   11  C   UNL     1      -7.723  17.200  68.110  1.00  0.00    -0.204 A  
HETATM   12  C   UNL     1      -6.697  12.173  67.379  1.00  0.00    -0.143 A  
HETATM   13  C   UNL     1      -7.393  18.523  68.465  1.00  0.00    -0.314 A  
HETATM   14  C   UNL     1      -8.375  19.493  68.596  1.00  0.00    -0.364 A  
HETATM   15  C   UNL     1      -9.702  19.112  68.479  1.00  0.00    -0.467 A  
HETATM   16  C   UNL     1     -10.025  17.782  68.176  1.00  0.00    -0.342 A  
HETATM   17  C   UNL     1      -9.055  16.813  67.853  1.00  0.00    -0.224 A  
HETATM   18  N   UNL     1      -9.379  15.540  67.296  1.00  0.00    -0.209 NA 
BRANCH  18  19
HETATM   19  C   UNL     1     -10.745  15.327  66.692  1.00  0.00    -0.309 C  
BRANCH  19  20
HETATM   20  C   UNL     1     -11.874  14.647  67.556  1.00  0.00    -0.347 C  
HETATM   21  C   UNL     1     -12.243  13.284  66.949  1.00  0.00    -0.315 C  
BRANCH  20  22
HETATM   22  N   UNL     1     -11.507  14.492  69.009  1.00  0.00    -0.273 NA 
HETATM   23  C   UNL     1     -11.748  13.115  69.474  1.00  0.00    -0.319 C  
HETATM   24  C   UNL     1     -12.256  15.402  69.887  1.00  0.00    -0.334 C  
ENDBRANCH  20  22
ENDBRANCH  19  20
ENDBRANCH  18  19
ENDBRANCH   3   5
ENDBRANCH   2   3
TORSDOF 5
ENDMDL
MODEL       80
REMARK 921   NORMALIZED FREE ENERGY PREDICTED BY IDOCK:   -4.53 KCAL/MOL
REMARK 922        TOTAL FREE ENERGY PREDICTED BY IDOCK:   -6.60 KCAL/MOL
REMARK 923 INTER-LIGAND FREE ENERGY PREDICTED BY IDOCK:   -5.76 KCAL/MOL
REMARK 924 INTRA-LIGAND FREE ENERGY PREDICTED BY IDOCK:   -0.84 KCAL/MOL
REMARK 927      BINDING AFFINITY PREDICTED BY RF-SCORE:    0.00 PKD
ROOT
HETATM    1  C   UNL     1     -10.147   4.807  65.734  1.00  0.00    -0.236 C  
HETATM    2  C   UNL     1      -9.337   5.991  66.239  1.00  0.00    -0.165 C  
ENDROOT
BRANCH   2   3
HETATM    3  C   UNL     1     -10.213   7.038  66.906  1.00  0.00    -0.248 C  
HETATM    4  O   UNL     1     -11.408   6.848  67.107  1.00  0.00    -0.290 OA 
BRANCH   3   5
HETATM    5  C   UNL     1      -9.594   8.329  67.347  1.00  0.00    -0.205 A  
HETATM    6  C   UNL     1     -10.290   9.558  67.361  1.00  0.00    -0.319 A  
HETATM    7  C   UNL     1      -9.663  10.793  67.679  1.00  0.00    -0.166 A  
HETATM    8  C   UNL     1      -8.301  10.706  68.039  1.00  0.00    -0.118 A  
HETATM    9  S   UNL     1      -7.269  12.105  68.372  1.00  0.00    -0.103 SA 
HETATM   10  C   UNL     1      -7.625   9.470  68.101  1.00  0.00    -0.079 A  
HETATM   11  C   UNL     1      -8.445  13.424  68.448  1.00  0.00    -0.135 A  
HETATM   12  C   UNL     1      -8.264   8.294  67.741  1.00  0.00    -0.127 A  
HETATM   13  C   UNL     1      -7.899  14.677  68.791  1.00  0.00    -0.146 A  
HETATM   14  C   UNL     1      -8.707  15.796  68.924  1.00  0.00    -0.217 A  
HETATM   15  C   UNL     1     -10.080  15.637  68.821  1.00  0.00    -0.211 A  
HETATM   16  C   UNL     1     -10.619  14.376  68.529  1.00  0.00    -0.256 A  
HETATM   17  C   UNL     1      -9.824  13.260  68.204  1.00  0.00    -0.231 A  
HETATM   18  N   UNL     1     -10.357  12.055  67.659  1.00  0.00    -0.196 NA 
BRANCH  18  19
HETATM   19  C   UNL     1     -11.746  12.065  67.068  1.00  0.00    -0.267 C  
BRANCH  19  20
HETATM   20  C   UNL     1     -11.949  12.550  65.582  1.00  0.00    -0.433 C  
HETATM   21  C   UNL     1     -12.847  13.798  65.563  1.00  0.00    -0.464 C  
BRANCH  20  22
HETATM   22  N   UNL     1     -10.657  12.823  64.856  1.00  0.00    -0.301 NA 
HETATM   23  C   UNL     1     -10.427  14.269  64.705  1.00  0.00    -0.395 C  
HETATM   24  C   UNL     1     -10.616  12.218  63.518  1.00  0.00    -0.448 C  
ENDBRANCH  20  22
ENDBRANCH  19  20
ENDBRANCH  18  19
ENDBRANCH   3   5
ENDBRANCH   2   3
TORSDOF 5
ENDMDL
MODEL       81
REMARK 921   NORMALIZED FREE ENERGY PREDICTED BY IDOCK:   -4.53 KCAL/MOL
REMARK 922        TOTAL FREE ENERGY PREDICTED BY IDOCK:   -6.59 KCAL/MOL
REMARK 923 INTER-LIGAND FREE ENERGY PREDICTED BY IDOCK:   -6.13 KCAL/MOL
REMARK 924 INTRA-LIGAND FREE ENERGY PREDICTED BY IDOCK:   -0.46 KCAL/MOL
REMARK 927      BINDING AFFINITY PREDICTED BY RF-SCORE:    0.00 PKD
ROOT
HETATM    1  C   UNL     1     -12.539  12.218  64.363  1.00  0.00    -0.447 C  
HETATM    2  C   UNL     1     -11.937  13.213  65.343  1.00  0.00    -0.448 C  
ENDROOT
BRANCH   2   3
HETATM    3  C   UNL     1     -11.837  14.608  64.749  1.00  0.00    -0.440 C  
HETATM    4  O   UNL     1     -12.469  14.932  63.750  1.00  0.00    -0.768 OA 
BRANCH   3   5
HETATM    5  C   UNL     1     -10.956  15.619  65.418  1.00  0.00    -0.342 A  
HETATM    6  C   UNL     1      -9.973  15.280  66.373  1.00  0.00    -0.291 A  
HETATM    7  C   UNL     1      -9.217  16.255  67.078  1.00  0.00    -0.214 A  
HETATM    8  C   UNL     1      -9.472  17.596  66.718  1.00  0.00    -0.280 A  
HETATM    9  S   UNL     1      -8.746  18.997  67.520  1.00  0.00    -0.293 SA 
HETATM   10  C   UNL     1     -10.398  17.932  65.709  1.00  0.00    -0.182 A  
HETATM   11  C   UNL     1      -7.500  18.245  68.525  1.00  0.00    -0.288 A  
HETATM   12  C   UNL     1     -11.145  16.951  65.076  1.00  0.00     0.004 A  
HETATM   13  C   UNL     1      -6.687  19.154  69.231  1.00  0.00    -0.340 A  
HETATM   14  C   UNL     1      -5.646  18.710  70.030  1.00  0.00    -0.239 A  
HETATM   15  C   UNL     1      -5.347  17.356  70.037  1.00  0.00    -0.227 A  
HETATM   16  C   UNL     1      -6.130  16.463  69.292  1.00  0.00    -0.169 A  
HETATM   17  C   UNL     1      -7.304  16.851  68.619  1.00  0.00    -0.222 A  
HETATM   18  N   UNL     1      -8.239  15.918  68.080  1.00  0.00    -0.148 NA 
BRANCH  18  19
HETATM   19  C   UNL     1      -8.189  14.479  68.533  1.00  0.00    -0.154 C  
BRANCH  19  20
HETATM   20  C   UNL     1      -7.537  13.396  67.591  1.00  0.00    -0.174 C  
HETATM   21  C   UNL     1      -6.082  13.145  68.020  1.00  0.00    -0.118 C  
BRANCH  20  22
HETATM   22  N   UNL     1      -8.302  12.099  67.548  1.00  0.00    -0.156 NA 
HETATM   23  C   UNL     1      -8.344  11.461  68.875  1.00  0.00    -0.039 C  
HETATM   24  C   UNL     1      -7.730  11.131  66.601  1.00  0.00    -0.155 C  
ENDBRANCH  20  22
ENDBRANCH  19  20
ENDBRANCH  18  19
ENDBRANCH   3   5
ENDBRANCH   2   3
TORSDOF 5
ENDMDL
MODEL       82
REMARK 921   NORMALIZED FREE ENERGY PREDICTED BY IDOCK:   -4.52 KCAL/MOL
REMARK 922        TOTAL FREE ENERGY PREDICTED BY IDOCK:   -6.57 KCAL/MOL
REMARK 923 INTER-LIGAND FREE ENERGY PREDICTED BY IDOCK:   -5.78 KCAL/MOL
REMARK 924 INTRA-LIGAND FREE ENERGY PREDICTED BY IDOCK:   -0.79 KCAL/MOL
REMARK 927      BINDING AFFINITY PREDICTED BY RF-SCORE:    0.00 PKD
ROOT
HETATM    1  C   UNL     1      -6.451   9.936  66.157  1.00  0.00    -0.079 C  
HETATM    2  C   UNL     1      -7.765   9.912  65.390  1.00  0.00    -0.130 C  
ENDROOT
BRANCH   2   3
HETATM    3  C   UNL     1      -8.746   8.908  65.972  1.00  0.00    -0.160 C  
HETATM    4  O   UNL     1      -8.834   7.764  65.540  1.00  0.00    -0.118 OA 
BRANCH   3   5
HETATM    5  C   UNL     1      -9.615   9.325  67.120  1.00  0.00    -0.208 A  
HETATM    6  C   UNL     1      -9.959  10.669  67.383  1.00  0.00    -0.213 A  
HETATM    7  C   UNL     1     -10.694  11.063  68.533  1.00  0.00    -0.202 A  
HETATM    8  C   UNL     1     -11.113  10.011  69.376  1.00  0.00    -0.223 A  
HETATM    9  S   UNL     1     -11.944  10.243  70.921  1.00  0.00    -0.399 SA 
HETATM   10  C   UNL     1     -10.837   8.662  69.072  1.00  0.00    -0.043 A  
HETATM   11  C   UNL     1     -12.338  11.966  70.874  1.00  0.00    -0.300 A  
HETATM   12  C   UNL     1     -10.079   8.324  67.962  1.00  0.00    -0.243 A  
HETATM   13  C   UNL     1     -13.097  12.424  71.970  1.00  0.00    -0.470 A  
HETATM   14  C   UNL     1     -13.511  13.745  72.050  1.00  0.00    -0.559 A  
HETATM   15  C   UNL     1     -13.258  14.584  70.977  1.00  0.00    -0.414 A  
HETATM   16  C   UNL     1     -12.546  14.107  69.868  1.00  0.00    -0.205 A  
HETATM   17  C   UNL     1     -11.951  12.832  69.830  1.00  0.00    -0.298 A  
HETATM   18  N   UNL     1     -11.016  12.436  68.828  1.00  0.00    -0.240 NA 
BRANCH  18  19
HETATM   19  C   UNL     1     -10.353  13.494  67.980  1.00  0.00    -0.241 C  
BRANCH  19  20
HETATM   20  C   UNL     1      -9.141  14.309  68.571  1.00  0.00    -0.191 C  
HETATM   21  C   UNL     1      -7.826  13.563  68.285  1.00  0.00    -0.145 C  
BRANCH  20  22
HETATM   22  N   UNL     1      -9.061  15.724  68.060  1.00  0.00    -0.186 NA 
HETATM   23  C   UNL     1      -8.919  15.754  66.595  1.00  0.00    -0.280 C  
HETATM   24  C   UNL     1      -7.939  16.477  68.638  1.00  0.00    -0.232 C  
ENDBRANCH  20  22
ENDBRANCH  19  20
ENDBRANCH  18  19
ENDBRANCH   3   5
ENDBRANCH   2   3
TORSDOF 5
ENDMDL
MODEL       83
REMARK 921   NORMALIZED FREE ENERGY PREDICTED BY IDOCK:   -4.50 KCAL/MOL
REMARK 922        TOTAL FREE ENERGY PREDICTED BY IDOCK:   -6.55 KCAL/MOL
REMARK 923 INTER-LIGAND FREE ENERGY PREDICTED BY IDOCK:   -5.68 KCAL/MOL
REMARK 924 INTRA-LIGAND FREE ENERGY PREDICTED BY IDOCK:   -0.87 KCAL/MOL
REMARK 927      BINDING AFFINITY PREDICTED BY RF-SCORE:    0.00 PKD
ROOT
HETATM    1  C   UNL     1      -9.066   9.316  66.859  1.00  0.00    -0.158 C  
HETATM    2  C   UNL     1     -10.355   9.906  67.412  1.00  0.00    -0.301 C  
ENDROOT
BRANCH   2   3
HETATM    3  C   UNL     1     -10.113  10.726  68.668  1.00  0.00    -0.183 C  
HETATM    4  O   UNL     1      -9.657  10.224  69.690  1.00  0.00    -0.215 OA 
BRANCH   3   5
HETATM    5  C   UNL     1     -10.423  12.192  68.649  1.00  0.00    -0.237 A  
HETATM    6  C   UNL     1      -9.570  13.157  68.068  1.00  0.00    -0.220 A  
HETATM    7  C   UNL     1      -9.821  14.553  68.149  1.00  0.00    -0.223 A  
HETATM    8  C   UNL     1     -11.018  14.917  68.804  1.00  0.00    -0.253 A  
HETATM    9  S   UNL     1     -11.505  16.586  69.131  1.00  0.00     0.044 SA 
HETATM   10  C   UNL     1     -11.909  13.951  69.316  1.00  0.00    -0.394 A  
HETATM   11  C   UNL     1     -10.337  17.508  68.175  1.00  0.00    -0.375 A  
HETATM   12  C   UNL     1     -11.604  12.600  69.253  1.00  0.00    -0.376 A  
HETATM   13  C   UNL     1     -10.544  18.902  68.181  1.00  0.00    -0.305 A  
HETATM   14  C   UNL     1      -9.728  19.748  67.447  1.00  0.00    -0.498 A  
HETATM   15  C   UNL     1      -8.770  19.188  66.616  1.00  0.00    -0.333 A  
HETATM   16  C   UNL     1      -8.604  17.797  66.578  1.00  0.00    -0.283 A  
HETATM   17  C   UNL     1      -9.284  16.920  67.444  1.00  0.00    -0.222 A  
HETATM   18  N   UNL     1      -8.938  15.544  67.591  1.00  0.00    -0.182 NA 
BRANCH  18  19
HETATM   19  C   UNL     1      -7.595  15.065  67.096  1.00  0.00    -0.139 C  
BRANCH  19  20
HETATM   20  C   UNL     1      -6.333  15.202  68.031  1.00  0.00    -0.146 C  
HETATM   21  C   UNL     1      -5.342  16.206  67.420  1.00  0.00    -0.109 C  
BRANCH  20  22
HETATM   22  N   UNL     1      -6.673  15.595  69.445  1.00  0.00    -0.167 NA 
HETATM   23  C   UNL     1      -6.021  16.863  69.816  1.00  0.00    -0.232 C  
HETATM   24  C   UNL     1      -6.276  14.580  70.431  1.00  0.00    -0.174 C  
ENDBRANCH  20  22
ENDBRANCH  19  20
ENDBRANCH  18  19
ENDBRANCH   3   5
ENDBRANCH   2   3
TORSDOF 5
ENDMDL
MODEL       84
REMARK 921   NORMALIZED FREE ENERGY PREDICTED BY IDOCK:   -4.50 KCAL/MOL
REMARK 922        TOTAL FREE ENERGY PREDICTED BY IDOCK:   -6.55 KCAL/MOL
REMARK 923 INTER-LIGAND FREE ENERGY PREDICTED BY IDOCK:   -5.76 KCAL/MOL
REMARK 924 INTRA-LIGAND FREE ENERGY PREDICTED BY IDOCK:   -0.79 KCAL/MOL
REMARK 927      BINDING AFFINITY PREDICTED BY RF-SCORE:    0.00 PKD
ROOT
HETATM    1  C   UNL     1      -8.035   6.152  72.668  1.00  0.00    -0.103 C  
HETATM    2  C   UNL     1      -8.312   5.469  71.337  1.00  0.00    -0.126 C  
ENDROOT
BRANCH   2   3
HETATM    3  C   UNL     1      -7.438   6.018  70.222  1.00  0.00    -0.090 C  
HETATM    4  O   UNL     1      -6.273   5.662  70.080  1.00  0.00    -0.024 OA 
BRANCH   3   5
HETATM    5  C   UNL     1      -8.024   7.005  69.259  1.00  0.00    -0.119 A  
HETATM    6  C   UNL     1      -8.859   8.073  69.657  1.00  0.00    -0.141 A  
HETATM    7  C   UNL     1      -9.494   8.938  68.726  1.00  0.00    -0.144 A  
HETATM    8  C   UNL     1      -9.191   8.697  67.368  1.00  0.00    -0.136 A  
HETATM    9  S   UNL     1      -9.935   9.561  66.014  1.00  0.00    -0.238 SA 
HETATM   10  C   UNL     1      -8.297   7.681  66.976  1.00  0.00    -0.124 A  
HETATM   11  C   UNL     1     -10.782  10.879  66.835  1.00  0.00    -0.264 A  
HETATM   12  C   UNL     1      -7.731   6.832  67.914  1.00  0.00    -0.112 A  
HETATM   13  C   UNL     1     -11.411  11.799  65.972  1.00  0.00    -0.335 A  
HETATM   14  C   UNL     1     -12.082  12.904  66.473  1.00  0.00    -0.375 A  
HETATM   15  C   UNL     1     -12.030  13.148  67.837  1.00  0.00    -0.347 A  
HETATM   16  C   UNL     1     -11.359  12.255  68.683  1.00  0.00    -0.339 A  
HETATM   17  C   UNL     1     -10.827  11.030  68.237  1.00  0.00    -0.215 A  
HETATM   18  N   UNL     1     -10.377  10.006  69.122  1.00  0.00    -0.202 NA 
BRANCH  18  19
HETATM   19  C   UNL     1     -10.793  10.050  70.572  1.00  0.00    -0.314 C  
BRANCH  19  20
HETATM   20  C   UNL     1     -11.898   9.052  71.089  1.00  0.00    -0.301 C  
HETATM   21  C   UNL     1     -11.406   8.347  72.363  1.00  0.00    -0.448 C  
BRANCH  20  22
HETATM   22  N   UNL     1     -13.232   9.708  71.335  1.00  0.00    -0.381 NA 
HETATM   23  C   UNL     1     -13.066  11.101  71.782  1.00  0.00    -0.431 C  
HETATM   24  C   UNL     1     -14.036   9.004  72.344  1.00  0.00    -0.448 C  
ENDBRANCH  20  22
ENDBRANCH  19  20
ENDBRANCH  18  19
ENDBRANCH   3   5
ENDBRANCH   2   3
TORSDOF 5
ENDMDL
MODEL       85
REMARK 921   NORMALIZED FREE ENERGY PREDICTED BY IDOCK:   -4.48 KCAL/MOL
REMARK 922        TOTAL FREE ENERGY PREDICTED BY IDOCK:   -6.53 KCAL/MOL
REMARK 923 INTER-LIGAND FREE ENERGY PREDICTED BY IDOCK:   -6.09 KCAL/MOL
REMARK 924 INTRA-LIGAND FREE ENERGY PREDICTED BY IDOCK:   -0.44 KCAL/MOL
REMARK 927      BINDING AFFINITY PREDICTED BY RF-SCORE:    0.00 PKD
ROOT
HETATM    1  C   UNL     1      -7.507   9.737  67.379  1.00  0.00    -0.091 C  
HETATM    2  C   UNL     1      -8.201  10.691  68.339  1.00  0.00    -0.125 C  
ENDROOT
BRANCH   2   3
HETATM    3  C   UNL     1      -7.230  11.681  68.960  1.00  0.00    -0.094 C  
HETATM    4  O   UNL     1      -6.436  11.346  69.833  1.00  0.00    -0.133 OA 
BRANCH   3   5
HETATM    5  C   UNL     1      -7.232  13.099  68.477  1.00  0.00    -0.110 A  
HETATM    6  C   UNL     1      -8.389  13.909  68.455  1.00  0.00    -0.157 A  
HETATM    7  C   UNL     1      -8.402  15.215  67.897  1.00  0.00    -0.149 A  
HETATM    8  C   UNL     1      -7.159  15.681  67.413  1.00  0.00    -0.207 A  
HETATM    9  S   UNL     1      -6.932  17.224  66.576  1.00  0.00    -0.284 SA 
HETATM   10  C   UNL     1      -5.987  14.903  67.507  1.00  0.00     0.031 A  
HETATM   11  C   UNL     1      -8.487  18.023  66.842  1.00  0.00    -0.249 A  
HETATM   12  C   UNL     1      -6.028  13.616  68.020  1.00  0.00    -0.133 A  
HETATM   13  C   UNL     1      -8.563  19.338  66.343  1.00  0.00    -0.355 A  
HETATM   14  C   UNL     1      -9.709  20.101  66.511  1.00  0.00    -0.553 A  
HETATM   15  C   UNL     1     -10.742  19.584  67.277  1.00  0.00    -0.604 A  
HETATM   16  C   UNL     1     -10.638  18.293  67.813  1.00  0.00    -0.415 A  
HETATM   17  C   UNL     1      -9.574  17.421  67.510  1.00  0.00    -0.257 A  
HETATM   18  N   UNL     1      -9.586  16.032  67.836  1.00  0.00    -0.218 NA 
BRANCH  18  19
HETATM   19  C   UNL     1     -10.895  15.370  68.190  1.00  0.00    -0.285 C  
BRANCH  19  20
HETATM   20  C   UNL     1     -11.131  14.863  69.663  1.00  0.00    -0.276 C  
HETATM   21  C   UNL     1     -11.410  16.062  70.585  1.00  0.00    -0.424 C  
BRANCH  20  22
HETATM   22  N   UNL     1     -12.235  13.844  69.779  1.00  0.00    -0.341 NA 
HETATM   23  C   UNL     1     -12.704  13.724  71.170  1.00  0.00    -0.362 C  
HETATM   24  C   UNL     1     -11.827  12.508  69.324  1.00  0.00    -0.304 C  
ENDBRANCH  20  22
ENDBRANCH  19  20
ENDBRANCH  18  19
ENDBRANCH   3   5
ENDBRANCH   2   3
TORSDOF 5
ENDMDL
MODEL       86
REMARK 921   NORMALIZED FREE ENERGY PREDICTED BY IDOCK:   -4.46 KCAL/MOL
REMARK 922        TOTAL FREE ENERGY PREDICTED BY IDOCK:   -6.50 KCAL/MOL
REMARK 923 INTER-LIGAND FREE ENERGY PREDICTED BY IDOCK:   -5.97 KCAL/MOL
REMARK 924 INTRA-LIGAND FREE ENERGY PREDICTED BY IDOCK:   -0.54 KCAL/MOL
REMARK 927      BINDING AFFINITY PREDICTED BY RF-SCORE:    0.00 PKD
ROOT
HETATM    1  C   UNL     1      -6.633   6.861  69.402  1.00  0.00    -0.048 C  
HETATM    2  C   UNL     1      -7.864   6.423  68.622  1.00  0.00    -0.102 C  
ENDROOT
BRANCH   2   3
HETATM    3  C   UNL     1      -7.626   6.450  67.121  1.00  0.00    -0.096 C  
HETATM    4  O   UNL     1      -7.040   5.541  66.543  1.00  0.00    -0.066 OA 
BRANCH   3   5
HETATM    5  C   UNL     1      -8.140   7.612  66.326  1.00  0.00    -0.112 A  
HETATM    6  C   UNL     1      -9.091   8.530  66.822  1.00  0.00    -0.186 A  
HETATM    7  C   UNL     1      -9.650   9.563  66.023  1.00  0.00    -0.251 A  
HETATM    8  C   UNL     1      -9.148   9.652  64.707  1.00  0.00    -0.231 A  
HETATM    9  S   UNL     1      -9.754  10.778  63.484  1.00  0.00    -0.363 SA 
HETATM   10  C   UNL     1      -8.140   8.785  64.236  1.00  0.00    -0.157 A  
HETATM   11  C   UNL     1     -10.794  11.841  64.441  1.00  0.00    -0.334 A  
HETATM   12  C   UNL     1      -7.653   7.763  65.035  1.00  0.00    -0.096 A  
HETATM   13  C   UNL     1     -11.359  12.913  63.721  1.00  0.00    -0.490 A  
HETATM   14  C   UNL     1     -12.166  13.849  64.349  1.00  0.00    -0.449 A  
HETATM   15  C   UNL     1     -12.319  13.774  65.725  1.00  0.00    -0.523 A  
HETATM   16  C   UNL     1     -11.711  12.734  66.441  1.00  0.00    -0.464 A  
HETATM   17  C   UNL     1     -11.041  11.664  65.818  1.00  0.00    -0.256 A  
HETATM   18  N   UNL     1     -10.649  10.480  66.510  1.00  0.00    -0.209 NA 
BRANCH  18  19
HETATM   19  C   UNL     1     -11.263  10.175  67.855  1.00  0.00    -0.163 C  
BRANCH  19  20
HETATM   20  C   UNL     1     -10.722  10.915  69.137  1.00  0.00    -0.226 C  
HETATM   21  C   UNL     1     -11.783  11.902  69.652  1.00  0.00    -0.413 C  
BRANCH  20  22
HETATM   22  N   UNL     1     -10.298   9.979  70.238  1.00  0.00    -0.274 NA 
HETATM   23  C   UNL     1      -8.853   9.703  70.177  1.00  0.00    -0.231 C  
HETATM   24  C   UNL     1     -11.005   8.691  70.195  1.00  0.00    -0.226 C  
ENDBRANCH  20  22
ENDBRANCH  19  20
ENDBRANCH  18  19
ENDBRANCH   3   5
ENDBRANCH   2   3
TORSDOF 5
ENDMDL
MODEL       87
REMARK 921   NORMALIZED FREE ENERGY PREDICTED BY IDOCK:   -4.44 KCAL/MOL
REMARK 922        TOTAL FREE ENERGY PREDICTED BY IDOCK:   -6.48 KCAL/MOL
REMARK 923 INTER-LIGAND FREE ENERGY PREDICTED BY IDOCK:   -5.83 KCAL/MOL
REMARK 924 INTRA-LIGAND FREE ENERGY PREDICTED BY IDOCK:   -0.65 KCAL/MOL
REMARK 927      BINDING AFFINITY PREDICTED BY RF-SCORE:    0.00 PKD
ROOT
HETATM    1  C   UNL     1     -10.710  19.692  67.070  1.00  0.00    -0.575 C  
HETATM    2  C   UNL     1     -10.258  18.336  67.591  1.00  0.00    -0.397 C  
ENDROOT
BRANCH   2   3
HETATM    3  C   UNL     1      -9.446  17.571  66.559  1.00  0.00    -0.272 C  
HETATM    4  O   UNL     1      -8.546  18.106  65.919  1.00  0.00    -0.507 OA 
BRANCH   3   5
HETATM    5  C   UNL     1      -9.741  16.119  66.334  1.00  0.00    -0.308 A  
HETATM    6  C   UNL     1      -9.265  15.092  67.179  1.00  0.00    -0.226 A  
HETATM    7  C   UNL     1      -9.462  13.713  66.897  1.00  0.00    -0.262 A  
HETATM    8  C   UNL     1     -10.219  13.433  65.739  1.00  0.00    -0.295 A  
HETATM    9  S   UNL     1     -10.511  11.804  65.112  1.00  0.00    -0.295 SA 
HETATM   10  C   UNL     1     -10.760  14.459  64.938  1.00  0.00    -0.444 A  
HETATM   11  C   UNL     1      -9.931  10.786  66.436  1.00  0.00    -0.216 A  
HETATM   12  C   UNL     1     -10.509  15.791  65.225  1.00  0.00    -0.427 A  
HETATM   13  C   UNL     1     -10.123   9.404  66.242  1.00  0.00    -0.328 A  
HETATM   14  C   UNL     1      -9.750   8.487  67.213  1.00  0.00    -0.239 A  
HETATM   15  C   UNL     1      -9.284   8.963  68.428  1.00  0.00    -0.140 A  
HETATM   16  C   UNL     1      -9.144  10.342  68.633  1.00  0.00    -0.157 A  
HETATM   17  C   UNL     1      -9.335  11.292  67.610  1.00  0.00    -0.160 A  
HETATM   18  N   UNL     1      -8.948  12.659  67.733  1.00  0.00    -0.179 NA 
BRANCH  18  19
HETATM   19  C   UNL     1      -7.987  13.058  68.826  1.00  0.00     0.058 C  
BRANCH  19  20
HETATM   20  C   UNL     1      -6.462  12.685  68.687  1.00  0.00    -0.079 C  
HETATM   21  C   UNL     1      -6.001  12.917  67.238  1.00  0.00     0.025 C  
BRANCH  20  22
HETATM   22  N   UNL     1      -5.570  13.431  69.645  1.00  0.00    -0.093 NA 
HETATM   23  C   UNL     1      -5.412  12.693  70.909  1.00  0.00    -0.167 C  
HETATM   24  C   UNL     1      -6.076  14.773  69.968  1.00  0.00    -0.150 C  
ENDBRANCH  20  22
ENDBRANCH  19  20
ENDBRANCH  18  19
ENDBRANCH   3   5
ENDBRANCH   2   3
TORSDOF 5
ENDMDL
MODEL       88
REMARK 921   NORMALIZED FREE ENERGY PREDICTED BY IDOCK:   -4.44 KCAL/MOL
REMARK 922        TOTAL FREE ENERGY PREDICTED BY IDOCK:   -6.47 KCAL/MOL
REMARK 923 INTER-LIGAND FREE ENERGY PREDICTED BY IDOCK:   -6.21 KCAL/MOL
REMARK 924 INTRA-LIGAND FREE ENERGY PREDICTED BY IDOCK:   -0.26 KCAL/MOL
REMARK 927      BINDING AFFINITY PREDICTED BY RF-SCORE:    0.00 PKD
ROOT
HETATM    1  C   UNL     1      -6.089  17.148  69.644  1.00  0.00    -0.241 C  
HETATM    2  C   UNL     1      -5.298  15.863  69.453  1.00  0.00    -0.113 C  
ENDROOT
BRANCH   2   3
HETATM    3  C   UNL     1      -6.102  14.635  69.846  1.00  0.00    -0.141 C  
HETATM    4  O   UNL     1      -6.192  14.267  71.012  1.00  0.00    -0.184 OA 
BRANCH   3   5
HETATM    5  C   UNL     1      -6.821  13.867  68.778  1.00  0.00    -0.105 A  
HETATM    6  C   UNL     1      -7.981  14.344  68.129  1.00  0.00    -0.136 A  
HETATM    7  C   UNL     1      -8.715  13.563  67.195  1.00  0.00    -0.215 A  
HETATM    8  C   UNL     1      -8.174  12.290  66.912  1.00  0.00    -0.112 A  
HETATM    9  S   UNL     1      -8.952  11.087  65.872  1.00  0.00    -0.195 SA 
HETATM   10  C   UNL     1      -6.973  11.845  67.501  1.00  0.00    -0.123 A  
HETATM   11  C   UNL     1     -10.255  12.025  65.131  1.00  0.00    -0.276 A  
HETATM   12  C   UNL     1      -6.312  12.621  68.439  1.00  0.00    -0.069 A  
HETATM   13  C   UNL     1     -11.007  11.324  64.167  1.00  0.00    -0.376 A  
HETATM   14  C   UNL     1     -12.038  11.943  63.477  1.00  0.00    -0.575 A  
HETATM   15  C   UNL     1     -12.245  13.299  63.672  1.00  0.00    -0.522 A  
HETATM   16  C   UNL     1     -11.458  14.002  64.596  1.00  0.00    -0.389 A  
HETATM   17  C   UNL     1     -10.531  13.371  65.448  1.00  0.00    -0.302 A  
HETATM   18  N   UNL     1      -9.919  14.027  66.557  1.00  0.00    -0.276 NA 
BRANCH  18  19
HETATM   19  C   UNL     1     -10.521  15.310  67.078  1.00  0.00    -0.292 C  
BRANCH  19  20
HETATM   20  C   UNL     1     -10.718  15.496  68.631  1.00  0.00    -0.252 C  
HETATM   21  C   UNL     1     -10.571  16.983  68.997  1.00  0.00    -0.314 C  
BRANCH  20  22
HETATM   22  N   UNL     1     -12.030  14.958  69.140  1.00  0.00    -0.297 NA 
HETATM   23  C   UNL     1     -12.436  15.636  70.382  1.00  0.00    -0.371 C  
HETATM   24  C   UNL     1     -11.989  13.514  69.406  1.00  0.00    -0.330 C  
ENDBRANCH  20  22
ENDBRANCH  19  20
ENDBRANCH  18  19
ENDBRANCH   3   5
ENDBRANCH   2   3
TORSDOF 5
ENDMDL
MODEL       89
REMARK 921   NORMALIZED FREE ENERGY PREDICTED BY IDOCK:   -4.42 KCAL/MOL
REMARK 922        TOTAL FREE ENERGY PREDICTED BY IDOCK:   -6.45 KCAL/MOL
REMARK 923 INTER-LIGAND FREE ENERGY PREDICTED BY IDOCK:   -6.10 KCAL/MOL
REMARK 924 INTRA-LIGAND FREE ENERGY PREDICTED BY IDOCK:   -0.34 KCAL/MOL
REMARK 927      BINDING AFFINITY PREDICTED BY RF-SCORE:    0.00 PKD
ROOT
HETATM    1  C   UNL     1     -11.125  11.847  63.297  1.00  0.00    -0.390 C  
HETATM    2  C   UNL     1     -12.461  12.292  63.872  1.00  0.00    -0.586 C  
ENDROOT
BRANCH   2   3
HETATM    3  C   UNL     1     -12.288  13.248  65.042  1.00  0.00    -0.448 C  
HETATM    4  O   UNL     1     -13.147  14.072  65.335  1.00  0.00    -0.763 OA 
BRANCH   3   5
HETATM    5  C   UNL     1     -11.041  13.164  65.869  1.00  0.00    -0.298 A  
HETATM    6  C   UNL     1     -10.712  12.044  66.663  1.00  0.00    -0.280 A  
HETATM    7  C   UNL     1      -9.582  12.018  67.525  1.00  0.00    -0.177 A  
HETATM    8  C   UNL     1      -8.769  13.172  67.493  1.00  0.00    -0.201 A  
HETATM    9  S   UNL     1      -7.371  13.433  68.547  1.00  0.00    -0.112 SA 
HETATM   10  C   UNL     1      -9.054  14.259  66.642  1.00  0.00    -0.249 A  
HETATM   11  C   UNL     1      -7.157  11.838  69.281  1.00  0.00    -0.032 A  
HETATM   12  C   UNL     1     -10.190  14.260  65.848  1.00  0.00    -0.338 A  
HETATM   13  C   UNL     1      -6.034  11.727  70.125  1.00  0.00    -0.162 A  
HETATM   14  C   UNL     1      -5.719  10.526  70.741  1.00  0.00    -0.100 A  
HETATM   15  C   UNL     1      -6.468   9.403  70.425  1.00  0.00    -0.071 A  
HETATM   16  C   UNL     1      -7.554   9.511  69.544  1.00  0.00    -0.096 A  
HETATM   17  C   UNL     1      -8.016  10.745  69.046  1.00  0.00    -0.137 A  
HETATM   18  N   UNL     1      -9.261  10.894  68.366  1.00  0.00    -0.161 NA 
BRANCH  18  19
HETATM   19  C   UNL     1     -10.297   9.803  68.478  1.00  0.00    -0.202 C  
BRANCH  19  20
HETATM   20  C   UNL     1     -10.301   8.630  67.425  1.00  0.00    -0.284 C  
HETATM   21  C   UNL     1      -9.163   8.840  66.412  1.00  0.00    -0.241 C  
BRANCH  20  22
HETATM   22  N   UNL     1     -10.202   7.262  68.048  1.00  0.00    -0.176 NA 
HETATM   23  C   UNL     1     -10.912   6.256  67.240  1.00  0.00    -0.366 C  
HETATM   24  C   UNL     1     -10.751   7.215  69.410  1.00  0.00    -0.231 C  
ENDBRANCH  20  22
ENDBRANCH  19  20
ENDBRANCH  18  19
ENDBRANCH   3   5
ENDBRANCH   2   3
TORSDOF 5
ENDMDL
MODEL       90
REMARK 921   NORMALIZED FREE ENERGY PREDICTED BY IDOCK:   -4.41 KCAL/MOL
REMARK 922        TOTAL FREE ENERGY PREDICTED BY IDOCK:   -6.44 KCAL/MOL
REMARK 923 INTER-LIGAND FREE ENERGY PREDICTED BY IDOCK:   -6.18 KCAL/MOL
REMARK 924 INTRA-LIGAND FREE ENERGY PREDICTED BY IDOCK:   -0.25 KCAL/MOL
REMARK 927      BINDING AFFINITY PREDICTED BY RF-SCORE:    0.00 PKD
ROOT
HETATM    1  C   UNL     1      -7.995   7.970  64.619  1.00  0.00    -0.151 C  
HETATM    2  C   UNL     1      -7.916   8.472  66.053  1.00  0.00    -0.107 C  
ENDROOT
BRANCH   2   3
HETATM    3  C   UNL     1      -8.698   7.588  67.011  1.00  0.00    -0.127 C  
HETATM    4  O   UNL     1      -8.572   6.368  67.013  1.00  0.00    -0.111 OA 
BRANCH   3   5
HETATM    5  C   UNL     1      -9.634   8.229  67.990  1.00  0.00    -0.171 A  
HETATM    6  C   UNL     1      -9.861   9.622  68.048  1.00  0.00    -0.175 A  
HETATM    7  C   UNL     1     -10.667  10.228  69.048  1.00  0.00    -0.227 A  
HETATM    8  C   UNL     1     -11.279   9.337  69.957  1.00  0.00    -0.168 A  
HETATM    9  S   UNL     1     -12.239   9.844  71.355  1.00  0.00    -0.429 SA 
HETATM   10  C   UNL     1     -11.115   7.940  69.853  1.00  0.00    -0.123 A  
HETATM   11  C   UNL     1     -12.444  11.575  71.056  1.00  0.00    -0.356 A  
HETATM   12  C   UNL     1     -10.286   7.393  68.887  1.00  0.00    -0.200 A  
HETATM   13  C   UNL     1     -13.261  12.239  71.992  1.00  0.00    -0.508 A  
HETATM   14  C   UNL     1     -13.541  13.591  71.864  1.00  0.00    -0.510 A  
HETATM   15  C   UNL     1     -13.091  14.256  70.734  1.00  0.00    -0.321 A  
HETATM   16  C   UNL     1     -12.321  13.576  69.781  1.00  0.00    -0.249 A  
HETATM   17  C   UNL     1     -11.861  12.257  69.967  1.00  0.00    -0.296 A  
HETATM   18  N   UNL     1     -10.874  11.651  69.136  1.00  0.00    -0.211 NA 
BRANCH  18  19
HETATM   19  C   UNL     1     -10.019  12.524  68.250  1.00  0.00    -0.229 C  
BRANCH  19  20
HETATM   20  C   UNL     1     -10.538  12.909  66.813  1.00  0.00    -0.257 C  
HETATM   21  C   UNL     1     -11.640  11.927  66.379  1.00  0.00    -0.315 C  
BRANCH  20  22
HETATM   22  N   UNL     1     -11.031  14.328  66.712  1.00  0.00    -0.299 NA 
HETATM   23  C   UNL     1     -12.215  14.420  65.841  1.00  0.00    -0.341 C  
HETATM   24  C   UNL     1     -10.014  15.250  66.186  1.00  0.00    -0.302 C  
ENDBRANCH  20  22
ENDBRANCH  19  20
ENDBRANCH  18  19
ENDBRANCH   3   5
ENDBRANCH   2   3
TORSDOF 5
ENDMDL
MODEL       91
REMARK 921   NORMALIZED FREE ENERGY PREDICTED BY IDOCK:   -4.41 KCAL/MOL
REMARK 922        TOTAL FREE ENERGY PREDICTED BY IDOCK:   -6.43 KCAL/MOL
REMARK 923 INTER-LIGAND FREE ENERGY PREDICTED BY IDOCK:   -5.67 KCAL/MOL
REMARK 924 INTRA-LIGAND FREE ENERGY PREDICTED BY IDOCK:   -0.77 KCAL/MOL
REMARK 927      BINDING AFFINITY PREDICTED BY RF-SCORE:    0.00 PKD
ROOT
HETATM    1  C   UNL     1      -8.046   7.392  67.775  1.00  0.00    -0.119 C  
HETATM    2  C   UNL     1      -9.339   7.647  68.536  1.00  0.00    -0.147 C  
ENDROOT
BRANCH   2   3
HETATM    3  C   UNL     1      -9.153   8.665  69.648  1.00  0.00    -0.149 C  
HETATM    4  O   UNL     1      -9.443   8.410  70.812  1.00  0.00    -0.159 OA 
BRANCH   3   5
HETATM    5  C   UNL     1      -8.582  10.010  69.314  1.00  0.00    -0.172 A  
HETATM    6  C   UNL     1      -9.286  10.989  68.579  1.00  0.00    -0.188 A  
HETATM    7  C   UNL     1      -8.697  12.218  68.176  1.00  0.00    -0.186 A  
HETATM    8  C   UNL     1      -7.369  12.425  68.609  1.00  0.00    -0.102 A  
HETATM    9  S   UNL     1      -6.379  13.819  68.152  1.00  0.00    -0.142 SA 
HETATM   10  C   UNL     1      -6.693  11.481  69.409  1.00  0.00    -0.116 A  
HETATM   11  C   UNL     1      -7.567  14.882  67.385  1.00  0.00    -0.204 A  
HETATM   12  C   UNL     1      -7.290  10.276  69.744  1.00  0.00    -0.167 A  
HETATM   13  C   UNL     1      -7.061  16.136  66.988  1.00  0.00    -0.248 A  
HETATM   14  C   UNL     1      -7.885  17.087  66.406  1.00  0.00    -0.343 A  
HETATM   15  C   UNL     1      -9.243  16.823  66.322  1.00  0.00    -0.313 A  
HETATM   16  C   UNL     1      -9.747  15.593  66.766  1.00  0.00    -0.255 A  
HETATM   17  C   UNL     1      -8.919  14.534  67.189  1.00  0.00    -0.230 A  
HETATM   18  N   UNL     1      -9.396  13.205  67.395  1.00  0.00    -0.205 NA 
BRANCH  18  19
HETATM   19  C   UNL     1     -10.729  12.803  66.814  1.00  0.00    -0.260 C  
BRANCH  19  20
HETATM   20  C   UNL     1     -10.837  12.489  65.273  1.00  0.00    -0.286 C  
HETATM   21  C   UNL     1     -10.458  11.021  65.015  1.00  0.00    -0.344 C  
BRANCH  20  22
HETATM   22  N   UNL     1     -12.195  12.789  64.692  1.00  0.00    -0.422 NA 
HETATM   23  C   UNL     1     -12.408  12.057  63.432  1.00  0.00    -0.523 C  
HETATM   24  C   UNL     1     -12.396  14.219  64.422  1.00  0.00    -0.391 C  
ENDBRANCH  20  22
ENDBRANCH  19  20
ENDBRANCH  18  19
ENDBRANCH   3   5
ENDBRANCH   2   3
TORSDOF 5
ENDMDL
MODEL       92
REMARK 921   NORMALIZED FREE ENERGY PREDICTED BY IDOCK:   -4.40 KCAL/MOL
REMARK 922        TOTAL FREE ENERGY PREDICTED BY IDOCK:   -6.42 KCAL/MOL
REMARK 923 INTER-LIGAND FREE ENERGY PREDICTED BY IDOCK:   -6.26 KCAL/MOL
REMARK 924 INTRA-LIGAND FREE ENERGY PREDICTED BY IDOCK:   -0.16 KCAL/MOL
REMARK 927      BINDING AFFINITY PREDICTED BY RF-SCORE:    0.00 PKD
ROOT
HETATM    1  C   UNL     1     -13.066  12.033  71.928  1.00  0.00    -0.475 C  
HETATM    2  C   UNL     1     -12.979  10.542  71.641  1.00  0.00    -0.581 C  
ENDROOT
BRANCH   2   3
HETATM    3  C   UNL     1     -11.649  10.161  71.010  1.00  0.00    -0.376 C  
HETATM    4  O   UNL     1     -10.787   9.553  71.636  1.00  0.00    -0.343 OA 
BRANCH   3   5
HETATM    5  C   UNL     1     -11.396  10.520  69.577  1.00  0.00    -0.341 A  
HETATM    6  C   UNL     1     -10.592   9.744  68.714  1.00  0.00    -0.244 A  
HETATM    7  C   UNL     1     -10.273  10.149  67.390  1.00  0.00    -0.218 A  
HETATM    8  C   UNL     1     -10.862  11.361  66.968  1.00  0.00    -0.282 A  
HETATM    9  S   UNL     1     -10.537  12.136  65.411  1.00  0.00    -0.283 SA 
HETATM   10  C   UNL     1     -11.727  12.097  67.803  1.00  0.00    -0.390 A  
HETATM   11  C   UNL     1      -9.645  10.876  64.548  1.00  0.00    -0.264 A  
HETATM   12  C   UNL     1     -11.978  11.688  69.103  1.00  0.00    -0.378 A  
HETATM   13  C   UNL     1      -9.321  11.195  63.214  1.00  0.00    -0.307 A  
HETATM   14  C   UNL     1      -8.655  10.288  62.404  1.00  0.00    -0.225 A  
HETATM   15  C   UNL     1      -8.409   9.016  62.898  1.00  0.00    -0.202 A  
HETATM   16  C   UNL     1      -8.780   8.690  64.209  1.00  0.00     0.022 A  
HETATM   17  C   UNL     1      -9.288   9.637  65.120  1.00  0.00    -0.259 A  
HETATM   18  N   UNL     1      -9.424   9.381  66.517  1.00  0.00    -0.175 NA 
BRANCH  18  19
HETATM   19  C   UNL     1      -8.686   8.215  67.127  1.00  0.00    -0.127 C  
BRANCH  19  20
HETATM   20  C   UNL     1      -9.461   6.871  67.405  1.00  0.00    -0.132 C  
HETATM   21  C   UNL     1      -9.138   5.849  66.303  1.00  0.00    -0.157 C  
BRANCH  20  22
HETATM   22  N   UNL     1      -9.178   6.284  68.763  1.00  0.00    -0.126 NA 
HETATM   23  C   UNL     1     -10.425   6.047  69.511  1.00  0.00    -0.266 C  
HETATM   24  C   UNL     1      -8.314   7.141  69.587  1.00  0.00    -0.133 C  
ENDBRANCH  20  22
ENDBRANCH  19  20
ENDBRANCH  18  19
ENDBRANCH   3   5
ENDBRANCH   2   3
TORSDOF 5
ENDMDL
MODEL       93
REMARK 921   NORMALIZED FREE ENERGY PREDICTED BY IDOCK:   -4.40 KCAL/MOL
REMARK 922        TOTAL FREE ENERGY PREDICTED BY IDOCK:   -6.42 KCAL/MOL
REMARK 923 INTER-LIGAND FREE ENERGY PREDICTED BY IDOCK:   -6.13 KCAL/MOL
REMARK 924 INTRA-LIGAND FREE ENERGY PREDICTED BY IDOCK:   -0.30 KCAL/MOL
REMARK 927      BINDING AFFINITY PREDICTED BY RF-SCORE:    0.00 PKD
ROOT
HETATM    1  C   UNL     1      -6.555  19.876  69.689  1.00  0.00    -0.373 C  
HETATM    2  C   UNL     1      -7.688  19.415  68.785  1.00  0.00    -0.397 C  
ENDROOT
BRANCH   2   3
HETATM    3  C   UNL     1      -7.698  17.906  68.608  1.00  0.00    -0.289 C  
HETATM    4  O   UNL     1      -6.947  17.176  69.246  1.00  0.00    -0.236 OA 
BRANCH   3   5
HETATM    5  C   UNL     1      -8.666  17.294  67.642  1.00  0.00    -0.219 A  
HETATM    6  C   UNL     1      -8.747  15.905  67.399  1.00  0.00    -0.197 A  
HETATM    7  C   UNL     1      -9.594  15.347  66.405  1.00  0.00    -0.293 A  
HETATM    8  C   UNL     1     -10.400  16.271  65.706  1.00  0.00    -0.374 A  
HETATM    9  S   UNL     1     -11.457  15.846  64.351  1.00  0.00    -0.087 SA 
HETATM   10  C   UNL     1     -10.378  17.650  66.001  1.00  0.00    -0.305 A  
HETATM   11  C   UNL     1     -11.437  14.078  64.406  1.00  0.00    -0.344 A  
HETATM   12  C   UNL     1      -9.505  18.158  66.951  1.00  0.00    -0.286 A  
HETATM   13  C   UNL     1     -12.281  13.453  63.467  1.00  0.00    -0.468 A  
HETATM   14  C   UNL     1     -12.396  12.072  63.418  1.00  0.00    -0.635 A  
HETATM   15  C   UNL     1     -11.748  11.319  64.385  1.00  0.00     0.204 A  
HETATM   16  C   UNL     1     -10.950  11.953  65.347  1.00  0.00    -0.352 A  
HETATM   17  C   UNL     1     -10.660  13.331  65.316  1.00  0.00    -0.315 A  
HETATM   18  N   UNL     1      -9.654  13.935  66.126  1.00  0.00    -0.264 NA 
BRANCH  18  19
HETATM   19  C   UNL     1      -8.612  13.062  66.780  1.00  0.00    -0.050 C  
BRANCH  19  20
HETATM   20  C   UNL     1      -8.852  12.541  68.248  1.00  0.00    -0.171 C  
HETATM   21  C   UNL     1     -10.333  12.715  68.624  1.00  0.00    -0.192 C  
BRANCH  20  22
HETATM   22  N   UNL     1      -8.423  11.112  68.457  1.00  0.00    -0.150 NA 
HETATM   23  C   UNL     1      -9.455  10.346  69.176  1.00  0.00    -0.208 C  
HETATM   24  C   UNL     1      -7.168  10.998  69.214  1.00  0.00    -0.124 C  
ENDBRANCH  20  22
ENDBRANCH  19  20
ENDBRANCH  18  19
ENDBRANCH   3   5
ENDBRANCH   2   3
TORSDOF 5
ENDMDL
MODEL       94
REMARK 921   NORMALIZED FREE ENERGY PREDICTED BY IDOCK:   -4.34 KCAL/MOL
REMARK 922        TOTAL FREE ENERGY PREDICTED BY IDOCK:   -6.35 KCAL/MOL
REMARK 923 INTER-LIGAND FREE ENERGY PREDICTED BY IDOCK:   -5.62 KCAL/MOL
REMARK 924 INTRA-LIGAND FREE ENERGY PREDICTED BY IDOCK:   -0.72 KCAL/MOL
REMARK 927      BINDING AFFINITY PREDICTED BY RF-SCORE:    0.00 PKD
ROOT
HETATM    1  C   UNL     1      -6.377   5.411  66.470  1.00  0.00    -0.039 C  
HETATM    2  C   UNL     1      -6.853   6.142  65.223  1.00  0.00    -0.048 C  
ENDROOT
BRANCH   2   3
HETATM    3  C   UNL     1      -6.430   7.602  65.222  1.00  0.00    -0.041 C  
HETATM    4  O   UNL     1      -5.276   7.940  65.466  1.00  0.00    -0.028 OA 
BRANCH   3   5
HETATM    5  C   UNL     1      -7.447   8.652  64.895  1.00  0.00    -0.093 A  
HETATM    6  C   UNL     1      -8.109   9.423  65.876  1.00  0.00    -0.114 A  
HETATM    7  C   UNL     1      -9.147  10.340  65.561  1.00  0.00    -0.176 A  
HETATM    8  C   UNL     1      -9.440  10.476  64.187  1.00  0.00    -0.293 A  
HETATM    9  S   UNL     1     -10.758  11.468  63.544  1.00  0.00    -0.387 SA 
HETATM   10  C   UNL     1      -8.726   9.765  63.201  1.00  0.00    -0.229 A  
HETATM   11  C   UNL     1     -11.268  12.378  64.972  1.00  0.00    -0.312 A  
HETATM   12  C   UNL     1      -7.749   8.848  63.554  1.00  0.00    -0.128 A  
HETATM   13  C   UNL     1     -12.275  13.334  64.729  1.00  0.00    -0.466 A  
HETATM   14  C   UNL     1     -12.748  14.147  65.747  1.00  0.00    -0.443 A  
HETATM   15  C   UNL     1     -12.134  14.080  66.988  1.00  0.00    -0.455 A  
HETATM   16  C   UNL     1     -11.097  13.162  67.207  1.00  0.00    -0.305 A  
HETATM   17  C   UNL     1     -10.717  12.195  66.257  1.00  0.00    -0.261 A  
HETATM   18  N   UNL     1      -9.852  11.102  66.560  1.00  0.00    -0.203 NA 
BRANCH  18  19
HETATM   19  C   UNL     1      -9.607  10.735  68.003  1.00  0.00    -0.163 C  
BRANCH  19  20
HETATM   20  C   UNL     1     -10.687   9.890  68.780  1.00  0.00    -0.220 C  
HETATM   21  C   UNL     1     -10.265   8.412  68.811  1.00  0.00    -0.223 C  
BRANCH  20  22
HETATM   22  N   UNL     1     -10.949  10.389  70.177  1.00  0.00    -0.300 NA 
HETATM   23  C   UNL     1     -11.073   9.272  71.127  1.00  0.00    -0.341 C  
HETATM   24  C   UNL     1     -12.172  11.199  70.273  1.00  0.00    -0.352 C  
ENDBRANCH  20  22
ENDBRANCH  19  20
ENDBRANCH  18  19
ENDBRANCH   3   5
ENDBRANCH   2   3
TORSDOF 5
ENDMDL
MODEL       95
REMARK 921   NORMALIZED FREE ENERGY PREDICTED BY IDOCK:   -4.32 KCAL/MOL
REMARK 922        TOTAL FREE ENERGY PREDICTED BY IDOCK:   -6.32 KCAL/MOL
REMARK 923 INTER-LIGAND FREE ENERGY PREDICTED BY IDOCK:   -5.83 KCAL/MOL
REMARK 924 INTRA-LIGAND FREE ENERGY PREDICTED BY IDOCK:   -0.49 KCAL/MOL
REMARK 927      BINDING AFFINITY PREDICTED BY RF-SCORE:    0.00 PKD
ROOT
HETATM    1  C   UNL     1     -10.045   9.004  71.641  1.00  0.00    -0.405 C  
HETATM    2  C   UNL     1      -8.794   8.647  70.853  1.00  0.00    -0.221 C  
ENDROOT
BRANCH   2   3
HETATM    3  C   UNL     1      -8.187   9.859  70.166  1.00  0.00    -0.136 C  
HETATM    4  O   UNL     1      -7.113  10.332  70.520  1.00  0.00    -0.298 OA 
BRANCH   3   5
HETATM    5  C   UNL     1      -8.916  10.480  69.013  1.00  0.00    -0.183 A  
HETATM    6  C   UNL     1      -8.934  11.870  68.766  1.00  0.00     0.045 A  
HETATM    7  C   UNL     1      -9.714  12.456  67.732  1.00  0.00    -0.201 A  
HETATM    8  C   UNL     1     -10.432  11.548  66.924  1.00  0.00    -0.235 A  
HETATM    9  S   UNL     1     -11.557  12.028  65.645  1.00  0.00    -0.219 SA 
HETATM   10  C   UNL     1     -10.351  10.154  67.121  1.00  0.00    -0.295 A  
HETATM   11  C   UNL     1     -11.240  13.762  65.505  1.00  0.00    -0.299 A  
HETATM   12  C   UNL     1      -9.612   9.626  68.168  1.00  0.00    -0.159 A  
HETATM   13  C   UNL     1     -11.956  14.408  64.476  1.00  0.00    -0.487 A  
HETATM   14  C   UNL     1     -11.782  15.760  64.224  1.00  0.00    -0.162 A  
HETATM   15  C   UNL     1     -10.807  16.445  64.932  1.00  0.00    -0.268 A  
HETATM   16  C   UNL     1     -10.063  15.783  65.919  1.00  0.00    -0.381 A  
HETATM   17  C   UNL     1     -10.339  14.465  66.331  1.00  0.00    -0.287 A  
HETATM   18  N   UNL     1      -9.768  13.876  67.498  1.00  0.00    -0.228 NA 
BRANCH  18  19
HETATM   19  C   UNL     1      -9.132  14.768  68.537  1.00  0.00    -0.187 C  
BRANCH  19  20
HETATM   20  C   UNL     1     -10.045  15.482  69.605  1.00  0.00    -0.293 C  
HETATM   21  C   UNL     1     -10.651  16.759  68.998  1.00  0.00    -0.343 C  
BRANCH  20  22
HETATM   22  N   UNL     1     -11.132  14.596  70.155  1.00  0.00    -0.184 NA 
HETATM   23  C   UNL     1     -12.360  14.697  69.348  1.00  0.00    -0.164 C  
HETATM   24  C   UNL     1     -11.480  14.918  71.546  1.00  0.00    -0.247 C  
ENDBRANCH  20  22
ENDBRANCH  19  20
ENDBRANCH  18  19
ENDBRANCH   3   5
ENDBRANCH   2   3
TORSDOF 5
ENDMDL
MODEL       96
REMARK 921   NORMALIZED FREE ENERGY PREDICTED BY IDOCK:   -4.31 KCAL/MOL
REMARK 922        TOTAL FREE ENERGY PREDICTED BY IDOCK:   -6.31 KCAL/MOL
REMARK 923 INTER-LIGAND FREE ENERGY PREDICTED BY IDOCK:   -5.85 KCAL/MOL
REMARK 924 INTRA-LIGAND FREE ENERGY PREDICTED BY IDOCK:   -0.45 KCAL/MOL
REMARK 927      BINDING AFFINITY PREDICTED BY RF-SCORE:    0.00 PKD
ROOT
HETATM    1  C   UNL     1     -10.634  19.987  65.614  1.00  0.00    -0.380 C  
HETATM    2  C   UNL     1     -10.480  18.526  66.009  1.00  0.00    -0.433 C  
ENDROOT
BRANCH   2   3
HETATM    3  C   UNL     1     -10.058  18.370  67.461  1.00  0.00    -0.357 C  
HETATM    4  O   UNL     1     -10.461  19.130  68.336  1.00  0.00    -0.355 OA 
BRANCH   3   5
HETATM    5  C   UNL     1      -9.142  17.244  67.834  1.00  0.00    -0.239 A  
HETATM    6  C   UNL     1      -9.323  15.917  67.386  1.00  0.00    -0.214 A  
HETATM    7  C   UNL     1      -8.511  14.839  67.830  1.00  0.00    -0.164 A  
HETATM    8  C   UNL     1      -7.466  15.190  68.713  1.00  0.00    -0.132 A  
HETATM    9  S   UNL     1      -6.387  14.023  69.492  1.00  0.00    -0.124 SA 
HETATM   10  C   UNL     1      -7.237  16.526  69.099  1.00  0.00    -0.226 A  
HETATM   11  C   UNL     1      -6.773  12.528  68.629  1.00  0.00    -0.087 A  
HETATM   12  C   UNL     1      -8.079  17.542  68.675  1.00  0.00    -0.263 A  
HETATM   13  C   UNL     1      -5.983  11.419  68.995  1.00  0.00    -0.051 A  
HETATM   14  C   UNL     1      -6.148  10.190  68.376  1.00  0.00    -0.044 A  
HETATM   15  C   UNL     1      -7.031  10.097  67.311  1.00  0.00    -0.083 A  
HETATM   16  C   UNL     1      -7.776  11.218  66.921  1.00  0.00    -0.152 A  
HETATM   17  C   UNL     1      -7.774  12.429  67.640  1.00  0.00    -0.151 A  
HETATM   18  N   UNL     1      -8.712  13.477  67.407  1.00  0.00    -0.209 NA 
BRANCH  18  19
HETATM   19  C   UNL     1      -9.972  13.179  66.630  1.00  0.00    -0.270 C  
BRANCH  19  20
HETATM   20  C   UNL     1     -11.372  13.356  67.332  1.00  0.00    -0.309 C  
HETATM   21  C   UNL     1     -12.371  13.982  66.345  1.00  0.00    -0.468 C  
BRANCH  20  22
HETATM   22  N   UNL     1     -11.927  12.074  67.898  1.00  0.00    -0.547 NA 
HETATM   23  C   UNL     1     -11.858  12.068  69.368  1.00  0.00    -0.324 C  
HETATM   24  C   UNL     1     -11.220  10.882  67.408  1.00  0.00    -0.273 C  
ENDBRANCH  20  22
ENDBRANCH  19  20
ENDBRANCH  18  19
ENDBRANCH   3   5
ENDBRANCH   2   3
TORSDOF 5
ENDMDL
MODEL       97
REMARK 921   NORMALIZED FREE ENERGY PREDICTED BY IDOCK:   -4.31 KCAL/MOL
REMARK 922        TOTAL FREE ENERGY PREDICTED BY IDOCK:   -6.30 KCAL/MOL
REMARK 923 INTER-LIGAND FREE ENERGY PREDICTED BY IDOCK:   -5.59 KCAL/MOL
REMARK 924 INTRA-LIGAND FREE ENERGY PREDICTED BY IDOCK:   -0.71 KCAL/MOL
REMARK 927      BINDING AFFINITY PREDICTED BY RF-SCORE:    0.00 PKD
ROOT
HETATM    1  C   UNL     1     -10.446   7.303  66.910  1.00  0.00    -0.369 C  
HETATM    2  C   UNL     1     -10.396   8.749  67.380  1.00  0.00    -0.349 C  
ENDROOT
BRANCH   2   3
HETATM    3  C   UNL     1      -9.662   9.643  66.394  1.00  0.00    -0.224 C  
HETATM    4  O   UNL     1      -9.755   9.481  65.182  1.00  0.00    -0.277 OA 
BRANCH   3   5
HETATM    5  C   UNL     1      -8.819  10.765  66.920  1.00  0.00    -0.144 A  
HETATM    6  C   UNL     1      -9.184  12.125  66.810  1.00  0.00    -0.207 A  
HETATM    7  C   UNL     1      -8.329  13.185  67.217  1.00  0.00    -0.179 A  
HETATM    8  C   UNL     1      -7.103  12.787  67.794  1.00  0.00    -0.132 A  
HETATM    9  S   UNL     1      -5.822  13.908  68.280  1.00  0.00    -0.125 SA 
HETATM   10  C   UNL     1      -6.772  11.429  67.975  1.00  0.00    -0.059 A  
HETATM   11  C   UNL     1      -6.633  15.475  68.153  1.00  0.00    -0.130 A  
HETATM   12  C   UNL     1      -7.617  10.426  67.526  1.00  0.00    -0.094 A  
HETATM   13  C   UNL     1      -5.855  16.573  68.572  1.00  0.00    -0.120 A  
HETATM   14  C   UNL     1      -6.372  17.860  68.563  1.00  0.00    -0.199 A  
HETATM   15  C   UNL     1      -7.708  18.034  68.238  1.00  0.00    -0.285 A  
HETATM   16  C   UNL     1      -8.489  16.929  67.872  1.00  0.00    -0.203 A  
HETATM   17  C   UNL     1      -7.955  15.639  67.690  1.00  0.00    -0.153 A  
HETATM   18  N   UNL     1      -8.677  14.574  67.074  1.00  0.00    -0.231 NA 
BRANCH  18  19
HETATM   19  C   UNL     1      -9.911  14.893  66.265  1.00  0.00    -0.294 C  
BRANCH  19  20
HETATM   20  C   UNL     1     -11.314  14.936  66.980  1.00  0.00    -0.342 C  
HETATM   21  C   UNL     1     -12.261  13.915  66.327  1.00  0.00    -0.498 C  
BRANCH  20  22
HETATM   22  N   UNL     1     -11.239  14.704  68.467  1.00  0.00    -0.258 NA 
HETATM   23  C   UNL     1     -11.985  13.496  68.855  1.00  0.00    -0.341 C  
HETATM   24  C   UNL     1     -11.769  15.831  69.247  1.00  0.00    -0.374 C  
ENDBRANCH  20  22
ENDBRANCH  19  20
ENDBRANCH  18  19
ENDBRANCH   3   5
ENDBRANCH   2   3
TORSDOF 5
ENDMDL
MODEL       98
REMARK 921   NORMALIZED FREE ENERGY PREDICTED BY IDOCK:   -4.28 KCAL/MOL
REMARK 922        TOTAL FREE ENERGY PREDICTED BY IDOCK:   -6.27 KCAL/MOL
REMARK 923 INTER-LIGAND FREE ENERGY PREDICTED BY IDOCK:   -5.91 KCAL/MOL
REMARK 924 INTRA-LIGAND FREE ENERGY PREDICTED BY IDOCK:   -0.36 KCAL/MOL
REMARK 927      BINDING AFFINITY PREDICTED BY RF-SCORE:    0.00 PKD
ROOT
HETATM    1  C   UNL     1     -11.177   3.466  73.282  1.00  0.00    -0.197 C  
HETATM    2  C   UNL     1     -10.201   4.101  72.303  1.00  0.00    -0.234 C  
ENDROOT
BRANCH   2   3
HETATM    3  C   UNL     1      -9.724   5.464  72.777  1.00  0.00    -0.149 C  
HETATM    4  O   UNL     1      -8.874   5.583  73.652  1.00  0.00    -0.125 OA 
BRANCH   3   5
HETATM    5  C   UNL     1     -10.297   6.694  72.141  1.00  0.00    -0.222 A  
HETATM    6  C   UNL     1      -9.929   7.143  70.853  1.00  0.00    -0.193 A  
HETATM    7  C   UNL     1     -10.398   8.367  70.304  1.00  0.00    -0.205 A  
HETATM    8  C   UNL     1     -11.308   9.085  71.110  1.00  0.00    -0.307 A  
HETATM    9  S   UNL     1     -11.951  10.683  70.704  1.00  0.00    -0.390 SA 
HETATM   10  C   UNL     1     -11.735   8.598  72.362  1.00  0.00    -0.393 A  
HETATM   11  C   UNL     1     -11.429  10.877  69.025  1.00  0.00    -0.302 A  
HETATM   12  C   UNL     1     -11.221   7.420  72.880  1.00  0.00    -0.368 A  
HETATM   13  C   UNL     1     -11.885  12.056  68.401  1.00  0.00    -0.360 A  
HETATM   14  C   UNL     1     -11.585  12.324  67.075  1.00  0.00    -0.418 A  
HETATM   15  C   UNL     1     -10.920  11.357  66.338  1.00  0.00    -0.315 A  
HETATM   16  C   UNL     1     -10.514  10.165  66.952  1.00  0.00    -0.286 A  
HETATM   17  C   UNL     1     -10.635   9.936  68.337  1.00  0.00    -0.222 A  
HETATM   18  N   UNL     1      -9.998   8.850  69.007  1.00  0.00    -0.184 NA 
BRANCH  18  19
HETATM   19  C   UNL     1      -8.874   8.116  68.318  1.00  0.00    -0.133 C  
BRANCH  19  20
HETATM   20  C   UNL     1      -9.200   6.837  67.457  1.00  0.00    -0.122 C  
HETATM   21  C   UNL     1     -10.723   6.690  67.302  1.00  0.00    -0.427 C  
BRANCH  20  22
HETATM   22  N   UNL     1      -8.533   6.835  66.107  1.00  0.00    -0.130 NA 
HETATM   23  C   UNL     1      -8.657   5.521  65.454  1.00  0.00    -0.151 C  
HETATM   24  C   UNL     1      -7.104   7.171  66.176  1.00  0.00    -0.073 C  
ENDBRANCH  20  22
ENDBRANCH  19  20
ENDBRANCH  18  19
ENDBRANCH   3   5
ENDBRANCH   2   3
TORSDOF 5
ENDMDL
MODEL       99
REMARK 921   NORMALIZED FREE ENERGY PREDICTED BY IDOCK:   -4.27 KCAL/MOL
REMARK 922        TOTAL FREE ENERGY PREDICTED BY IDOCK:   -6.25 KCAL/MOL
REMARK 923 INTER-LIGAND FREE ENERGY PREDICTED BY IDOCK:   -7.21 KCAL/MOL
REMARK 924 INTRA-LIGAND FREE ENERGY PREDICTED BY IDOCK:    0.95 KCAL/MOL
REMARK 927      BINDING AFFINITY PREDICTED BY RF-SCORE:    0.00 PKD
ROOT
HETATM    1  C   UNL     1     -12.403  16.108  73.511  1.00  0.00    -0.664 C  
HETATM    2  C   UNL     1     -11.973  16.191  72.054  1.00  0.00    -0.607 C  
ENDROOT
BRANCH   2   3
HETATM    3  C   UNL     1     -12.847  15.337  71.151  1.00  0.00    -0.427 C  
HETATM    4  O   UNL     1     -13.524  15.827  70.255  1.00  0.00    -0.142 OA 
BRANCH   3   5
HETATM    5  C   UNL     1     -12.864  13.852  71.352  1.00  0.00    -0.439 A  
HETATM    6  C   UNL     1     -12.109  12.955  70.565  1.00  0.00    -0.364 A  
HETATM    7  C   UNL     1     -12.213  11.544  70.694  1.00  0.00    -0.378 A  
HETATM    8  C   UNL     1     -13.086  11.090  71.708  1.00  0.00    -0.449 A  
HETATM    9  S   UNL     1     -13.474   9.388  71.999  1.00  0.00    -0.458 SA 
HETATM   10  C   UNL     1     -13.780  11.986  72.546  1.00  0.00     0.301 A  
HETATM   11  C   UNL     1     -12.290   8.558  70.980  1.00  0.00    -0.131 A  
HETATM   12  C   UNL     1     -13.682  13.356  72.358  1.00  0.00    -0.698 A  
HETATM   13  C   UNL     1     -12.312   7.153  71.081  1.00  0.00    -0.404 A  
HETATM   14  C   UNL     1     -11.416   6.371  70.368  1.00  0.00    -0.458 A  
HETATM   15  C   UNL     1     -10.422   7.003  69.637  1.00  0.00    -0.238 A  
HETATM   16  C   UNL     1     -10.376   8.403  69.583  1.00  0.00    -0.218 A  
HETATM   17  C   UNL     1     -11.375   9.225  70.139  1.00  0.00    -0.164 A  
HETATM   18  N   UNL     1     -11.475  10.622  69.870  1.00  0.00    -0.291 NA 
BRANCH  18  19
HETATM   19  C   UNL     1     -10.732  11.200  68.690  1.00  0.00    -0.198 C  
BRANCH  19  20
HETATM   20  C   UNL     1      -9.779  10.271  67.847  1.00  0.00    -0.145 C  
HETATM   21  C   UNL     1     -10.056  10.468  66.347  1.00  0.00    -0.285 C  
BRANCH  20  22
HETATM   22  N   UNL     1      -8.317  10.483  68.142  1.00  0.00    -0.116 NA 
HETATM   23  C   UNL     1      -7.747  11.533  67.282  1.00  0.00    -0.150 C  
HETATM   24  C   UNL     1      -7.515   9.265  67.956  1.00  0.00    -0.083 C  
ENDBRANCH  20  22
ENDBRANCH  19  20
ENDBRANCH  18  19
ENDBRANCH   3   5
ENDBRANCH   2   3
TORSDOF 5
ENDMDL
MODEL      100
REMARK 921   NORMALIZED FREE ENERGY PREDICTED BY IDOCK:   -4.26 KCAL/MOL
REMARK 922        TOTAL FREE ENERGY PREDICTED BY IDOCK:   -6.24 KCAL/MOL
REMARK 923 INTER-LIGAND FREE ENERGY PREDICTED BY IDOCK:   -5.88 KCAL/MOL
REMARK 924 INTRA-LIGAND FREE ENERGY PREDICTED BY IDOCK:   -0.36 KCAL/MOL
REMARK 927      BINDING AFFINITY PREDICTED BY RF-SCORE:    0.00 PKD
ROOT
HETATM    1  C   UNL     1     -11.252  12.619  64.879  1.00  0.00    -0.332 C  
HETATM    2  C   UNL     1     -10.398  12.280  66.092  1.00  0.00    -0.269 C  
ENDROOT
BRANCH   2   3
HETATM    3  C   UNL     1     -11.084  11.283  67.011  1.00  0.00    -0.293 C  
HETATM    4  O   UNL     1     -12.100  11.573  67.634  1.00  0.00    -0.623 OA 
BRANCH   3   5
HETATM    5  C   UNL     1     -10.513   9.904  67.142  1.00  0.00    -0.305 A  
HETATM    6  C   UNL     1     -10.556   9.158  68.340  1.00  0.00    -0.217 A  
HETATM    7  C   UNL     1      -9.918   7.896  68.483  1.00  0.00    -0.187 A  
HETATM    8  C   UNL     1      -9.280   7.404  67.324  1.00  0.00    -0.131 A  
HETATM    9  S   UNL     1      -8.326   5.915  67.269  1.00  0.00    -0.103 SA 
HETATM   10  C   UNL     1      -9.304   8.113  66.105  1.00  0.00    -0.232 A  
HETATM   11  C   UNL     1      -8.698   5.179  68.833  1.00  0.00    -0.089 A  
HETATM   12  C   UNL     1      -9.902   9.361  66.021  1.00  0.00    -0.366 A  
HETATM   13  C   UNL     1      -8.124   3.907  69.034  1.00  0.00    -0.068 A  
HETATM   14  C   UNL     1      -8.359   3.193  70.199  1.00  0.00    -0.079 A  
HETATM   15  C   UNL     1      -9.259   3.707  71.120  1.00  0.00    -0.196 A  
HETATM   16  C   UNL     1      -9.864   4.950  70.889  1.00  0.00    -0.277 A  
HETATM   17  C   UNL     1      -9.511   5.786  69.812  1.00  0.00    -0.148 A  
HETATM   18  N   UNL     1      -9.926   7.147  69.713  1.00  0.00    -0.176 NA 
BRANCH  18  19
HETATM   19  C   UNL     1     -10.454   7.848  70.940  1.00  0.00    -0.203 C  
BRANCH  19  20
HETATM   20  C   UNL     1     -12.010   8.035  71.113  1.00  0.00    -0.277 C  
HETATM   21  C   UNL     1     -12.588   6.857  71.914  1.00  0.00    -0.336 C  
BRANCH  20  22
HETATM   22  N   UNL     1     -12.390   9.343  71.757  1.00  0.00    -0.374 NA 
HETATM   23  C   UNL     1     -13.853   9.491  71.839  1.00  0.00    -0.263 C  
HETATM   24  C   UNL     1     -11.859  10.509  71.036  1.00  0.00    -0.340 C  
ENDBRANCH  20  22
ENDBRANCH  19  20
ENDBRANCH  18  19
ENDBRANCH   3   5
ENDBRANCH   2   3
TORSDOF 5
ENDMDL
MODEL      101
REMARK 921   NORMALIZED FREE ENERGY PREDICTED BY IDOCK:   -4.26 KCAL/MOL
REMARK 922        TOTAL FREE ENERGY PREDICTED BY IDOCK:   -6.24 KCAL/MOL
REMARK 923 INTER-LIGAND FREE ENERGY PREDICTED BY IDOCK:   -5.84 KCAL/MOL
REMARK 924 INTRA-LIGAND FREE ENERGY PREDICTED BY IDOCK:   -0.40 KCAL/MOL
REMARK 927      BINDING AFFINITY PREDICTED BY RF-SCORE:    0.00 PKD
ROOT
HETATM    1  C   UNL     1     -10.094  19.867  68.575  1.00  0.00    -0.538 C  
HETATM    2  C   UNL     1      -9.781  20.412  67.190  1.00  0.00    -0.601 C  
ENDROOT
BRANCH   2   3
HETATM    3  C   UNL     1      -8.926  19.453  66.379  1.00  0.00    -0.363 C  
HETATM    4  O   UNL     1      -7.831  19.781  65.935  1.00  0.00    -0.338 OA 
BRANCH   3   5
HETATM    5  C   UNL     1      -9.428  18.062  66.134  1.00  0.00    -0.161 A  
HETATM    6  C   UNL     1      -8.799  16.909  66.652  1.00  0.00    -0.275 A  
HETATM    7  C   UNL     1      -9.221  15.592  66.327  1.00  0.00    -0.329 A  
HETATM    8  C   UNL     1     -10.355  15.508  65.490  1.00  0.00    -0.394 A  
HETATM    9  S   UNL     1     -11.012  13.993  64.853  1.00  0.00    -0.411 SA 
HETATM   10  C   UNL     1     -11.031  16.659  65.036  1.00  0.00    -0.172 A  
HETATM   11  C   UNL     1     -10.118  12.782  65.782  1.00  0.00    -0.286 A  
HETATM   12  C   UNL     1     -10.560  17.926  65.343  1.00  0.00     0.113 A  
HETATM   13  C   UNL     1     -10.507  11.449  65.536  1.00  0.00    -0.322 A  
HETATM   14  C   UNL     1      -9.919  10.396  66.218  1.00  0.00    -0.283 A  
HETATM   15  C   UNL     1      -9.016  10.684  67.230  1.00  0.00    -0.141 A  
HETATM   16  C   UNL     1      -8.673  12.015  67.504  1.00  0.00    -0.166 A  
HETATM   17  C   UNL     1      -9.106  13.096  66.712  1.00  0.00    -0.209 A  
HETATM   18  N   UNL     1      -8.562  14.411  66.821  1.00  0.00    -0.166 NA 
BRANCH  18  19
HETATM   19  C   UNL     1      -7.247  14.607  67.536  1.00  0.00    -0.192 C  
BRANCH  19  20
HETATM   20  C   UNL     1      -7.231  15.320  68.941  1.00  0.00    -0.137 C  
HETATM   21  C   UNL     1      -6.969  14.283  70.046  1.00  0.00     0.090 C  
BRANCH  20  22
HETATM   22  N   UNL     1      -6.234  16.446  69.032  1.00  0.00    -0.149 NA 
HETATM   23  C   UNL     1      -5.320  16.256  70.171  1.00  0.00    -0.177 C  
HETATM   24  C   UNL     1      -6.872  17.762  69.181  1.00  0.00    -0.227 C  
ENDBRANCH  20  22
ENDBRANCH  19  20
ENDBRANCH  18  19
ENDBRANCH   3   5
ENDBRANCH   2   3
TORSDOF 5
ENDMDL
MODEL      102
REMARK 921   NORMALIZED FREE ENERGY PREDICTED BY IDOCK:   -4.23 KCAL/MOL
REMARK 922        TOTAL FREE ENERGY PREDICTED BY IDOCK:   -6.20 KCAL/MOL
REMARK 923 INTER-LIGAND FREE ENERGY PREDICTED BY IDOCK:   -5.52 KCAL/MOL
REMARK 924 INTRA-LIGAND FREE ENERGY PREDICTED BY IDOCK:   -0.68 KCAL/MOL
REMARK 927      BINDING AFFINITY PREDICTED BY RF-SCORE:    0.00 PKD
ROOT
HETATM    1  C   UNL     1      -8.815   3.262  67.292  1.00  0.00    -0.153 C  
HETATM    2  C   UNL     1      -9.825   4.183  67.962  1.00  0.00    -0.088 C  
ENDROOT
BRANCH   2   3
HETATM    3  C   UNL     1      -9.308   5.607  68.077  1.00  0.00    -0.108 C  
HETATM    4  O   UNL     1      -8.259   5.959  67.546  1.00  0.00    -0.105 OA 
BRANCH   3   5
HETATM    5  C   UNL     1     -10.113   6.612  68.843  1.00  0.00    -0.178 A  
HETATM    6  C   UNL     1     -10.047   8.002  68.605  1.00  0.00    -0.212 A  
HETATM    7  C   UNL     1     -10.734   8.953  69.407  1.00  0.00    -0.181 A  
HETATM    8  C   UNL     1     -11.540   8.412  70.433  1.00  0.00    -0.064 A  
HETATM    9  S   UNL     1     -12.407   9.381  71.633  1.00  0.00    -0.407 SA 
HETATM   10  C   UNL     1     -11.667   7.020  70.621  1.00  0.00    -0.384 A  
HETATM   11  C   UNL     1     -12.240  11.016  70.980  1.00  0.00    -0.351 A  
HETATM   12  C   UNL     1     -10.946   6.129  69.843  1.00  0.00    -0.458 A  
HETATM   13  C   UNL     1     -12.924  12.011  71.707  1.00  0.00    -0.445 A  
HETATM   14  C   UNL     1     -12.913  13.334  71.293  1.00  0.00    -0.353 A  
HETATM   15  C   UNL     1     -12.307  13.644  70.086  1.00  0.00    -0.372 A  
HETATM   16  C   UNL     1     -11.672  12.640  69.342  1.00  0.00    -0.387 A  
HETATM   17  C   UNL     1     -11.501  11.326  69.819  1.00  0.00    -0.310 A  
HETATM   18  N   UNL     1     -10.641  10.374  69.194  1.00  0.00    -0.213 NA 
BRANCH  18  19
HETATM   19  C   UNL     1      -9.602  10.855  68.212  1.00  0.00    -0.167 C  
BRANCH  19  20
HETATM   20  C   UNL     1      -8.102  10.990  68.678  1.00  0.00    -0.149 C  
HETATM   21  C   UNL     1      -7.201  10.124  67.782  1.00  0.00    -0.087 C  
BRANCH  20  22
HETATM   22  N   UNL     1      -7.606  12.412  68.702  1.00  0.00    -0.108 NA 
HETATM   23  C   UNL     1      -8.435  13.280  67.848  1.00  0.00    -0.177 C  
HETATM   24  C   UNL     1      -6.212  12.537  68.252  1.00  0.00    -0.065 C  
ENDBRANCH  20  22
ENDBRANCH  19  20
ENDBRANCH  18  19
ENDBRANCH   3   5
ENDBRANCH   2   3
TORSDOF 5
ENDMDL
MODEL      103
REMARK 921   NORMALIZED FREE ENERGY PREDICTED BY IDOCK:   -4.22 KCAL/MOL
REMARK 922        TOTAL FREE ENERGY PREDICTED BY IDOCK:   -6.19 KCAL/MOL
REMARK 923 INTER-LIGAND FREE ENERGY PREDICTED BY IDOCK:   -5.75 KCAL/MOL
REMARK 924 INTRA-LIGAND FREE ENERGY PREDICTED BY IDOCK:   -0.44 KCAL/MOL
REMARK 927      BINDING AFFINITY PREDICTED BY RF-SCORE:    0.00 PKD
ROOT
HETATM    1  C   UNL     1      -9.839  11.472  63.077  1.00  0.00    -0.367 C  
HETATM    2  C   UNL     1     -10.237  10.697  64.324  1.00  0.00    -0.391 C  
ENDROOT
BRANCH   2   3
HETATM    3  C   UNL     1      -9.117   9.796  64.817  1.00  0.00    -0.241 C  
HETATM    4  O   UNL     1      -8.000   9.817  64.309  1.00  0.00    -0.128 OA 
BRANCH   3   5
HETATM    5  C   UNL     1      -9.381   8.872  65.966  1.00  0.00    -0.306 A  
HETATM    6  C   UNL     1      -9.712   9.323  67.263  1.00  0.00    -0.218 A  
HETATM    7  C   UNL     1      -9.856   8.444  68.369  1.00  0.00    -0.176 A  
HETATM    8  C   UNL     1      -9.701   7.071  68.077  1.00  0.00    -0.129 A  
HETATM    9  S   UNL     1      -9.724   5.786  69.294  1.00  0.00    -0.154 SA 
HETATM   10  C   UNL     1      -9.448   6.614  66.768  1.00  0.00    -0.194 A  
HETATM   11  C   UNL     1     -10.290   6.646  70.732  1.00  0.00    -0.202 A  
HETATM   12  C   UNL     1      -9.273   7.509  65.725  1.00  0.00     0.043 A  
HETATM   13  C   UNL     1     -10.487   5.830  71.864  1.00  0.00    -0.272 A  
HETATM   14  C   UNL     1     -10.963   6.361  73.053  1.00  0.00    -0.269 A  
HETATM   15  C   UNL     1     -11.347   7.693  73.076  1.00  0.00    -0.334 A  
HETATM   16  C   UNL     1     -11.195   8.486  71.931  1.00  0.00    -0.397 A  
HETATM   17  C   UNL     1     -10.545   8.033  70.766  1.00  0.00    -0.214 A  
HETATM   18  N   UNL     1     -10.157   8.900  69.702  1.00  0.00    -0.194 NA 
BRANCH  18  19
HETATM   19  C   UNL     1     -10.101  10.388  69.947  1.00  0.00    -0.095 C  
BRANCH  19  20
HETATM   20  C   UNL     1     -11.297  11.295  69.468  1.00  0.00    -0.294 C  
HETATM   21  C   UNL     1     -12.341  11.413  70.592  1.00  0.00    -0.466 C  
BRANCH  20  22
HETATM   22  N   UNL     1     -10.868  12.664  69.007  1.00  0.00    -0.192 NA 
HETATM   23  C   UNL     1     -11.785  13.704  69.501  1.00  0.00    -0.322 C  
HETATM   24  C   UNL     1     -10.803  12.778  67.543  1.00  0.00    -0.239 C  
ENDBRANCH  20  22
ENDBRANCH  19  20
ENDBRANCH  18  19
ENDBRANCH   3   5
ENDBRANCH   2   3
TORSDOF 5
ENDMDL
MODEL      104
REMARK 921   NORMALIZED FREE ENERGY PREDICTED BY IDOCK:   -4.21 KCAL/MOL
REMARK 922        TOTAL FREE ENERGY PREDICTED BY IDOCK:   -6.18 KCAL/MOL
REMARK 923 INTER-LIGAND FREE ENERGY PREDICTED BY IDOCK:   -5.43 KCAL/MOL
REMARK 924 INTRA-LIGAND FREE ENERGY PREDICTED BY IDOCK:   -0.75 KCAL/MOL
REMARK 927      BINDING AFFINITY PREDICTED BY RF-SCORE:    0.00 PKD
ROOT
HETATM    1  C   UNL     1     -12.319  13.559  65.756  1.00  0.00    -0.516 C  
HETATM    2  C   UNL     1     -11.104  13.118  66.557  1.00  0.00    -0.317 C  
ENDROOT
BRANCH   2   3
HETATM    3  C   UNL     1     -11.325  11.776  67.236  1.00  0.00    -0.315 C  
HETATM    4  O   UNL     1     -12.091  11.650  68.185  1.00  0.00    -0.577 OA 
BRANCH   3   5
HETATM    5  C   UNL     1     -10.602  10.571  66.715  1.00  0.00    -0.284 A  
HETATM    6  C   UNL     1     -10.761   9.277  67.257  1.00  0.00    -0.244 A  
HETATM    7  C   UNL     1      -9.991   8.163  66.826  1.00  0.00    -0.279 A  
HETATM    8  C   UNL     1      -9.089   8.422  65.771  1.00  0.00    -0.139 A  
HETATM    9  S   UNL     1      -7.944   7.235  65.128  1.00  0.00    -0.130 SA 
HETATM   10  C   UNL     1      -8.986   9.696  65.176  1.00  0.00    -0.249 A  
HETATM   11  C   UNL     1      -8.491   5.738  65.895  1.00  0.00    -0.139 A  
HETATM   12  C   UNL     1      -9.725  10.765  65.656  1.00  0.00    -0.287 A  
HETATM   13  C   UNL     1      -7.793   4.583  65.489  1.00  0.00    -0.094 A  
HETATM   14  C   UNL     1      -8.137   3.332  65.979  1.00  0.00    -0.093 A  
HETATM   15  C   UNL     1      -9.253   3.224  66.793  1.00  0.00    -0.187 A  
HETATM   16  C   UNL     1      -9.972   4.373  67.152  1.00  0.00    -0.182 A  
HETATM   17  C   UNL     1      -9.547   5.675  66.827  1.00  0.00    -0.146 A  
HETATM   18  N   UNL     1     -10.121   6.849  67.400  1.00  0.00    -0.166 NA 
BRANCH  18  19
HETATM   19  C   UNL     1     -10.959   6.725  68.649  1.00  0.00    -0.199 C  
BRANCH  19  20
HETATM   20  C   UNL     1     -10.253   6.751  70.058  1.00  0.00    -0.191 C  
HETATM   21  C   UNL     1     -11.020   5.850  71.039  1.00  0.00    -0.335 C  
BRANCH  20  22
HETATM   22  N   UNL     1      -8.800   6.356  70.010  1.00  0.00    -0.142 NA 
HETATM   23  C   UNL     1      -8.553   5.139  70.802  1.00  0.00    -0.125 C  
HETATM   24  C   UNL     1      -7.905   7.409  70.510  1.00  0.00    -0.097 C  
ENDBRANCH  20  22
ENDBRANCH  19  20
ENDBRANCH  18  19
ENDBRANCH   3   5
ENDBRANCH   2   3
TORSDOF 5
ENDMDL
MODEL      105
REMARK 921   NORMALIZED FREE ENERGY PREDICTED BY IDOCK:   -4.20 KCAL/MOL
REMARK 922        TOTAL FREE ENERGY PREDICTED BY IDOCK:   -6.16 KCAL/MOL
REMARK 923 INTER-LIGAND FREE ENERGY PREDICTED BY IDOCK:   -5.49 KCAL/MOL
REMARK 924 INTRA-LIGAND FREE ENERGY PREDICTED BY IDOCK:   -0.67 KCAL/MOL
REMARK 927      BINDING AFFINITY PREDICTED BY RF-SCORE:    0.00 PKD
ROOT
HETATM    1  C   UNL     1      -8.889   2.725  67.117  1.00  0.00    -0.161 C  
HETATM    2  C   UNL     1      -9.777   3.914  67.449  1.00  0.00    -0.173 C  
ENDROOT
BRANCH   2   3
HETATM    3  C   UNL     1      -9.122   5.235  67.079  1.00  0.00    -0.112 C  
HETATM    4  O   UNL     1      -8.176   5.292  66.301  1.00  0.00    -0.108 OA 
BRANCH   3   5
HETATM    5  C   UNL     1      -9.663   6.503  67.668  1.00  0.00    -0.137 A  
HETATM    6  C   UNL     1      -9.825   7.694  66.926  1.00  0.00    -0.304 A  
HETATM    7  C   UNL     1     -10.238   8.917  67.519  1.00  0.00    -0.248 A  
HETATM    8  C   UNL     1     -10.534   8.854  68.898  1.00  0.00    -0.205 A  
HETATM    9  S   UNL     1     -10.962  10.256  69.889  1.00  0.00    -0.320 SA 
HETATM   10  C   UNL     1     -10.448   7.647  69.622  1.00  0.00    -0.235 A  
HETATM   11  C   UNL     1     -11.213  11.511  68.668  1.00  0.00    -0.248 A  
HETATM   12  C   UNL     1     -10.000   6.485  69.014  1.00  0.00    -0.161 A  
HETATM   13  C   UNL     1     -11.657  12.747  69.180  1.00  0.00    -0.373 A  
HETATM   14  C   UNL     1     -11.930  13.812  68.336  1.00  0.00    -0.395 A  
HETATM   15  C   UNL     1     -11.866  13.606  66.967  1.00  0.00    -0.448 A  
HETATM   16  C   UNL     1     -11.473  12.358  66.465  1.00  0.00    -0.427 A  
HETATM   17  C   UNL     1     -11.009  11.313  67.287  1.00  0.00    -0.286 A  
HETATM   18  N   UNL     1     -10.369  10.145  66.777  1.00  0.00    -0.229 NA 
BRANCH  18  19
HETATM   19  C   UNL     1      -9.836  10.153  65.365  1.00  0.00    -0.307 C  
BRANCH  19  20
HETATM   20  C   UNL     1      -8.349  10.605  65.103  1.00  0.00    -0.117 C  
HETATM   21  C   UNL     1      -7.679  10.980  66.436  1.00  0.00    -0.146 C  
BRANCH  20  22
HETATM   22  N   UNL     1      -7.527   9.574  64.375  1.00  0.00    -0.113 NA 
HETATM   23  C   UNL     1      -6.601  10.208  63.422  1.00  0.00    -0.132 C  
HETATM   24  C   UNL     1      -8.350   8.611  63.630  1.00  0.00    -0.112 C  
ENDBRANCH  20  22
ENDBRANCH  19  20
ENDBRANCH  18  19
ENDBRANCH   3   5
ENDBRANCH   2   3
TORSDOF 5
ENDMDL
MODEL      106
REMARK 921   NORMALIZED FREE ENERGY PREDICTED BY IDOCK:   -4.15 KCAL/MOL
REMARK 922        TOTAL FREE ENERGY PREDICTED BY IDOCK:   -6.10 KCAL/MOL
REMARK 923 INTER-LIGAND FREE ENERGY PREDICTED BY IDOCK:   -5.75 KCAL/MOL
REMARK 924 INTRA-LIGAND FREE ENERGY PREDICTED BY IDOCK:   -0.35 KCAL/MOL
REMARK 927      BINDING AFFINITY PREDICTED BY RF-SCORE:    0.00 PKD
ROOT
HETATM    1  C   UNL     1     -10.519   7.085  67.200  1.00  0.00    -0.383 C  
HETATM    2  C   UNL     1     -10.173   8.421  67.841  1.00  0.00    -0.273 C  
ENDROOT
BRANCH   2   3
HETATM    3  C   UNL     1      -9.389   9.319  66.898  1.00  0.00    -0.151 C  
HETATM    4  O   UNL     1      -9.170   9.000  65.734  1.00  0.00    -0.206 OA 
BRANCH   3   5
HETATM    5  C   UNL     1      -8.888  10.639  67.401  1.00  0.00    -0.132 A  
HETATM    6  C   UNL     1      -9.346  11.881  66.907  1.00  0.00    -0.198 A  
HETATM    7  C   UNL     1      -8.789  13.122  67.316  1.00  0.00    -0.208 A  
HETATM    8  C   UNL     1      -7.778  13.040  68.298  1.00  0.00    -0.141 A  
HETATM    9  S   UNL     1      -6.853  14.426  68.894  1.00  0.00    -0.108 SA 
HETATM   10  C   UNL     1      -7.376  11.806  68.849  1.00  0.00    -0.093 A  
HETATM   11  C   UNL     1      -7.747  15.790  68.208  1.00  0.00    -0.132 A  
HETATM   12  C   UNL     1      -7.916  10.614  68.391  1.00  0.00    -0.120 A  
HETATM   13  C   UNL     1      -7.271  17.058  68.597  1.00  0.00    -0.221 A  
HETATM   14  C   UNL     1      -7.896  18.219  68.167  1.00  0.00    -0.299 A  
HETATM   15  C   UNL     1      -9.067  18.107  67.435  1.00  0.00    -0.253 A  
HETATM   16  C   UNL     1      -9.563  16.841  67.095  1.00  0.00    -0.238 A  
HETATM   17  C   UNL     1      -8.859  15.648  67.353  1.00  0.00    -0.191 A  
HETATM   18  N   UNL     1      -9.224  14.390  66.789  1.00  0.00    -0.259 NA 
BRANCH  18  19
HETATM   19  C   UNL     1     -10.158  14.356  65.604  1.00  0.00    -0.353 C  
BRANCH  19  20
HETATM   20  C   UNL     1     -11.597  13.737  65.773  1.00  0.00    -0.331 C  
HETATM   21  C   UNL     1     -12.253  14.288  67.050  1.00  0.00    -0.338 C  
BRANCH  20  22
HETATM   22  N   UNL     1     -12.494  13.965  64.583  1.00  0.00    -0.620 NA 
HETATM   23  C   UNL     1     -12.284  12.934  63.554  1.00  0.00    -0.512 C  
HETATM   24  C   UNL     1     -12.285  15.277  63.956  1.00  0.00     0.005 C  
ENDBRANCH  20  22
ENDBRANCH  19  20
ENDBRANCH  18  19
ENDBRANCH   3   5
ENDBRANCH   2   3
TORSDOF 5
ENDMDL
MODEL      107
REMARK 921   NORMALIZED FREE ENERGY PREDICTED BY IDOCK:   -4.10 KCAL/MOL
REMARK 922        TOTAL FREE ENERGY PREDICTED BY IDOCK:   -6.03 KCAL/MOL
REMARK 923 INTER-LIGAND FREE ENERGY PREDICTED BY IDOCK:   -5.21 KCAL/MOL
REMARK 924 INTRA-LIGAND FREE ENERGY PREDICTED BY IDOCK:   -0.82 KCAL/MOL
REMARK 927      BINDING AFFINITY PREDICTED BY RF-SCORE:    0.00 PKD
ROOT
HETATM    1  C   UNL     1      -7.870   5.523  64.079  1.00  0.00    -0.104 C  
HETATM    2  C   UNL     1      -8.408   4.104  64.175  1.00  0.00    -0.099 C  
ENDROOT
BRANCH   2   3
HETATM    3  C   UNL     1      -9.751   4.050  64.885  1.00  0.00    -0.193 C  
HETATM    4  O   UNL     1     -10.793   3.817  64.281  1.00  0.00    -0.265 OA 
BRANCH   3   5
HETATM    5  C   UNL     1      -9.797   4.268  66.367  1.00  0.00    -0.236 A  
HETATM    6  C   UNL     1     -10.201   5.484  66.959  1.00  0.00    -0.265 A  
HETATM    7  C   UNL     1     -10.140   5.715  68.360  1.00  0.00    -0.173 A  
HETATM    8  C   UNL     1      -9.698   4.621  69.136  1.00  0.00    -0.185 A  
HETATM    9  S   UNL     1      -9.431   4.684  70.884  1.00  0.00    -0.179 SA 
HETATM   10  C   UNL     1      -9.370   3.380  68.552  1.00  0.00    -0.231 A  
HETATM   11  C   UNL     1     -10.149   6.242  71.313  1.00  0.00    -0.189 A  
HETATM   12  C   UNL     1      -9.403   3.211  67.177  1.00  0.00    -0.197 A  
HETATM   13  C   UNL     1     -10.153   6.526  72.694  1.00  0.00    -0.190 A  
HETATM   14  C   UNL     1     -10.717   7.695  73.181  1.00  0.00    -0.445 A  
HETATM   15  C   UNL     1     -11.376   8.532  72.294  1.00  0.00    -0.441 A  
HETATM   16  C   UNL     1     -11.411   8.217  70.929  1.00  0.00    -0.292 A  
HETATM   17  C   UNL     1     -10.694   7.140  70.372  1.00  0.00    -0.235 A  
HETATM   18  N   UNL     1     -10.514   6.965  68.968  1.00  0.00    -0.199 NA 
BRANCH  18  19
HETATM   19  C   UNL     1     -10.774   8.128  68.041  1.00  0.00    -0.044 C  
BRANCH  19  20
HETATM   20  C   UNL     1      -9.580   9.073  67.634  1.00  0.00    -0.150 C  
HETATM   21  C   UNL     1      -9.124   8.744  66.202  1.00  0.00    -0.251 C  
BRANCH  20  22
HETATM   22  N   UNL     1      -9.905  10.539  67.756  1.00  0.00    -0.163 NA 
HETATM   23  C   UNL     1     -11.355  10.753  67.892  1.00  0.00    -0.299 C  
HETATM   24  C   UNL     1      -9.439  11.324  66.604  1.00  0.00    -0.186 C  
ENDBRANCH  20  22
ENDBRANCH  19  20
ENDBRANCH  18  19
ENDBRANCH   3   5
ENDBRANCH   2   3
TORSDOF 5
ENDMDL
MODEL      108
REMARK 921   NORMALIZED FREE ENERGY PREDICTED BY IDOCK:   -4.04 KCAL/MOL
REMARK 922        TOTAL FREE ENERGY PREDICTED BY IDOCK:   -5.96 KCAL/MOL
REMARK 923 INTER-LIGAND FREE ENERGY PREDICTED BY IDOCK:   -6.05 KCAL/MOL
REMARK 924 INTRA-LIGAND FREE ENERGY PREDICTED BY IDOCK:    0.10 KCAL/MOL
REMARK 927      BINDING AFFINITY PREDICTED BY RF-SCORE:    0.00 PKD
ROOT
HETATM    1  C   UNL     1      -7.241  18.293  68.709  1.00  0.00    -0.291 C  
HETATM    2  C   UNL     1      -7.995  19.496  69.256  1.00  0.00    -0.115 C  
ENDROOT
BRANCH   2   3
HETATM    3  C   UNL     1      -9.498  19.355  69.076  1.00  0.00    -0.340 C  
HETATM    4  O   UNL     1     -10.293  19.923  69.817  1.00  0.00    -0.120 OA 
BRANCH   3   5
HETATM    5  C   UNL     1     -10.019  18.514  67.950  1.00  0.00    -0.374 A  
HETATM    6  C   UNL     1     -10.289  17.134  68.075  1.00  0.00    -0.353 A  
HETATM    7  C   UNL     1     -10.681  16.326  66.973  1.00  0.00    -0.233 A  
HETATM    8  C   UNL     1     -10.839  17.007  65.747  1.00  0.00    -0.046 A  
HETATM    9  S   UNL     1     -11.212  16.214  64.209  1.00  0.00     0.312 SA 
HETATM   10  C   UNL     1     -10.645  18.399  65.640  1.00  0.00    -0.128 A  
HETATM   11  C   UNL     1     -11.620  14.573  64.728  1.00  0.00    -0.413 A  
HETATM   12  C   UNL     1     -10.222  19.143  66.730  1.00  0.00    -0.482 A  
HETATM   13  C   UNL     1     -12.051  13.720  63.691  1.00  0.00    -0.330 A  
HETATM   14  C   UNL     1     -12.439  12.416  63.954  1.00  0.00    -0.573 A  
HETATM   15  C   UNL     1     -12.501  11.997  65.273  1.00  0.00     0.305 A  
HETATM   16  C   UNL     1     -12.120  12.868  66.303  1.00  0.00    -0.433 A  
HETATM   17  C   UNL     1     -11.546  14.131  66.065  1.00  0.00    -0.361 A  
HETATM   18  N   UNL     1     -10.922  14.910  67.084  1.00  0.00    -0.315 NA 
BRANCH  18  19
HETATM   19  C   UNL     1     -10.530  14.247  68.382  1.00  0.00    -0.249 C  
BRANCH  19  20
HETATM   20  C   UNL     1     -11.655  13.712  69.347  1.00  0.00    -0.312 C  
HETATM   21  C   UNL     1     -11.411  12.225  69.654  1.00  0.00    -0.285 C  
BRANCH  20  22
HETATM   22  N   UNL     1     -11.774  14.498  70.626  1.00  0.00    -0.286 NA 
HETATM   23  C   UNL     1     -13.116  15.088  70.766  1.00  0.00    -0.369 C  
HETATM   24  C   UNL     1     -10.791  15.588  70.720  1.00  0.00    -0.261 C  
ENDBRANCH  20  22
ENDBRANCH  19  20
ENDBRANCH  18  19
ENDBRANCH   3   5
ENDBRANCH   2   3
TORSDOF 5
ENDMDL
MODEL      109
REMARK 921   NORMALIZED FREE ENERGY PREDICTED BY IDOCK:   -4.04 KCAL/MOL
REMARK 922        TOTAL FREE ENERGY PREDICTED BY IDOCK:   -5.95 KCAL/MOL
REMARK 923 INTER-LIGAND FREE ENERGY PREDICTED BY IDOCK:   -5.43 KCAL/MOL
REMARK 924 INTRA-LIGAND FREE ENERGY PREDICTED BY IDOCK:   -0.52 KCAL/MOL
REMARK 927      BINDING AFFINITY PREDICTED BY RF-SCORE:    0.00 PKD
ROOT
HETATM    1  C   UNL     1     -13.931   8.146  72.198  1.00  0.00    -0.345 C  
HETATM    2  C   UNL     1     -13.958   9.418  71.364  1.00  0.00    -0.172 C  
ENDROOT
BRANCH   2   3
HETATM    3  C   UNL     1     -12.562   9.861  70.957  1.00  0.00    -0.336 C  
HETATM    4  O   UNL     1     -11.643   9.060  70.822  1.00  0.00    -0.276 OA 
BRANCH   3   5
HETATM    5  C   UNL     1     -12.310  11.315  70.694  1.00  0.00    -0.477 A  
HETATM    6  C   UNL     1     -11.444  11.781  69.681  1.00  0.00    -0.341 A  
HETATM    7  C   UNL     1     -11.130  13.156  69.510  1.00  0.00    -0.003 A  
HETATM    8  C   UNL     1     -11.791  14.042  70.389  1.00  0.00    -0.286 A  
HETATM    9  S   UNL     1     -11.493  15.786  70.453  1.00  0.00    -0.395 SA 
HETATM   10  C   UNL     1     -12.716  13.585  71.349  1.00  0.00    -0.423 A  
HETATM   11  C   UNL     1     -10.506  16.047  69.009  1.00  0.00    -0.246 A  
HETATM   12  C   UNL     1     -12.961  12.230  71.511  1.00  0.00    -0.390 A  
HETATM   13  C   UNL     1     -10.182  17.395  68.756  1.00  0.00    -0.361 A  
HETATM   14  C   UNL     1      -9.445  17.755  67.639  1.00  0.00    -0.255 A  
HETATM   15  C   UNL     1      -9.124  16.775  66.713  1.00  0.00    -0.263 A  
HETATM   16  C   UNL     1      -9.493  15.443  66.947  1.00  0.00    -0.246 A  
HETATM   17  C   UNL     1     -10.077  15.011  68.154  1.00  0.00    -0.220 A  
HETATM   18  N   UNL     1     -10.218  13.635  68.504  1.00  0.00    -0.240 NA 
BRANCH  18  19
HETATM   19  C   UNL     1      -9.415  12.599  67.756  1.00  0.00    -0.198 C  
BRANCH  19  20
HETATM   20  C   UNL     1      -8.019  12.144  68.328  1.00  0.00    -0.163 C  
HETATM   21  C   UNL     1      -8.211  10.946  69.273  1.00  0.00    -0.046 C  
BRANCH  20  22
HETATM   22  N   UNL     1      -7.011  11.811  67.258  1.00  0.00    -0.127 NA 
HETATM   23  C   UNL     1      -6.215  10.629  67.627  1.00  0.00    -0.055 C  
HETATM   24  C   UNL     1      -6.079  12.916  66.990  1.00  0.00     0.432 C  
ENDBRANCH  20  22
ENDBRANCH  19  20
ENDBRANCH  18  19
ENDBRANCH   3   5
ENDBRANCH   2   3
TORSDOF 5
ENDMDL
MODEL      110
REMARK 921   NORMALIZED FREE ENERGY PREDICTED BY IDOCK:   -4.03 KCAL/MOL
REMARK 922        TOTAL FREE ENERGY PREDICTED BY IDOCK:   -5.94 KCAL/MOL
REMARK 923 INTER-LIGAND FREE ENERGY PREDICTED BY IDOCK:   -5.58 KCAL/MOL
REMARK 924 INTRA-LIGAND FREE ENERGY PREDICTED BY IDOCK:   -0.36 KCAL/MOL
REMARK 927      BINDING AFFINITY PREDICTED BY RF-SCORE:    0.00 PKD
ROOT
HETATM    1  C   UNL     1     -11.109   5.202  72.990  1.00  0.00    -0.379 C  
HETATM    2  C   UNL     1     -10.688   5.407  71.543  1.00  0.00    -0.262 C  
ENDROOT
BRANCH   2   3
HETATM    3  C   UNL     1     -11.095   6.774  71.019  1.00  0.00    -0.273 C  
HETATM    4  O   UNL     1     -12.267   7.056  70.790  1.00  0.00    -0.353 OA 
BRANCH   3   5
HETATM    5  C   UNL     1     -10.036   7.811  70.797  1.00  0.00    -0.195 A  
HETATM    6  C   UNL     1     -10.139   8.827  69.821  1.00  0.00    -0.198 A  
HETATM    7  C   UNL     1      -9.084   9.739  69.548  1.00  0.00    -0.216 A  
HETATM    8  C   UNL     1      -7.937   9.601  70.360  1.00  0.00    -0.165 A  
HETATM    9  S   UNL     1      -6.450  10.538  70.150  1.00  0.00    -0.144 SA 
HETATM   10  C   UNL     1      -7.865   8.637  71.387  1.00  0.00    -0.162 A  
HETATM   11  C   UNL     1      -6.952  11.773  68.987  1.00  0.00    -0.107 A  
HETATM   12  C   UNL     1      -8.901   7.740  71.592  1.00  0.00    -0.144 A  
HETATM   13  C   UNL     1      -5.965  12.734  68.691  1.00  0.00    -0.065 A  
HETATM   14  C   UNL     1      -6.227  13.784  67.825  1.00  0.00    -0.159 A  
HETATM   15  C   UNL     1      -7.516  13.934  67.338  1.00  0.00    -0.147 A  
HETATM   16  C   UNL     1      -8.506  13.001  67.677  1.00  0.00    -0.187 A  
HETATM   17  C   UNL     1      -8.233  11.824  68.401  1.00  0.00    -0.154 A  
HETATM   18  N   UNL     1      -9.166  10.753  68.529  1.00  0.00    -0.167 NA 
BRANCH  18  19
HETATM   19  C   UNL     1     -10.344  10.685  67.587  1.00  0.00    -0.209 C  
BRANCH  19  20
HETATM   20  C   UNL     1     -11.663  11.471  67.942  1.00  0.00    -0.247 C  
HETATM   21  C   UNL     1     -11.476  12.224  69.269  1.00  0.00    -0.352 C  
BRANCH  20  22
HETATM   22  N   UNL     1     -12.107  12.420  66.859  1.00  0.00    -0.547 NA 
HETATM   23  C   UNL     1     -11.402  12.152  65.594  1.00  0.00    -0.347 C  
HETATM   24  C   UNL     1     -11.882  13.830  67.209  1.00  0.00    -0.401 C  
ENDBRANCH  20  22
ENDBRANCH  19  20
ENDBRANCH  18  19
ENDBRANCH   3   5
ENDBRANCH   2   3
TORSDOF 5
ENDMDL
MODEL      111
REMARK 921   NORMALIZED FREE ENERGY PREDICTED BY IDOCK:   -3.99 KCAL/MOL
REMARK 922        TOTAL FREE ENERGY PREDICTED BY IDOCK:   -5.90 KCAL/MOL
REMARK 923 INTER-LIGAND FREE ENERGY PREDICTED BY IDOCK:   -5.61 KCAL/MOL
REMARK 924 INTRA-LIGAND FREE ENERGY PREDICTED BY IDOCK:   -0.29 KCAL/MOL
REMARK 927      BINDING AFFINITY PREDICTED BY RF-SCORE:    0.00 PKD
ROOT
HETATM    1  C   UNL     1      -7.789  17.946  66.137  1.00  0.00    -0.257 C  
HETATM    2  C   UNL     1      -7.382  16.686  66.886  1.00  0.00    -0.260 C  
ENDROOT
BRANCH   2   3
HETATM    3  C   UNL     1      -8.563  15.760  67.127  1.00  0.00    -0.201 C  
HETATM    4  O   UNL     1      -9.721  16.142  66.993  1.00  0.00    -0.224 OA 
BRANCH   3   5
HETATM    5  C   UNL     1      -8.302  14.337  67.517  1.00  0.00    -0.198 A  
HETATM    6  C   UNL     1      -9.146  13.266  67.150  1.00  0.00    -0.231 A  
HETATM    7  C   UNL     1      -8.947  11.938  67.614  1.00  0.00    -0.169 A  
HETATM    8  C   UNL     1      -7.810  11.743  68.428  1.00  0.00    -0.141 A  
HETATM    9  S   UNL     1      -7.402  10.213  69.219  1.00  0.00    -0.112 SA 
HETATM   10  C   UNL     1      -6.924  12.798  68.731  1.00  0.00    -0.096 A  
HETATM   11  C   UNL     1      -8.533   9.088  68.456  1.00  0.00    -0.128 A  
HETATM   12  C   UNL     1      -7.178  14.087  68.292  1.00  0.00    -0.114 A  
HETATM   13  C   UNL     1      -8.374   7.743  68.845  1.00  0.00    -0.128 A  
HETATM   14  C   UNL     1      -9.167   6.744  68.301  1.00  0.00    -0.122 A  
HETATM   15  C   UNL     1     -10.047   7.077  67.284  1.00  0.00    -0.265 A  
HETATM   16  C   UNL     1     -10.164   8.411  66.868  1.00  0.00    -0.383 A  
HETATM   17  C   UNL     1      -9.514   9.477  67.520  1.00  0.00    -0.130 A  
HETATM   18  N   UNL     1      -9.824  10.847  67.274  1.00  0.00    -0.173 NA 
BRANCH  18  19
HETATM   19  C   UNL     1     -11.114  11.197  66.573  1.00  0.00    -0.167 C  
BRANCH  19  20
HETATM   20  C   UNL     1     -11.063  11.995  65.215  1.00  0.00    -0.317 C  
HETATM   21  C   UNL     1     -10.660  11.049  64.071  1.00  0.00    -0.395 C  
BRANCH  20  22
HETATM   22  N   UNL     1     -12.352  12.699  64.883  1.00  0.00    -0.483 NA 
HETATM   23  C   UNL     1     -12.391  13.099  63.466  1.00  0.00    -0.398 C  
HETATM   24  C   UNL     1     -12.570  13.904  65.696  1.00  0.00    -0.517 C  
ENDBRANCH  20  22
ENDBRANCH  19  20
ENDBRANCH  18  19
ENDBRANCH   3   5
ENDBRANCH   2   3
TORSDOF 5
ENDMDL
MODEL      112
REMARK 921   NORMALIZED FREE ENERGY PREDICTED BY IDOCK:   -3.98 KCAL/MOL
REMARK 922        TOTAL FREE ENERGY PREDICTED BY IDOCK:   -5.88 KCAL/MOL
REMARK 923 INTER-LIGAND FREE ENERGY PREDICTED BY IDOCK:   -5.49 KCAL/MOL
REMARK 924 INTRA-LIGAND FREE ENERGY PREDICTED BY IDOCK:   -0.39 KCAL/MOL
REMARK 927      BINDING AFFINITY PREDICTED BY RF-SCORE:    0.00 PKD
ROOT
HETATM    1  C   UNL     1      -8.655  19.008  67.020  1.00  0.00    -0.308 C  
HETATM    2  C   UNL     1      -8.236  18.623  68.431  1.00  0.00    -0.361 C  
ENDROOT
BRANCH   2   3
HETATM    3  C   UNL     1      -6.933  17.842  68.445  1.00  0.00    -0.228 C  
HETATM    4  O   UNL     1      -5.868  18.366  68.755  1.00  0.00    -0.194 OA 
BRANCH   3   5
HETATM    5  C   UNL     1      -6.955  16.386  68.089  1.00  0.00    -0.138 A  
HETATM    6  C   UNL     1      -8.046  15.763  67.444  1.00  0.00    -0.193 A  
HETATM    7  C   UNL     1      -8.102  14.363  67.207  1.00  0.00    -0.187 A  
HETATM    8  C   UNL     1      -6.962  13.634  67.611  1.00  0.00    -0.172 A  
HETATM    9  S   UNL     1      -6.827  11.872  67.527  1.00  0.00    -0.138 SA 
HETATM   10  C   UNL     1      -5.840  14.267  68.184  1.00  0.00    -0.130 A  
HETATM   11  C   UNL     1      -8.248  11.436  66.569  1.00  0.00    -0.152 A  
HETATM   12  C   UNL     1      -5.844  15.630  68.436  1.00  0.00    -0.107 A  
HETATM   13  C   UNL     1      -8.352  10.063  66.266  1.00  0.00    -0.127 A  
HETATM   14  C   UNL     1      -9.395   9.580  65.491  1.00  0.00    -0.317 A  
HETATM   15  C   UNL     1     -10.276  10.489  64.925  1.00  0.00    -0.371 A  
HETATM   16  C   UNL     1     -10.135  11.858  65.190  1.00  0.00    -0.293 A  
HETATM   17  C   UNL     1      -9.206  12.368  66.118  1.00  0.00    -0.101 A  
HETATM   18  N   UNL     1      -9.227  13.715  66.584  1.00  0.00    -0.240 NA 
BRANCH  18  19
HETATM   19  C   UNL     1     -10.470  14.546  66.378  1.00  0.00    -0.295 C  
BRANCH  19  20
HETATM   20  C   UNL     1     -11.599  14.533  67.478  1.00  0.00    -0.381 C  
HETATM   21  C   UNL     1     -12.134  13.102  67.654  1.00  0.00    -0.281 C  
BRANCH  20  22
HETATM   22  N   UNL     1     -11.153  15.091  68.804  1.00  0.00    -0.249 NA 
HETATM   23  C   UNL     1     -11.836  14.418  69.922  1.00  0.00    -0.323 C  
HETATM   24  C   UNL     1     -11.402  16.535  68.928  1.00  0.00    -0.206 C  
ENDBRANCH  20  22
ENDBRANCH  19  20
ENDBRANCH  18  19
ENDBRANCH   3   5
ENDBRANCH   2   3
TORSDOF 5
ENDMDL
MODEL      113
REMARK 921   NORMALIZED FREE ENERGY PREDICTED BY IDOCK:   -3.95 KCAL/MOL
REMARK 922        TOTAL FREE ENERGY PREDICTED BY IDOCK:   -5.84 KCAL/MOL
REMARK 923 INTER-LIGAND FREE ENERGY PREDICTED BY IDOCK:   -5.54 KCAL/MOL
REMARK 924 INTRA-LIGAND FREE ENERGY PREDICTED BY IDOCK:   -0.30 KCAL/MOL
REMARK 927      BINDING AFFINITY PREDICTED BY RF-SCORE:    0.00 PKD
ROOT
HETATM    1  C   UNL     1     -11.081   9.443  71.451  1.00  0.00    -0.450 C  
HETATM    2  C   UNL     1      -9.821   8.685  71.061  1.00  0.00    -0.267 C  
ENDROOT
BRANCH   2   3
HETATM    3  C   UNL     1      -8.918   9.509  70.157  1.00  0.00    -0.236 C  
HETATM    4  O   UNL     1      -7.711   9.596  70.355  1.00  0.00    -0.150 OA 
BRANCH   3   5
HETATM    5  C   UNL     1      -9.520  10.216  68.980  1.00  0.00    -0.195 A  
HETATM    6  C   UNL     1      -9.430  11.612  68.786  1.00  0.00    -0.068 A  
HETATM    7  C   UNL     1     -10.094  12.284  67.725  1.00  0.00    -0.201 A  
HETATM    8  C   UNL     1     -10.810  11.454  66.835  1.00  0.00    -0.285 A  
HETATM    9  S   UNL     1     -11.807  12.052  65.500  1.00  0.00    -0.052 SA 
HETATM   10  C   UNL     1     -10.835  10.052  66.983  1.00  0.00    -0.196 A  
HETATM   11  C   UNL     1     -11.369  13.765  65.449  1.00  0.00    -0.308 A  
HETATM   12  C   UNL     1     -10.208   9.441  68.057  1.00  0.00    -0.248 A  
HETATM   13  C   UNL     1     -11.965  14.491  64.398  1.00  0.00    -0.467 A  
HETATM   14  C   UNL     1     -11.685  15.836  64.211  1.00  0.00    -0.162 A  
HETATM   15  C   UNL     1     -10.721  16.429  65.011  1.00  0.00    -0.279 A  
HETATM   16  C   UNL     1     -10.095  15.686  66.021  1.00  0.00    -0.355 A  
HETATM   17  C   UNL     1     -10.485  14.376  66.362  1.00  0.00    -0.295 A  
HETATM   18  N   UNL     1     -10.038  13.711  67.542  1.00  0.00    -0.235 NA 
BRANCH  18  19
HETATM   19  C   UNL     1      -9.422  14.522  68.656  1.00  0.00    -0.205 C  
BRANCH  19  20
HETATM   20  C   UNL     1      -7.865  14.767  68.663  1.00  0.00    -0.140 C  
HETATM   21  C   UNL     1      -7.192  13.851  67.627  1.00  0.00    -0.187 C  
BRANCH  20  22
HETATM   22  N   UNL     1      -7.481  16.203  68.421  1.00  0.00    -0.147 NA 
HETATM   23  C   UNL     1      -6.743  16.351  67.156  1.00  0.00    -0.203 C  
HETATM   24  C   UNL     1      -6.647  16.759  69.496  1.00  0.00    -0.207 C  
ENDBRANCH  20  22
ENDBRANCH  19  20
ENDBRANCH  18  19
ENDBRANCH   3   5
ENDBRANCH   2   3
TORSDOF 5
ENDMDL
MODEL      114
REMARK 921   NORMALIZED FREE ENERGY PREDICTED BY IDOCK:   -3.92 KCAL/MOL
REMARK 922        TOTAL FREE ENERGY PREDICTED BY IDOCK:   -5.81 KCAL/MOL
REMARK 923 INTER-LIGAND FREE ENERGY PREDICTED BY IDOCK:   -5.41 KCAL/MOL
REMARK 924 INTRA-LIGAND FREE ENERGY PREDICTED BY IDOCK:   -0.40 KCAL/MOL
REMARK 927      BINDING AFFINITY PREDICTED BY RF-SCORE:    0.00 PKD
ROOT
HETATM    1  C   UNL     1      -5.178  17.305  71.091  1.00  0.00    -0.110 C  
HETATM    2  C   UNL     1      -5.316  16.660  69.720  1.00  0.00    -0.164 C  
ENDROOT
BRANCH   2   3
HETATM    3  C   UNL     1      -6.296  15.498  69.734  1.00  0.00    -0.164 C  
HETATM    4  O   UNL     1      -6.216  14.595  70.559  1.00  0.00    -0.174 OA 
BRANCH   3   5
HETATM    5  C   UNL     1      -7.402  15.469  68.723  1.00  0.00    -0.141 A  
HETATM    6  C   UNL     1      -7.859  14.282  68.109  1.00  0.00    -0.139 A  
HETATM    7  C   UNL     1      -8.833  14.279  67.075  1.00  0.00    -0.226 A  
HETATM    8  C   UNL     1      -9.362  15.543  66.735  1.00  0.00    -0.245 A  
HETATM    9  S   UNL     1     -10.504  15.821  65.412  1.00  0.00    -0.401 SA 
HETATM   10  C   UNL     1      -8.963  16.719  67.402  1.00  0.00    -0.211 A  
HETATM   11  C   UNL     1     -10.966  14.173  64.968  1.00  0.00    -0.384 A  
HETATM   12  C   UNL     1      -7.978  16.683  68.376  1.00  0.00    -0.205 A  
HETATM   13  C   UNL     1     -11.956  14.090  63.968  1.00  0.00    -0.388 A  
HETATM   14  C   UNL     1     -12.443  12.863  63.544  1.00  0.00    -0.430 A  
HETATM   15  C   UNL     1     -12.018  11.720  64.201  1.00  0.00    -0.331 A  
HETATM   16  C   UNL     1     -11.070  11.815  65.230  1.00  0.00    -0.333 A  
HETATM   17  C   UNL     1     -10.417  13.017  65.561  1.00  0.00    -0.285 A  
HETATM   18  N   UNL     1      -9.278  13.076  66.418  1.00  0.00    -0.186 NA 
BRANCH  18  19
HETATM   19  C   UNL     1      -8.508  11.811  66.709  1.00  0.00    -0.177 C  
BRANCH  19  20
HETATM   20  C   UNL     1      -8.959  10.892  67.908  1.00  0.00    -0.141 C  
HETATM   21  C   UNL     1     -10.068  11.593  68.710  1.00  0.00    -0.169 C  
BRANCH  20  22
HETATM   22  N   UNL     1      -9.410   9.521  67.478  1.00  0.00    -0.126 NA 
HETATM   23  C   UNL     1     -10.743   9.205  68.018  1.00  0.00    -0.147 C  
HETATM   24  C   UNL     1      -8.488   8.458  67.903  1.00  0.00    -0.131 C  
ENDBRANCH  20  22
ENDBRANCH  19  20
ENDBRANCH  18  19
ENDBRANCH   3   5
ENDBRANCH   2   3
TORSDOF 5
ENDMDL
MODEL      115
REMARK 921   NORMALIZED FREE ENERGY PREDICTED BY IDOCK:   -3.92 KCAL/MOL
REMARK 922        TOTAL FREE ENERGY PREDICTED BY IDOCK:   -5.80 KCAL/MOL
REMARK 923 INTER-LIGAND FREE ENERGY PREDICTED BY IDOCK:   -5.24 KCAL/MOL
REMARK 924 INTRA-LIGAND FREE ENERGY PREDICTED BY IDOCK:   -0.56 KCAL/MOL
REMARK 927      BINDING AFFINITY PREDICTED BY RF-SCORE:    0.00 PKD
ROOT
HETATM    1  C   UNL     1      -7.158  19.576  68.736  1.00  0.00    -0.383 C  
HETATM    2  C   UNL     1      -8.580  19.248  68.305  1.00  0.00    -0.374 C  
ENDROOT
BRANCH   2   3
HETATM    3  C   UNL     1      -8.670  17.894  67.622  1.00  0.00    -0.242 C  
HETATM    4  O   UNL     1      -8.100  17.666  66.560  1.00  0.00    -0.238 OA 
BRANCH   3   5
HETATM    5  C   UNL     1      -9.461  16.802  68.277  1.00  0.00    -0.240 A  
HETATM    6  C   UNL     1      -9.199  15.429  68.076  1.00  0.00    -0.184 A  
HETATM    7  C   UNL     1     -10.021  14.403  68.617  1.00  0.00    -0.241 A  
HETATM    8  C   UNL     1     -11.093  14.846  69.421  1.00  0.00    -0.280 A  
HETATM    9  S   UNL     1     -12.321  13.779  70.119  1.00  0.00    -0.288 SA 
HETATM   10  C   UNL     1     -11.308  16.214  69.686  1.00  0.00    -0.316 A  
HETATM   11  C   UNL     1     -11.636  12.177  69.814  1.00  0.00    -0.262 A  
HETATM   12  C   UNL     1     -10.508  17.184  69.104  1.00  0.00    -0.296 A  
HETATM   13  C   UNL     1     -12.382  11.108  70.351  1.00  0.00    -0.430 A  
HETATM   14  C   UNL     1     -11.948   9.798  70.222  1.00  0.00    -0.156 A  
HETATM   15  C   UNL     1     -10.708   9.565  69.649  1.00  0.00    -0.257 A  
HETATM   16  C   UNL     1      -9.948  10.638  69.162  1.00  0.00    -0.228 A  
HETATM   17  C   UNL     1     -10.435  11.959  69.107  1.00  0.00     0.002 A  
HETATM   18  N   UNL     1      -9.782  13.002  68.386  1.00  0.00    -0.219 NA 
BRANCH  18  19
HETATM   19  C   UNL     1      -8.742  12.644  67.353  1.00  0.00    -0.191 C  
BRANCH  19  20
HETATM   20  C   UNL     1      -7.294  12.235  67.825  1.00  0.00    -0.118 C  
HETATM   21  C   UNL     1      -6.407  11.962  66.599  1.00  0.00     0.064 C  
BRANCH  20  22
HETATM   22  N   UNL     1      -6.645  13.255  68.724  1.00  0.00    -0.093 NA 
HETATM   23  C   UNL     1      -5.686  14.088  67.979  1.00  0.00    -0.130 C  
HETATM   24  C   UNL     1      -5.929  12.646  69.854  1.00  0.00    -0.141 C  
ENDBRANCH  20  22
ENDBRANCH  19  20
ENDBRANCH  18  19
ENDBRANCH   3   5
ENDBRANCH   2   3
TORSDOF 5
ENDMDL
MODEL      116
REMARK 921   NORMALIZED FREE ENERGY PREDICTED BY IDOCK:   -3.90 KCAL/MOL
REMARK 922        TOTAL FREE ENERGY PREDICTED BY IDOCK:   -5.78 KCAL/MOL
REMARK 923 INTER-LIGAND FREE ENERGY PREDICTED BY IDOCK:   -5.17 KCAL/MOL
REMARK 924 INTRA-LIGAND FREE ENERGY PREDICTED BY IDOCK:   -0.61 KCAL/MOL
REMARK 927      BINDING AFFINITY PREDICTED BY RF-SCORE:    0.00 PKD
ROOT
HETATM    1  C   UNL     1     -12.424  11.939  63.017  1.00  0.00    -0.142 C  
HETATM    2  C   UNL     1     -11.295  12.184  64.007  1.00  0.00    -0.468 C  
ENDROOT
BRANCH   2   3
HETATM    3  C   UNL     1     -10.035  11.420  63.634  1.00  0.00    -0.364 C  
HETATM    4  O   UNL     1      -9.306  11.784  62.717  1.00  0.00    -0.351 OA 
BRANCH   3   5
HETATM    5  C   UNL     1      -9.666  10.201  64.423  1.00  0.00    -0.345 A  
HETATM    6  C   UNL     1     -10.117   9.965  65.741  1.00  0.00    -0.317 A  
HETATM    7  C   UNL     1      -9.676   8.860  66.517  1.00  0.00    -0.254 A  
HETATM    8  C   UNL     1      -8.793   7.973  65.864  1.00  0.00    -0.153 A  
HETATM    9  S   UNL     1      -8.018   6.586  66.643  1.00  0.00    -0.110 SA 
HETATM   10  C   UNL     1      -8.404   8.165  64.522  1.00  0.00    -0.067 A  
HETATM   11  C   UNL     1      -8.883   6.494  68.183  1.00  0.00    -0.115 A  
HETATM   12  C   UNL     1      -8.825   9.280  63.814  1.00  0.00    -0.150 A  
HETATM   13  C   UNL     1      -8.521   5.400  68.995  1.00  0.00    -0.100 A  
HETATM   14  C   UNL     1      -9.142   5.180  70.214  1.00  0.00    -0.164 A  
HETATM   15  C   UNL     1     -10.206   5.993  70.572  1.00  0.00    -0.262 A  
HETATM   16  C   UNL     1     -10.594   7.048  69.735  1.00  0.00    -0.253 A  
HETATM   17  C   UNL     1      -9.872   7.417  68.583  1.00  0.00    -0.163 A  
HETATM   18  N   UNL     1     -10.102   8.633  67.874  1.00  0.00    -0.193 NA 
BRANCH  18  19
HETATM   19  C   UNL     1     -10.878   9.740  68.544  1.00  0.00    -0.188 C  
BRANCH  19  20
HETATM   20  C   UNL     1     -10.097  10.902  69.269  1.00  0.00    -0.140 C  
HETATM   21  C   UNL     1      -8.589  10.758  69.001  1.00  0.00    -0.143 C  
BRANCH  20  22
HETATM   22  N   UNL     1     -10.569  12.278  68.880  1.00  0.00    -0.182 NA 
HETATM   23  C   UNL     1     -11.679  12.207  67.915  1.00  0.00    -0.336 C  
HETATM   24  C   UNL     1      -9.506  13.099  68.283  1.00  0.00    -0.210 C  
ENDBRANCH  20  22
ENDBRANCH  19  20
ENDBRANCH  18  19
ENDBRANCH   3   5
ENDBRANCH   2   3
TORSDOF 5
ENDMDL
MODEL      117
REMARK 921   NORMALIZED FREE ENERGY PREDICTED BY IDOCK:   -3.88 KCAL/MOL
REMARK 922        TOTAL FREE ENERGY PREDICTED BY IDOCK:   -5.75 KCAL/MOL
REMARK 923 INTER-LIGAND FREE ENERGY PREDICTED BY IDOCK:   -5.37 KCAL/MOL
REMARK 924 INTRA-LIGAND FREE ENERGY PREDICTED BY IDOCK:   -0.38 KCAL/MOL
REMARK 927      BINDING AFFINITY PREDICTED BY RF-SCORE:    0.00 PKD
ROOT
HETATM    1  C   UNL     1      -8.233   4.899  74.179  1.00  0.00    -0.100 C  
HETATM    2  C   UNL     1      -9.635   4.841  73.592  1.00  0.00    -0.142 C  
ENDROOT
BRANCH   2   3
HETATM    3  C   UNL     1      -9.670   4.083  72.275  1.00  0.00    -0.156 C  
HETATM    4  O   UNL     1      -9.685   2.858  72.234  1.00  0.00    -0.132 OA 
BRANCH   3   5
HETATM    5  C   UNL     1      -9.708   4.859  70.993  1.00  0.00    -0.252 A  
HETATM    6  C   UNL     1      -9.695   6.270  70.940  1.00  0.00    -0.197 A  
HETATM    7  C   UNL     1      -9.838   6.995  69.726  1.00  0.00    -0.169 A  
HETATM    8  C   UNL     1      -9.939   6.208  68.558  1.00  0.00    -0.147 A  
HETATM    9  S   UNL     1     -10.233   6.862  66.940  1.00  0.00    -0.234 SA 
HETATM   10  C   UNL     1      -9.874   4.800  68.602  1.00  0.00    -0.208 A  
HETATM   11  C   UNL     1     -10.021   8.599  67.198  1.00  0.00    -0.231 A  
HETATM   12  C   UNL     1      -9.776   4.132  69.812  1.00  0.00    -0.278 A  
HETATM   13  C   UNL     1     -10.118   9.381  66.029  1.00  0.00    -0.302 A  
HETATM   14  C   UNL     1      -9.937  10.755  66.073  1.00  0.00    -0.295 A  
HETATM   15  C   UNL     1      -9.549  11.334  67.271  1.00  0.00    -0.188 A  
HETATM   16  C   UNL     1      -9.406  10.541  68.418  1.00  0.00    -0.158 A  
HETATM   17  C   UNL     1      -9.760   9.179  68.456  1.00  0.00    -0.155 A  
HETATM   18  N   UNL     1      -9.864   8.433  69.668  1.00  0.00    -0.181 NA 
BRANCH  18  19
HETATM   19  C   UNL     1      -9.954   9.171  70.982  1.00  0.00    -0.297 C  
BRANCH  19  20
HETATM   20  C   UNL     1     -11.363   9.643  71.507  1.00  0.00    -0.350 C  
HETATM   21  C   UNL     1     -11.987  10.628  70.504  1.00  0.00    -0.446 C  
BRANCH  20  22
HETATM   22  N   UNL     1     -12.313   8.507  71.785  1.00  0.00    -0.319 NA 
HETATM   23  C   UNL     1     -13.681   9.001  72.015  1.00  0.00    -0.461 C  
HETATM   24  C   UNL     1     -11.919   7.709  72.955  1.00  0.00     0.033 C  
ENDBRANCH  20  22
ENDBRANCH  19  20
ENDBRANCH  18  19
ENDBRANCH   3   5
ENDBRANCH   2   3
TORSDOF 5
ENDMDL
MODEL      118
REMARK 921   NORMALIZED FREE ENERGY PREDICTED BY IDOCK:   -3.87 KCAL/MOL
REMARK 922        TOTAL FREE ENERGY PREDICTED BY IDOCK:   -5.73 KCAL/MOL
REMARK 923 INTER-LIGAND FREE ENERGY PREDICTED BY IDOCK:   -4.99 KCAL/MOL
REMARK 924 INTRA-LIGAND FREE ENERGY PREDICTED BY IDOCK:   -0.74 KCAL/MOL
REMARK 927      BINDING AFFINITY PREDICTED BY RF-SCORE:    0.00 PKD
ROOT
HETATM    1  C   UNL     1     -11.243  12.414  65.464  1.00  0.00    -0.364 C  
HETATM    2  C   UNL     1     -10.263  12.018  66.558  1.00  0.00    -0.232 C  
ENDROOT
BRANCH   2   3
HETATM    3  C   UNL     1     -10.788  10.870  67.405  1.00  0.00    -0.279 C  
HETATM    4  O   UNL     1     -11.765  11.000  68.134  1.00  0.00    -0.497 OA 
BRANCH   3   5
HETATM    5  C   UNL     1     -10.102   9.540  67.328  1.00  0.00    -0.272 A  
HETATM    6  C   UNL     1     -10.281   8.520  68.288  1.00  0.00    -0.244 A  
HETATM    7  C   UNL     1      -9.546   7.304  68.264  1.00  0.00    -0.148 A  
HETATM    8  C   UNL     1      -8.657   7.155  67.177  1.00  0.00    -0.121 A  
HETATM    9  S   UNL     1      -7.551   5.787  66.977  1.00  0.00    -0.100 SA 
HETATM   10  C   UNL     1      -8.535   8.140  66.176  1.00  0.00    -0.143 A  
HETATM   11  C   UNL     1      -8.119   4.666  68.220  1.00  0.00    -0.084 A  
HETATM   12  C   UNL     1      -9.240   9.330  66.261  1.00  0.00    -0.236 A  
HETATM   13  C   UNL     1      -7.456   3.422  68.236  1.00  0.00    -0.053 A  
HETATM   14  C   UNL     1      -7.820   2.430  69.132  1.00  0.00    -0.049 A  
HETATM   15  C   UNL     1      -8.924   2.642  69.943  1.00  0.00    -0.163 A  
HETATM   16  C   UNL     1      -9.609   3.863  69.887  1.00  0.00    -0.270 A  
HETATM   17  C   UNL     1      -9.159   4.960  69.126  1.00  0.00    -0.103 A  
HETATM   18  N   UNL     1      -9.696   6.275  69.260  1.00  0.00    -0.136 NA 
BRANCH  18  19
HETATM   19  C   UNL     1     -10.514   6.616  70.481  1.00  0.00    -0.203 C  
BRANCH  19  20
HETATM   20  C   UNL     1      -9.780   6.913  71.844  1.00  0.00    -0.161 C  
HETATM   21  C   UNL     1      -9.367   8.393  71.899  1.00  0.00    -0.313 C  
BRANCH  20  22
HETATM   22  N   UNL     1     -10.596   6.551  73.058  1.00  0.00    -0.235 NA 
HETATM   23  C   UNL     1      -9.876   6.880  74.300  1.00  0.00    -0.277 C  
HETATM   24  C   UNL     1     -10.946   5.124  73.105  1.00  0.00    -0.307 C  
ENDBRANCH  20  22
ENDBRANCH  19  20
ENDBRANCH  18  19
ENDBRANCH   3   5
ENDBRANCH   2   3
TORSDOF 5
ENDMDL
MODEL      119
REMARK 921   NORMALIZED FREE ENERGY PREDICTED BY IDOCK:   -3.87 KCAL/MOL
REMARK 922        TOTAL FREE ENERGY PREDICTED BY IDOCK:   -5.73 KCAL/MOL
REMARK 923 INTER-LIGAND FREE ENERGY PREDICTED BY IDOCK:   -5.24 KCAL/MOL
REMARK 924 INTRA-LIGAND FREE ENERGY PREDICTED BY IDOCK:   -0.49 KCAL/MOL
REMARK 927      BINDING AFFINITY PREDICTED BY RF-SCORE:    0.00 PKD
ROOT
HETATM    1  C   UNL     1      -9.830   3.706  64.819  1.00  0.00    -0.175 C  
HETATM    2  C   UNL     1      -8.801   4.798  64.567  1.00  0.00    -0.147 C  
ENDROOT
BRANCH   2   3
HETATM    3  C   UNL     1      -8.256   5.377  65.862  1.00  0.00    -0.119 C  
HETATM    4  O   UNL     1      -7.363   4.822  66.493  1.00  0.00    -0.079 OA 
BRANCH   3   5
HETATM    5  C   UNL     1      -8.814   6.673  66.368  1.00  0.00    -0.151 A  
HETATM    6  C   UNL     1      -9.528   6.788  67.581  1.00  0.00    -0.126 A  
HETATM    7  C   UNL     1     -10.143   7.999  67.998  1.00  0.00    -0.194 A  
HETATM    8  C   UNL     1      -9.945   9.106  67.144  1.00  0.00    -0.218 A  
HETATM    9  S   UNL     1     -10.694  10.692  67.381  1.00  0.00    -0.287 SA 
HETATM   10  C   UNL     1      -9.167   9.011  65.972  1.00  0.00    -0.284 A  
HETATM   11  C   UNL     1     -11.373  10.543  69.007  1.00  0.00    -0.257 A  
HETATM   12  C   UNL     1      -8.619   7.799  65.580  1.00  0.00    -0.126 A  
HETATM   13  C   UNL     1     -11.972  11.718  69.502  1.00  0.00    -0.364 A  
HETATM   14  C   UNL     1     -12.515  11.760  70.777  1.00  0.00    -0.405 A  
HETATM   15  C   UNL     1     -12.358  10.656  71.600  1.00  0.00    -0.336 A  
HETATM   16  C   UNL     1     -11.716   9.508  71.117  1.00  0.00    -0.438 A  
HETATM   17  C   UNL     1     -11.319   9.360  69.774  1.00  0.00    -0.042 A  
HETATM   18  N   UNL     1     -10.904   8.115  69.215  1.00  0.00    -0.119 NA 
BRANCH  18  19
HETATM   19  C   UNL     1     -11.226   6.835  69.948  1.00  0.00    -0.326 C  
BRANCH  19  20
HETATM   20  C   UNL     1     -10.568   6.565  71.354  1.00  0.00    -0.228 C  
HETATM   21  C   UNL     1     -11.653   6.158  72.365  1.00  0.00    -0.338 C  
BRANCH  20  22
HETATM   22  N   UNL     1      -9.473   5.530  71.317  1.00  0.00    -0.147 NA 
HETATM   23  C   UNL     1      -8.180   6.136  70.958  1.00  0.00    -0.123 C  
HETATM   24  C   UNL     1      -9.744   4.447  70.360  1.00  0.00    -0.214 C  
ENDBRANCH  20  22
ENDBRANCH  19  20
ENDBRANCH  18  19
ENDBRANCH   3   5
ENDBRANCH   2   3
TORSDOF 5
ENDMDL
MODEL      120
REMARK 921   NORMALIZED FREE ENERGY PREDICTED BY IDOCK:   -3.86 KCAL/MOL
REMARK 922        TOTAL FREE ENERGY PREDICTED BY IDOCK:   -5.73 KCAL/MOL
REMARK 923 INTER-LIGAND FREE ENERGY PREDICTED BY IDOCK:   -5.17 KCAL/MOL
REMARK 924 INTRA-LIGAND FREE ENERGY PREDICTED BY IDOCK:   -0.56 KCAL/MOL
REMARK 927      BINDING AFFINITY PREDICTED BY RF-SCORE:    0.00 PKD
ROOT
HETATM    1  C   UNL     1      -9.162   2.582  70.835  1.00  0.00    -0.199 C  
HETATM    2  C   UNL     1      -9.715   3.929  70.395  1.00  0.00    -0.245 C  
ENDROOT
BRANCH   2   3
HETATM    3  C   UNL     1     -10.380   4.674  71.541  1.00  0.00    -0.104 C  
HETATM    4  O   UNL     1     -10.483   4.180  72.659  1.00  0.00    -0.177 OA 
BRANCH   3   5
HETATM    5  C   UNL     1     -10.905   6.057  71.300  1.00  0.00    -0.331 A  
HETATM    6  C   UNL     1     -10.277   6.985  70.441  1.00  0.00    -0.209 A  
HETATM    7  C   UNL     1     -10.723   8.327  70.303  1.00  0.00    -0.235 A  
HETATM    8  C   UNL     1     -11.880   8.661  71.040  1.00  0.00    -0.265 A  
HETATM    9  S   UNL     1     -12.571  10.288  71.124  1.00  0.00    -0.436 SA 
HETATM   10  C   UNL     1     -12.553   7.712  71.836  1.00  0.00    -0.332 A  
HETATM   11  C   UNL     1     -11.667  11.141  69.865  1.00  0.00    -0.355 A  
HETATM   12  C   UNL     1     -12.059   6.425  71.977  1.00  0.00    -0.353 A  
HETATM   13  C   UNL     1     -12.078  12.471  69.648  1.00  0.00    -0.272 A  
HETATM   14  C   UNL     1     -11.485  13.251  68.667  1.00  0.00    -0.339 A  
HETATM   15  C   UNL     1     -10.553  12.661  67.827  1.00  0.00    -0.233 A  
HETATM   16  C   UNL     1     -10.187  11.322  68.017  1.00  0.00    -0.201 A  
HETATM   17  C   UNL     1     -10.627  10.556  69.114  1.00  0.00    -0.229 A  
HETATM   18  N   UNL     1     -10.065   9.291  69.458  1.00  0.00    -0.190 NA 
BRANCH  18  19
HETATM   19  C   UNL     1      -8.730   8.895  68.877  1.00  0.00    -0.136 C  
BRANCH  19  20
HETATM   20  C   UNL     1      -7.435   9.684  69.308  1.00  0.00    -0.085 C  
HETATM   21  C   UNL     1      -6.788   8.996  70.521  1.00  0.00    -0.061 C  
BRANCH  20  22
HETATM   22  N   UNL     1      -6.430   9.843  68.197  1.00  0.00    -0.055 NA 
HETATM   23  C   UNL     1      -7.095  10.114  66.912  1.00  0.00    -0.091 C  
HETATM   24  C   UNL     1      -5.581   8.656  68.023  1.00  0.00    -0.035 C  
ENDBRANCH  20  22
ENDBRANCH  19  20
ENDBRANCH  18  19
ENDBRANCH   3   5
ENDBRANCH   2   3
TORSDOF 5
ENDMDL
MODEL      121
REMARK 921   NORMALIZED FREE ENERGY PREDICTED BY IDOCK:   -3.83 KCAL/MOL
REMARK 922        TOTAL FREE ENERGY PREDICTED BY IDOCK:   -5.68 KCAL/MOL
REMARK 923 INTER-LIGAND FREE ENERGY PREDICTED BY IDOCK:   -5.26 KCAL/MOL
REMARK 924 INTRA-LIGAND FREE ENERGY PREDICTED BY IDOCK:   -0.42 KCAL/MOL
REMARK 927      BINDING AFFINITY PREDICTED BY RF-SCORE:    0.00 PKD
ROOT
HETATM    1  C   UNL     1      -8.462   5.385  69.386  1.00  0.00    -0.099 C  
HETATM    2  C   UNL     1      -9.889   5.011  69.014  1.00  0.00    -0.252 C  
ENDROOT
BRANCH   2   3
HETATM    3  C   UNL     1     -10.264   5.504  67.626  1.00  0.00    -0.193 C  
HETATM    4  O   UNL     1     -10.719   4.748  66.773  1.00  0.00    -0.140 OA 
BRANCH   3   5
HETATM    5  C   UNL     1     -10.090   6.956  67.300  1.00  0.00    -0.256 A  
HETATM    6  C   UNL     1     -10.720   7.993  68.022  1.00  0.00    -0.112 A  
HETATM    7  C   UNL     1     -10.633   9.359  67.639  1.00  0.00    -0.271 A  
HETATM    8  C   UNL     1      -9.823   9.623  66.513  1.00  0.00    -0.235 A  
HETATM    9  S   UNL     1      -9.639  11.219  65.772  1.00  0.00    -0.235 SA 
HETATM   10  C   UNL     1      -9.131   8.596  65.839  1.00  0.00    -0.259 A  
HETATM   11  C   UNL     1     -10.408  12.273  66.966  1.00  0.00    -0.219 A  
HETATM   12  C   UNL     1      -9.277   7.272  66.220  1.00  0.00    -0.175 A  
HETATM   13  C   UNL     1     -10.333  13.649  66.669  1.00  0.00    -0.275 A  
HETATM   14  C   UNL     1     -10.860  14.596  67.533  1.00  0.00    -0.286 A  
HETATM   15  C   UNL     1     -11.367  14.172  68.751  1.00  0.00    -0.308 A  
HETATM   16  C   UNL     1     -11.392  12.805  69.061  1.00  0.00    -0.346 A  
HETATM   17  C   UNL     1     -11.039  11.803  68.136  1.00  0.00    -0.243 A  
HETATM   18  N   UNL     1     -11.304  10.418  68.348  1.00  0.00    -0.262 NA 
BRANCH  18  19
HETATM   19  C   UNL     1     -12.301  10.011  69.405  1.00  0.00     0.605 C  
BRANCH  19  20
HETATM   20  C   UNL     1     -11.784   9.374  70.751  1.00  0.00    -0.282 C  
HETATM   21  C   UNL     1     -10.344   9.838  71.025  1.00  0.00    -0.174 C  
BRANCH  20  22
HETATM   22  N   UNL     1     -12.665   9.674  71.936  1.00  0.00    -0.399 NA 
HETATM   23  C   UNL     1     -13.803   8.741  72.003  1.00  0.00    -0.451 C  
HETATM   24  C   UNL     1     -13.205  11.041  71.914  1.00  0.00    -0.398 C  
ENDBRANCH  20  22
ENDBRANCH  19  20
ENDBRANCH  18  19
ENDBRANCH   3   5
ENDBRANCH   2   3
TORSDOF 5
ENDMDL
MODEL      122
REMARK 921   NORMALIZED FREE ENERGY PREDICTED BY IDOCK:   -3.81 KCAL/MOL
REMARK 922        TOTAL FREE ENERGY PREDICTED BY IDOCK:   -5.65 KCAL/MOL
REMARK 923 INTER-LIGAND FREE ENERGY PREDICTED BY IDOCK:   -5.52 KCAL/MOL
REMARK 924 INTRA-LIGAND FREE ENERGY PREDICTED BY IDOCK:   -0.14 KCAL/MOL
REMARK 927      BINDING AFFINITY PREDICTED BY RF-SCORE:    0.00 PKD
ROOT
HETATM    1  C   UNL     1     -10.342   6.821  66.375  1.00  0.00     0.014 C  
HETATM    2  C   UNL     1      -9.308   7.937  66.413  1.00  0.00    -0.247 C  
ENDROOT
BRANCH   2   3
HETATM    3  C   UNL     1      -9.952   9.312  66.345  1.00  0.00    -0.286 C  
HETATM    4  O   UNL     1      -9.933   9.985  65.320  1.00  0.00    -0.315 OA 
BRANCH   3   5
HETATM    5  C   UNL     1     -10.645   9.850  67.560  1.00  0.00    -0.333 A  
HETATM    6  C   UNL     1     -11.029  11.202  67.699  1.00  0.00    -0.323 A  
HETATM    7  C   UNL     1     -11.589  11.722  68.897  1.00  0.00    -0.309 A  
HETATM    8  C   UNL     1     -11.793  10.781  69.930  1.00  0.00    -0.335 A  
HETATM    9  S   UNL     1     -12.373  11.193  71.550  1.00  0.00    -0.035 SA 
HETATM   10  C   UNL     1     -11.483   9.416  69.764  1.00  0.00     0.006 A  
HETATM   11  C   UNL     1     -12.882  12.875  71.346  1.00  0.00    -0.283 A  
HETATM   12  C   UNL     1     -10.898   8.958  68.593  1.00  0.00    -0.036 A  
HETATM   13  C   UNL     1     -13.479  13.450  72.486  1.00  0.00    -0.640 A  
HETATM   14  C   UNL     1     -13.959  14.750  72.462  1.00  0.00    -0.527 A  
HETATM   15  C   UNL     1     -13.942  15.440  71.260  1.00  0.00    -0.491 A  
HETATM   16  C   UNL     1     -13.392  14.842  70.118  1.00  0.00     0.276 A  
HETATM   17  C   UNL     1     -12.729  13.600  70.146  1.00  0.00    -0.049 A  
HETATM   18  N   UNL     1     -11.948  13.107  69.059  1.00  0.00    -0.308 NA 
BRANCH  18  19
HETATM   19  C   UNL     1     -11.504  14.062  67.978  1.00  0.00    -0.311 C  
BRANCH  19  20
HETATM   20  C   UNL     1     -10.218  14.944  68.207  1.00  0.00    -0.225 C  
HETATM   21  C   UNL     1     -10.537  16.082  69.190  1.00  0.00    -0.260 C  
BRANCH  20  22
HETATM   22  N   UNL     1      -9.027  14.156  68.687  1.00  0.00    -0.169 NA 
HETATM   23  C   UNL     1      -8.076  15.017  69.410  1.00  0.00    -0.155 C  
HETATM   24  C   UNL     1      -8.298  13.499  67.592  1.00  0.00    -0.179 C  
ENDBRANCH  20  22
ENDBRANCH  19  20
ENDBRANCH  18  19
ENDBRANCH   3   5
ENDBRANCH   2   3
TORSDOF 5
ENDMDL
MODEL      123
REMARK 921   NORMALIZED FREE ENERGY PREDICTED BY IDOCK:   -3.81 KCAL/MOL
REMARK 922        TOTAL FREE ENERGY PREDICTED BY IDOCK:   -5.65 KCAL/MOL
REMARK 923 INTER-LIGAND FREE ENERGY PREDICTED BY IDOCK:   -5.12 KCAL/MOL
REMARK 924 INTRA-LIGAND FREE ENERGY PREDICTED BY IDOCK:   -0.54 KCAL/MOL
REMARK 927      BINDING AFFINITY PREDICTED BY RF-SCORE:    0.00 PKD
ROOT
HETATM    1  C   UNL     1      -9.355   2.200  69.954  1.00  0.00    -0.168 C  
HETATM    2  C   UNL     1      -8.952   3.327  70.894  1.00  0.00    -0.166 C  
ENDROOT
BRANCH   2   3
HETATM    3  C   UNL     1      -7.763   4.112  70.364  1.00  0.00    -0.045 C  
HETATM    4  O   UNL     1      -6.611   3.717  70.511  1.00  0.00    -0.031 OA 
BRANCH   3   5
HETATM    5  C   UNL     1      -8.009   5.392  69.626  1.00  0.00    -0.095 A  
HETATM    6  C   UNL     1      -9.059   6.281  69.945  1.00  0.00    -0.145 A  
HETATM    7  C   UNL     1      -9.348   7.438  69.173  1.00  0.00    -0.146 A  
HETATM    8  C   UNL     1      -8.476   7.676  68.088  1.00  0.00    -0.124 A  
HETATM    9  S   UNL     1      -8.684   8.983  66.913  1.00  0.00    -0.124 SA 
HETATM   10  C   UNL     1      -7.380   6.832  67.816  1.00  0.00    -0.096 A  
HETATM   11  C   UNL     1      -9.953   9.959  67.664  1.00  0.00    -0.171 A  
HETATM   12  C   UNL     1      -7.159   5.690  68.569  1.00  0.00    -0.070 A  
HETATM   13  C   UNL     1     -10.272  11.143  66.968  1.00  0.00    -0.251 A  
HETATM   14  C   UNL     1     -11.222  12.025  67.458  1.00  0.00    -0.357 A  
HETATM   15  C   UNL     1     -11.778  11.776  68.703  1.00  0.00    -0.389 A  
HETATM   16  C   UNL     1     -11.418  10.621  69.412  1.00  0.00    -0.356 A  
HETATM   17  C   UNL     1     -10.600   9.612  68.868  1.00  0.00    -0.217 A  
HETATM   18  N   UNL     1     -10.440   8.329  69.470  1.00  0.00    -0.226 NA 
BRANCH  18  19
HETATM   19  C   UNL     1     -11.427   7.878  70.518  1.00  0.00    -0.195 C  
BRANCH  19  20
HETATM   20  C   UNL     1     -11.359   8.502  71.963  1.00  0.00    -0.355 C  
HETATM   21  C   UNL     1     -12.701   9.170  72.304  1.00  0.00    -0.447 C  
BRANCH  20  22
HETATM   22  N   UNL     1     -10.983   7.507  73.031  1.00  0.00    -0.381 NA 
HETATM   23  C   UNL     1      -9.551   7.595  73.361  1.00  0.00    -0.288 C  
HETATM   24  C   UNL     1     -11.271   6.118  72.643  1.00  0.00    -0.274 C  
ENDBRANCH  20  22
ENDBRANCH  19  20
ENDBRANCH  18  19
ENDBRANCH   3   5
ENDBRANCH   2   3
TORSDOF 5
ENDMDL
MODEL      124
REMARK 921   NORMALIZED FREE ENERGY PREDICTED BY IDOCK:   -3.77 KCAL/MOL
REMARK 922        TOTAL FREE ENERGY PREDICTED BY IDOCK:   -5.61 KCAL/MOL
REMARK 923 INTER-LIGAND FREE ENERGY PREDICTED BY IDOCK:   -5.00 KCAL/MOL
REMARK 924 INTRA-LIGAND FREE ENERGY PREDICTED BY IDOCK:   -0.60 KCAL/MOL
REMARK 927      BINDING AFFINITY PREDICTED BY RF-SCORE:    0.00 PKD
ROOT
HETATM    1  C   UNL     1      -5.652   9.057  71.220  1.00  0.00    -0.047 C  
HETATM    2  C   UNL     1      -5.282   9.633  69.861  1.00  0.00    -0.033 C  
ENDROOT
BRANCH   2   3
HETATM    3  C   UNL     1      -6.089  10.878  69.532  1.00  0.00    -0.061 C  
HETATM    4  O   UNL     1      -5.983  11.909  70.187  1.00  0.00    -0.142 OA 
BRANCH   3   5
HETATM    5  C   UNL     1      -7.025  10.848  68.362  1.00  0.00    -0.070 A  
HETATM    6  C   UNL     1      -7.847  11.937  67.998  1.00  0.00    -0.140 A  
HETATM    7  C   UNL     1      -8.807  11.860  66.953  1.00  0.00    -0.197 A  
HETATM    8  C   UNL     1      -8.848  10.633  66.256  1.00  0.00    -0.161 A  
HETATM    9  S   UNL     1     -10.022  10.246  64.990  1.00  0.00    -0.280 SA 
HETATM   10  C   UNL     1      -7.973   9.572  66.568  1.00  0.00    -0.112 A  
HETATM   11  C   UNL     1     -10.774  11.818  64.689  1.00  0.00    -0.310 A  
HETATM   12  C   UNL     1      -7.080   9.674  67.623  1.00  0.00    -0.088 A  
HETATM   13  C   UNL     1     -11.716  11.826  63.641  1.00  0.00    -0.517 A  
HETATM   14  C   UNL     1     -12.359  12.996  63.268  1.00  0.00    -0.392 A  
HETATM   15  C   UNL     1     -11.978  14.184  63.873  1.00  0.00    -0.278 A  
HETATM   16  C   UNL     1     -11.003  14.174  64.880  1.00  0.00    -0.405 A  
HETATM   17  C   UNL     1     -10.464  12.988  65.414  1.00  0.00    -0.296 A  
HETATM   18  N   UNL     1      -9.675  12.954  66.602  1.00  0.00    -0.248 NA 
BRANCH  18  19
HETATM   19  C   UNL     1      -9.694  14.141  67.533  1.00  0.00    -0.234 C  
BRANCH  19  20
HETATM   20  C   UNL     1      -8.810  15.402  67.196  1.00  0.00    -0.213 C  
HETATM   21  C   UNL     1      -9.554  16.683  67.606  1.00  0.00    -0.239 C  
BRANCH  20  22
HETATM   22  N   UNL     1      -7.443  15.364  67.829  1.00  0.00    -0.141 NA 
HETATM   23  C   UNL     1      -7.525  15.582  69.283  1.00  0.00    -0.212 C  
HETATM   24  C   UNL     1      -6.529  16.372  67.273  1.00  0.00    -0.187 C  
ENDBRANCH  20  22
ENDBRANCH  19  20
ENDBRANCH  18  19
ENDBRANCH   3   5
ENDBRANCH   2   3
TORSDOF 5
ENDMDL
MODEL      125
REMARK 921   NORMALIZED FREE ENERGY PREDICTED BY IDOCK:   -3.75 KCAL/MOL
REMARK 922        TOTAL FREE ENERGY PREDICTED BY IDOCK:   -5.58 KCAL/MOL
REMARK 923 INTER-LIGAND FREE ENERGY PREDICTED BY IDOCK:   -5.00 KCAL/MOL
REMARK 924 INTRA-LIGAND FREE ENERGY PREDICTED BY IDOCK:   -0.58 KCAL/MOL
REMARK 927      BINDING AFFINITY PREDICTED BY RF-SCORE:    0.00 PKD
ROOT
HETATM    1  C   UNL     1      -7.575   9.268  70.614  1.00  0.00    -0.161 C  
HETATM    2  C   UNL     1      -6.522  10.354  70.459  1.00  0.00    -0.095 C  
ENDROOT
BRANCH   2   3
HETATM    3  C   UNL     1      -6.780  11.230  69.243  1.00  0.00    -0.110 C  
HETATM    4  O   UNL     1      -7.105  10.753  68.161  1.00  0.00    -0.075 OA 
BRANCH   3   5
HETATM    5  C   UNL     1      -6.654  12.717  69.380  1.00  0.00    -0.067 A  
HETATM    6  C   UNL     1      -7.367  13.632  68.575  1.00  0.00    -0.114 A  
HETATM    7  C   UNL     1      -7.160  15.036  68.641  1.00  0.00    -0.109 A  
HETATM    8  C   UNL     1      -6.230  15.467  69.611  1.00  0.00    -0.156 A  
HETATM    9  S   UNL     1      -5.716  17.148  69.819  1.00  0.00    -0.229 SA 
HETATM   10  C   UNL     1      -5.576  14.559  70.469  1.00  0.00    -0.147 A  
HETATM   11  C   UNL     1      -6.868  18.018  68.797  1.00  0.00    -0.259 A  
HETATM   12  C   UNL     1      -5.775  13.194  70.342  1.00  0.00    -0.170 A  
HETATM   13  C   UNL     1      -6.744  19.421  68.837  1.00  0.00    -0.348 A  
HETATM   14  C   UNL     1      -7.603  20.234  68.115  1.00  0.00    -0.189 A  
HETATM   15  C   UNL     1      -8.659  19.645  67.437  1.00  0.00    -0.353 A  
HETATM   16  C   UNL     1      -8.805  18.252  67.443  1.00  0.00    -0.254 A  
HETATM   17  C   UNL     1      -7.850  17.384  68.008  1.00  0.00    -0.207 A  
HETATM   18  N   UNL     1      -7.856  15.973  67.797  1.00  0.00    -0.136 NA 
BRANCH  18  19
HETATM   19  C   UNL     1      -8.670  15.402  66.662  1.00  0.00    -0.296 C  
BRANCH  19  20
HETATM   20  C   UNL     1     -10.238  15.313  66.805  1.00  0.00    -0.272 C  
HETATM   21  C   UNL     1     -10.906  15.899  65.550  1.00  0.00    -0.325 C  
BRANCH  20  22
HETATM   22  N   UNL     1     -10.740  13.916  67.062  1.00  0.00    -0.282 NA 
HETATM   23  C   UNL     1     -10.071  12.940  66.185  1.00  0.00    -0.276 C  
HETATM   24  C   UNL     1     -12.190  13.785  66.858  1.00  0.00    -0.366 C  
ENDBRANCH  20  22
ENDBRANCH  19  20
ENDBRANCH  18  19
ENDBRANCH   3   5
ENDBRANCH   2   3
TORSDOF 5
ENDMDL
MODEL      126
REMARK 921   NORMALIZED FREE ENERGY PREDICTED BY IDOCK:   -3.74 KCAL/MOL
REMARK 922        TOTAL FREE ENERGY PREDICTED BY IDOCK:   -5.57 KCAL/MOL
REMARK 923 INTER-LIGAND FREE ENERGY PREDICTED BY IDOCK:   -4.74 KCAL/MOL
REMARK 924 INTRA-LIGAND FREE ENERGY PREDICTED BY IDOCK:   -0.83 KCAL/MOL
REMARK 927      BINDING AFFINITY PREDICTED BY RF-SCORE:    0.00 PKD
ROOT
HETATM    1  C   UNL     1      -9.016  10.464  62.805  1.00  0.00    -0.267 C  
HETATM    2  C   UNL     1      -9.766  10.263  64.113  1.00  0.00    -0.357 C  
ENDROOT
BRANCH   2   3
HETATM    3  C   UNL     1      -8.827  10.215  65.307  1.00  0.00    -0.178 C  
HETATM    4  O   UNL     1      -7.619  10.391  65.186  1.00  0.00    -0.144 OA 
BRANCH   3   5
HETATM    5  C   UNL     1      -9.398   9.966  66.670  1.00  0.00    -0.196 A  
HETATM    6  C   UNL     1      -8.802   9.100  67.613  1.00  0.00    -0.123 A  
HETATM    7  C   UNL     1      -9.407   8.789  68.860  1.00  0.00    -0.145 A  
HETATM    8  C   UNL     1     -10.626   9.452  69.125  1.00  0.00    -0.218 A  
HETATM    9  S   UNL     1     -11.629   9.157  70.553  1.00  0.00    -0.141 SA 
HETATM   10  C   UNL     1     -11.181  10.377  68.217  1.00  0.00    -0.330 A  
HETATM   11  C   UNL     1     -10.561   8.170  71.559  1.00  0.00    -0.228 A  
HETATM   12  C   UNL     1     -10.579  10.619  66.992  1.00  0.00    -0.317 A  
HETATM   13  C   UNL     1     -11.082   7.850  72.829  1.00  0.00    -0.462 A  
HETATM   14  C   UNL     1     -10.342   7.112  73.740  1.00  0.00    -0.390 A  
HETATM   15  C   UNL     1      -9.032   6.788  73.421  1.00  0.00    -0.149 A  
HETATM   16  C   UNL     1      -8.504   7.155  72.175  1.00  0.00    -0.118 A  
HETATM   17  C   UNL     1      -9.280   7.739  71.155  1.00  0.00    -0.146 A  
HETATM   18  N   UNL     1      -8.825   7.878  69.811  1.00  0.00    -0.141 NA 
BRANCH  18  19
HETATM   19  C   UNL     1      -7.635   7.072  69.349  1.00  0.00    -0.099 C  
BRANCH  19  20
HETATM   20  C   UNL     1      -7.867   5.650  68.709  1.00  0.00    -0.096 C  
HETATM   21  C   UNL     1      -7.099   4.588  69.514  1.00  0.00    -0.050 C  
BRANCH  20  22
HETATM   22  N   UNL     1      -9.320   5.271  68.595  1.00  0.00    -0.116 NA 
HETATM   23  C   UNL     1      -9.601   4.015  69.310  1.00  0.00    -0.177 C  
HETATM   24  C   UNL     1      -9.759   5.105  67.202  1.00  0.00    -0.157 C  
ENDBRANCH  20  22
ENDBRANCH  19  20
ENDBRANCH  18  19
ENDBRANCH   3   5
ENDBRANCH   2   3
TORSDOF 5
ENDMDL
MODEL      127
REMARK 921   NORMALIZED FREE ENERGY PREDICTED BY IDOCK:   -3.74 KCAL/MOL
REMARK 922        TOTAL FREE ENERGY PREDICTED BY IDOCK:   -5.56 KCAL/MOL
REMARK 923 INTER-LIGAND FREE ENERGY PREDICTED BY IDOCK:   -4.99 KCAL/MOL
REMARK 924 INTRA-LIGAND FREE ENERGY PREDICTED BY IDOCK:   -0.57 KCAL/MOL
REMARK 927      BINDING AFFINITY PREDICTED BY RF-SCORE:    0.00 PKD
ROOT
HETATM    1  C   UNL     1     -10.015   3.952  65.186  1.00  0.00    -0.171 C  
HETATM    2  C   UNL     1      -8.998   4.967  65.685  1.00  0.00    -0.149 C  
ENDROOT
BRANCH   2   3
HETATM    3  C   UNL     1      -9.662   6.144  66.380  1.00  0.00    -0.110 C  
HETATM    4  O   UNL     1     -10.842   6.116  66.713  1.00  0.00    -0.319 OA 
BRANCH   3   5
HETATM    5  C   UNL     1      -8.844   7.362  66.685  1.00  0.00    -0.157 A  
HETATM    6  C   UNL     1      -9.382   8.668  66.719  1.00  0.00    -0.229 A  
HETATM    7  C   UNL     1      -8.578   9.825  66.904  1.00  0.00    -0.124 A  
HETATM    8  C   UNL     1      -7.203   9.582  67.110  1.00  0.00    -0.087 A  
HETATM    9  S   UNL     1      -5.978  10.852  67.255  1.00  0.00    -0.059 SA 
HETATM   10  C   UNL     1      -6.677   8.274  67.153  1.00  0.00    -0.063 A  
HETATM   11  C   UNL     1      -6.970  12.308  67.401  1.00  0.00    -0.151 A  
HETATM   12  C   UNL     1      -7.490   7.175  66.926  1.00  0.00    -0.100 A  
HETATM   13  C   UNL     1      -6.242  13.495  67.620  1.00  0.00    -0.139 A  
HETATM   14  C   UNL     1      -6.888  14.709  67.790  1.00  0.00    -0.193 A  
HETATM   15  C   UNL     1      -8.273  14.719  67.852  1.00  0.00    -0.154 A  
HETATM   16  C   UNL     1      -8.990  13.526  67.685  1.00  0.00    -0.200 A  
HETATM   17  C   UNL     1      -8.379  12.309  67.325  1.00  0.00    -0.182 A  
HETATM   18  N   UNL     1      -9.114  11.162  66.903  1.00  0.00    -0.156 NA 
BRANCH  18  19
HETATM   19  C   UNL     1     -10.551  11.325  66.474  1.00  0.00    -0.266 C  
BRANCH  19  20
HETATM   20  C   UNL     1     -10.883  12.177  65.190  1.00  0.00    -0.300 C  
HETATM   21  C   UNL     1     -10.176  11.569  63.968  1.00  0.00    -0.394 C  
BRANCH  20  22
HETATM   22  N   UNL     1     -12.359  12.317  64.926  1.00  0.00    -0.477 NA 
HETATM   23  C   UNL     1     -12.676  12.036  63.516  1.00  0.00    -0.443 C  
HETATM   24  C   UNL     1     -12.871  13.658  65.244  1.00  0.00    -0.369 C  
ENDBRANCH  20  22
ENDBRANCH  19  20
ENDBRANCH  18  19
ENDBRANCH   3   5
ENDBRANCH   2   3
TORSDOF 5
ENDMDL
MODEL      128
REMARK 921   NORMALIZED FREE ENERGY PREDICTED BY IDOCK:   -3.72 KCAL/MOL
REMARK 922        TOTAL FREE ENERGY PREDICTED BY IDOCK:   -5.55 KCAL/MOL
REMARK 923 INTER-LIGAND FREE ENERGY PREDICTED BY IDOCK:   -4.90 KCAL/MOL
REMARK 924 INTRA-LIGAND FREE ENERGY PREDICTED BY IDOCK:   -0.64 KCAL/MOL
REMARK 927      BINDING AFFINITY PREDICTED BY RF-SCORE:    0.00 PKD
ROOT
HETATM    1  C   UNL     1     -11.938   1.711  73.493  1.00  0.00    -0.268 C  
HETATM    2  C   UNL     1     -10.615   1.857  72.756  1.00  0.00    -0.235 C  
ENDROOT
BRANCH   2   3
HETATM    3  C   UNL     1      -9.783   3.006  73.303  1.00  0.00    -0.103 C  
HETATM    4  O   UNL     1      -8.864   2.819  74.093  1.00  0.00    -0.074 OA 
BRANCH   3   5
HETATM    5  C   UNL     1     -10.083   4.401  72.845  1.00  0.00    -0.214 A  
HETATM    6  C   UNL     1      -9.937   4.825  71.506  1.00  0.00    -0.263 A  
HETATM    7  C   UNL     1     -10.122   6.175  71.103  1.00  0.00    -0.190 A  
HETATM    8  C   UNL     1     -10.520   7.064  72.125  1.00  0.00    -0.209 A  
HETATM    9  S   UNL     1     -10.710   8.810  71.907  1.00  0.00    -0.358 SA 
HETATM   10  C   UNL     1     -10.742   6.625  73.447  1.00  0.00    -0.315 A  
HETATM   11  C   UNL     1     -10.604   8.978  70.150  1.00  0.00    -0.224 A  
HETATM   12  C   UNL     1     -10.509   5.307  73.806  1.00  0.00    -0.304 A  
HETATM   13  C   UNL     1     -10.810  10.288  69.673  1.00  0.00    -0.311 A  
HETATM   14  C   UNL     1     -10.793  10.565  68.314  1.00  0.00    -0.293 A  
HETATM   15  C   UNL     1     -10.678   9.508  67.425  1.00  0.00    -0.297 A  
HETATM   16  C   UNL     1     -10.524   8.201  67.907  1.00  0.00    -0.259 A  
HETATM   17  C   UNL     1     -10.351   7.903  69.273  1.00  0.00    -0.220 A  
HETATM   18  N   UNL     1      -9.938   6.622  69.746  1.00  0.00    -0.171 NA 
BRANCH  18  19
HETATM   19  C   UNL     1      -9.319   5.644  68.779  1.00  0.00    -0.123 C  
BRANCH  19  20
HETATM   20  C   UNL     1      -7.952   6.006  68.083  1.00  0.00    -0.110 C  
HETATM   21  C   UNL     1      -6.823   6.006  69.126  1.00  0.00    -0.062 C  
BRANCH  20  22
HETATM   22  N   UNL     1      -7.603   5.097  66.933  1.00  0.00    -0.087 NA 
HETATM   23  C   UNL     1      -8.246   5.544  65.686  1.00  0.00    -0.127 C  
HETATM   24  C   UNL     1      -8.000   3.701  67.169  1.00  0.00    -0.087 C  
ENDBRANCH  20  22
ENDBRANCH  19  20
ENDBRANCH  18  19
ENDBRANCH   3   5
ENDBRANCH   2   3
TORSDOF 5
ENDMDL
MODEL      129
REMARK 921   NORMALIZED FREE ENERGY PREDICTED BY IDOCK:   -3.67 KCAL/MOL
REMARK 922        TOTAL FREE ENERGY PREDICTED BY IDOCK:   -5.47 KCAL/MOL
REMARK 923 INTER-LIGAND FREE ENERGY PREDICTED BY IDOCK:   -4.74 KCAL/MOL
REMARK 924 INTRA-LIGAND FREE ENERGY PREDICTED BY IDOCK:   -0.74 KCAL/MOL
REMARK 927      BINDING AFFINITY PREDICTED BY RF-SCORE:    0.00 PKD
ROOT
HETATM    1  C   UNL     1     -10.241  11.090  63.643  1.00  0.00    -0.431 C  
HETATM    2  C   UNL     1      -9.990  10.358  64.953  1.00  0.00    -0.409 C  
ENDROOT
BRANCH   2   3
HETATM    3  C   UNL     1      -8.586   9.780  65.023  1.00  0.00    -0.162 C  
HETATM    4  O   UNL     1      -7.694  10.159  64.272  1.00  0.00    -0.143 OA 
BRANCH   3   5
HETATM    5  C   UNL     1      -8.283   8.734  66.052  1.00  0.00    -0.118 A  
HETATM    6  C   UNL     1      -9.175   8.386  67.090  1.00  0.00    -0.174 A  
HETATM    7  C   UNL     1      -8.834   7.470  68.121  1.00  0.00    -0.127 A  
HETATM    8  C   UNL     1      -7.556   6.880  68.011  1.00  0.00    -0.108 A  
HETATM    9  S   UNL     1      -6.853   5.794  69.219  1.00  0.00    -0.064 SA 
HETATM   10  C   UNL     1      -6.696   7.168  66.931  1.00  0.00    -0.060 A  
HETATM   11  C   UNL     1      -8.237   5.463  70.269  1.00  0.00    -0.101 A  
HETATM   12  C   UNL     1      -7.051   8.100  65.969  1.00  0.00    -0.061 A  
HETATM   13  C   UNL     1      -7.982   4.535  71.299  1.00  0.00    -0.086 A  
HETATM   14  C   UNL     1      -8.983   4.150  72.177  1.00  0.00    -0.143 A  
HETATM   15  C   UNL     1     -10.271   4.612  71.957  1.00  0.00    -0.258 A  
HETATM   16  C   UNL     1     -10.526   5.496  70.899  1.00  0.00    -0.319 A  
HETATM   17  C   UNL     1      -9.507   6.053  70.103  1.00  0.00    -0.158 A  
HETATM   18  N   UNL     1      -9.724   7.139  69.204  1.00  0.00    -0.157 NA 
BRANCH  18  19
HETATM   19  C   UNL     1     -10.975   7.971  69.342  1.00  0.00    -0.009 C  
BRANCH  19  20
HETATM   20  C   UNL     1     -11.001   9.162  70.374  1.00  0.00    -0.248 C  
HETATM   21  C   UNL     1     -11.018  10.502  69.619  1.00  0.00    -0.333 C  
BRANCH  20  22
HETATM   22  N   UNL     1     -12.151   9.093  71.345  1.00  0.00    -0.318 NA 
HETATM   23  C   UNL     1     -12.668  10.437  71.654  1.00  0.00    -0.455 C  
HETATM   24  C   UNL     1     -11.788   8.446  72.614  1.00  0.00    -0.290 C  
ENDBRANCH  20  22
ENDBRANCH  19  20
ENDBRANCH  18  19
ENDBRANCH   3   5
ENDBRANCH   2   3
TORSDOF 5
ENDMDL
MODEL      130
REMARK 921   NORMALIZED FREE ENERGY PREDICTED BY IDOCK:   -3.58 KCAL/MOL
REMARK 922        TOTAL FREE ENERGY PREDICTED BY IDOCK:   -5.36 KCAL/MOL
REMARK 923 INTER-LIGAND FREE ENERGY PREDICTED BY IDOCK:   -5.41 KCAL/MOL
REMARK 924 INTRA-LIGAND FREE ENERGY PREDICTED BY IDOCK:    0.05 KCAL/MOL
REMARK 927      BINDING AFFINITY PREDICTED BY RF-SCORE:    0.00 PKD
ROOT
HETATM    1  C   UNL     1     -10.677  17.809  67.839  1.00  0.00    -0.327 C  
HETATM    2  C   UNL     1     -10.260  16.492  68.476  1.00  0.00    -0.266 C  
ENDROOT
BRANCH   2   3
HETATM    3  C   UNL     1     -11.264  15.384  68.201  1.00  0.00    -0.325 C  
HETATM    4  O   UNL     1     -12.292  15.265  68.860  1.00  0.00    -0.141 OA 
BRANCH   3   5
HETATM    5  C   UNL     1     -10.997  14.424  67.082  1.00  0.00    -0.305 A  
HETATM    6  C   UNL     1     -10.291  13.212  67.252  1.00  0.00    -0.243 A  
HETATM    7  C   UNL     1      -9.952  12.362  66.165  1.00  0.00    -0.253 A  
HETATM    8  C   UNL     1     -10.417  12.780  64.899  1.00  0.00    -0.321 A  
HETATM    9  S   UNL     1     -10.038  11.959  63.378  1.00  0.00    -0.381 SA 
HETATM   10  C   UNL     1     -11.189  13.950  64.740  1.00  0.00    -0.369 A  
HETATM   11  C   UNL     1      -9.295  10.457  63.943  1.00  0.00    -0.279 A  
HETATM   12  C   UNL     1     -11.462  14.773  65.822  1.00  0.00    -0.322 A  
HETATM   13  C   UNL     1      -8.960   9.548  62.919  1.00  0.00    -0.230 A  
HETATM   14  C   UNL     1      -8.404   8.313  63.215  1.00  0.00    -0.041 A  
HETATM   15  C   UNL     1      -8.284   7.942  64.545  1.00  0.00    -0.073 A  
HETATM   16  C   UNL     1      -8.667   8.833  65.558  1.00  0.00    -0.217 A  
HETATM   17  C   UNL     1      -9.060  10.161  65.301  1.00  0.00    -0.195 A  
HETATM   18  N   UNL     1      -9.200  11.144  66.325  1.00  0.00    -0.188 NA 
BRANCH  18  19
HETATM   19  C   UNL     1      -8.578  10.895  67.677  1.00  0.00    -0.124 C  
BRANCH  19  20
HETATM   20  C   UNL     1      -8.613   9.441  68.286  1.00  0.00    -0.120 C  
HETATM   21  C   UNL     1      -7.461   9.273  69.291  1.00  0.00    -0.075 C  
BRANCH  20  22
HETATM   22  N   UNL     1      -9.928   9.092  68.934  1.00  0.00    -0.175 NA 
HETATM   23  C   UNL     1     -10.388  10.174  69.821  1.00  0.00    -0.259 C  
HETATM   24  C   UNL     1      -9.862   7.856  69.727  1.00  0.00    -0.179 C  
ENDBRANCH  20  22
ENDBRANCH  19  20
ENDBRANCH  18  19
ENDBRANCH   3   5
ENDBRANCH   2   3
TORSDOF 5
ENDMDL
MODEL      131
REMARK 921   NORMALIZED FREE ENERGY PREDICTED BY IDOCK:   -3.57 KCAL/MOL
REMARK 922        TOTAL FREE ENERGY PREDICTED BY IDOCK:   -5.35 KCAL/MOL
REMARK 923 INTER-LIGAND FREE ENERGY PREDICTED BY IDOCK:   -5.25 KCAL/MOL
REMARK 924 INTRA-LIGAND FREE ENERGY PREDICTED BY IDOCK:   -0.10 KCAL/MOL
REMARK 927      BINDING AFFINITY PREDICTED BY RF-SCORE:    0.00 PKD
ROOT
HETATM    1  C   UNL     1     -12.157  13.161  63.642  1.00  0.00    -0.583 C  
HETATM    2  C   UNL     1     -11.038  12.135  63.737  1.00  0.00    -0.505 C  
ENDROOT
BRANCH   2   3
HETATM    3  C   UNL     1     -10.974  11.489  65.111  1.00  0.00    -0.234 C  
HETATM    4  O   UNL     1     -11.710  11.841  66.027  1.00  0.00    -0.433 OA 
BRANCH   3   5
HETATM    5  C   UNL     1      -9.996  10.377  65.345  1.00  0.00    -0.362 A  
HETATM    6  C   UNL     1      -9.708   9.854  66.625  1.00  0.00    -0.252 A  
HETATM    7  C   UNL     1      -8.704   8.874  66.847  1.00  0.00    -0.119 A  
HETATM    8  C   UNL     1      -8.044   8.409  65.688  1.00  0.00    -0.125 A  
HETATM    9  S   UNL     1      -6.686   7.275  65.704  1.00  0.00    -0.053 SA 
HETATM   10  C   UNL     1      -8.386   8.873  64.401  1.00  0.00    -0.176 A  
HETATM   11  C   UNL     1      -6.681   6.725  67.385  1.00  0.00    -0.067 A  
HETATM   12  C   UNL     1      -9.343   9.861  64.234  1.00  0.00    -0.313 A  
HETATM   13  C   UNL     1      -5.730   5.726  67.673  1.00  0.00    -0.013 A  
HETATM   14  C   UNL     1      -5.636   5.174  68.941  1.00  0.00    -0.011 A  
HETATM   15  C   UNL     1      -6.570   5.544  69.896  1.00  0.00    -0.046 A  
HETATM   16  C   UNL     1      -7.546   6.501  69.586  1.00  0.00    -0.098 A  
HETATM   17  C   UNL     1      -7.558   7.218  68.374  1.00  0.00    -0.118 A  
HETATM   18  N   UNL     1      -8.378   8.364  68.154  1.00  0.00    -0.127 NA 
BRANCH  18  19
HETATM   19  C   UNL     1      -8.993   9.069  69.338  1.00  0.00    -0.145 C  
BRANCH  19  20
HETATM   20  C   UNL     1      -9.715   8.220  70.453  1.00  0.00    -0.168 C  
HETATM   21  C   UNL     1      -9.643   8.962  71.797  1.00  0.00    -0.353 C  
BRANCH  20  22
HETATM   22  N   UNL     1     -11.144   7.879  70.118  1.00  0.00    -0.238 NA 
HETATM   23  C   UNL     1     -12.042   8.190  71.242  1.00  0.00    -0.288 C  
HETATM   24  C   UNL     1     -11.326   6.462  69.774  1.00  0.00    -0.427 C  
ENDBRANCH  20  22
ENDBRANCH  19  20
ENDBRANCH  18  19
ENDBRANCH   3   5
ENDBRANCH   2   3
TORSDOF 5
ENDMDL
MODEL      132
REMARK 921   NORMALIZED FREE ENERGY PREDICTED BY IDOCK:   -3.54 KCAL/MOL
REMARK 922        TOTAL FREE ENERGY PREDICTED BY IDOCK:   -5.31 KCAL/MOL
REMARK 923 INTER-LIGAND FREE ENERGY PREDICTED BY IDOCK:   -4.63 KCAL/MOL
REMARK 924 INTRA-LIGAND FREE ENERGY PREDICTED BY IDOCK:   -0.68 KCAL/MOL
REMARK 927      BINDING AFFINITY PREDICTED BY RF-SCORE:    0.00 PKD
ROOT
HETATM    1  C   UNL     1     -11.991  14.535  64.404  1.00  0.00    -0.467 C  
HETATM    2  C   UNL     1     -11.902  13.085  63.950  1.00  0.00    -0.542 C  
ENDROOT
BRANCH   2   3
HETATM    3  C   UNL     1     -10.562  12.460  64.301  1.00  0.00    -0.363 C  
HETATM    4  O   UNL     1      -9.590  12.556  63.559  1.00  0.00    -0.171 OA 
BRANCH   3   5
HETATM    5  C   UNL     1     -10.422  11.722  65.598  1.00  0.00    -0.308 A  
HETATM    6  C   UNL     1      -9.406  10.774  65.845  1.00  0.00    -0.220 A  
HETATM    7  C   UNL     1      -9.346  10.004  67.038  1.00  0.00    -0.154 A  
HETATM    8  C   UNL     1     -10.344  10.290  67.995  1.00  0.00    -0.181 A  
HETATM    9  S   UNL     1     -10.554   9.401  69.510  1.00  0.00    -0.225 SA 
HETATM   10  C   UNL     1     -11.312  11.293  67.782  1.00  0.00    -0.354 A  
HETATM   11  C   UNL     1      -9.082   8.422  69.573  1.00  0.00    -0.153 A  
HETATM   12  C   UNL     1     -11.360  11.991  66.586  1.00  0.00    -0.399 A  
HETATM   13  C   UNL     1      -8.938   7.654  70.746  1.00  0.00    -0.149 A  
HETATM   14  C   UNL     1      -7.816   6.866  70.950  1.00  0.00    -0.097 A  
HETATM   15  C   UNL     1      -6.784   6.931  70.027  1.00  0.00    -0.052 A  
HETATM   16  C   UNL     1      -6.914   7.736  68.887  1.00  0.00    -0.066 A  
HETATM   17  C   UNL     1      -8.108   8.404  68.553  1.00  0.00    -0.123 A  
HETATM   18  N   UNL     1      -8.335   9.008  67.280  1.00  0.00    -0.111 NA 
BRANCH  18  19
HETATM   19  C   UNL     1      -7.445   8.637  66.120  1.00  0.00    -0.086 C  
BRANCH  19  20
HETATM   20  C   UNL     1      -7.786   7.359  65.262  1.00  0.00    -0.121 C  
HETATM   21  C   UNL     1      -7.754   7.716  63.766  1.00  0.00    -0.126 C  
BRANCH  20  22
HETATM   22  N   UNL     1      -6.881   6.188  65.541  1.00  0.00    -0.051 NA 
HETATM   23  C   UNL     1      -6.359   5.610  64.291  1.00  0.00    -0.029 C  
HETATM   24  C   UNL     1      -7.550   5.115  66.289  1.00  0.00    -0.088 C  
ENDBRANCH  20  22
ENDBRANCH  19  20
ENDBRANCH  18  19
ENDBRANCH   3   5
ENDBRANCH   2   3
TORSDOF 5
ENDMDL
MODEL      133
REMARK 921   NORMALIZED FREE ENERGY PREDICTED BY IDOCK:   -3.51 KCAL/MOL
REMARK 922        TOTAL FREE ENERGY PREDICTED BY IDOCK:   -5.28 KCAL/MOL
REMARK 923 INTER-LIGAND FREE ENERGY PREDICTED BY IDOCK:   -4.67 KCAL/MOL
REMARK 924 INTRA-LIGAND FREE ENERGY PREDICTED BY IDOCK:   -0.61 KCAL/MOL
REMARK 927      BINDING AFFINITY PREDICTED BY RF-SCORE:    0.00 PKD
ROOT
HETATM    1  C   UNL     1      -8.982   8.869  65.589  1.00  0.00    -0.249 C  
HETATM    2  C   UNL     1     -10.110   9.767  66.075  1.00  0.00    -0.322 C  
ENDROOT
BRANCH   2   3
HETATM    3  C   UNL     1      -9.729  10.528  67.335  1.00  0.00    -0.164 C  
HETATM    4  O   UNL     1      -9.750  11.753  67.382  1.00  0.00    -0.177 OA 
BRANCH   3   5
HETATM    5  C   UNL     1      -9.338   9.755  68.559  1.00  0.00    -0.142 A  
HETATM    6  C   UNL     1     -10.138   8.735  69.119  1.00  0.00    -0.203 A  
HETATM    7  C   UNL     1      -9.809   8.083  70.338  1.00  0.00    -0.183 A  
HETATM    8  C   UNL     1      -8.591   8.483  70.930  1.00  0.00    -0.158 A  
HETATM    9  S   UNL     1      -8.010   7.905  72.499  1.00  0.00    -0.130 SA 
HETATM   10  C   UNL     1      -7.754   9.446  70.330  1.00  0.00    -0.163 A  
HETATM   11  C   UNL     1      -9.129   6.579  72.843  1.00  0.00    -0.128 A  
HETATM   12  C   UNL     1      -8.134  10.088  69.162  1.00  0.00    -0.126 A  
HETATM   13  C   UNL     1      -8.845   5.863  74.023  1.00  0.00    -0.123 A  
HETATM   14  C   UNL     1      -9.615   4.774  74.401  1.00  0.00    -0.150 A  
HETATM   15  C   UNL     1     -10.606   4.333  73.538  1.00  0.00    -0.291 A  
HETATM   16  C   UNL     1     -10.850   5.020  72.342  1.00  0.00    -0.234 A  
HETATM   17  C   UNL     1     -10.216   6.234  72.013  1.00  0.00    -0.189 A  
HETATM   18  N   UNL     1     -10.638   7.068  70.935  1.00  0.00    -0.215 NA 
BRANCH  18  19
HETATM   19  C   UNL     1     -12.007   6.860  70.336  1.00  0.00    -0.258 C  
BRANCH  19  20
HETATM   20  C   UNL     1     -13.190   7.811  70.763  1.00  0.00     0.317 C  
HETATM   21  C   UNL     1     -14.208   7.025  71.606  1.00  0.00    -0.433 C  
BRANCH  20  22
HETATM   22  N   UNL     1     -12.735   9.041  71.504  1.00  0.00    -0.328 NA 
HETATM   23  C   UNL     1     -13.577   9.292  72.685  1.00  0.00    -0.318 C  
HETATM   24  C   UNL     1     -12.757  10.250  70.669  1.00  0.00    -0.300 C  
ENDBRANCH  20  22
ENDBRANCH  19  20
ENDBRANCH  18  19
ENDBRANCH   3   5
ENDBRANCH   2   3
TORSDOF 5
ENDMDL
MODEL      134
REMARK 921   NORMALIZED FREE ENERGY PREDICTED BY IDOCK:   -3.51 KCAL/MOL
REMARK 922        TOTAL FREE ENERGY PREDICTED BY IDOCK:   -5.27 KCAL/MOL
REMARK 923 INTER-LIGAND FREE ENERGY PREDICTED BY IDOCK:   -4.75 KCAL/MOL
REMARK 924 INTRA-LIGAND FREE ENERGY PREDICTED BY IDOCK:   -0.52 KCAL/MOL
REMARK 927      BINDING AFFINITY PREDICTED BY RF-SCORE:    0.00 PKD
ROOT
HETATM    1  C   UNL     1      -7.839   7.643  72.665  1.00  0.00    -0.123 C  
HETATM    2  C   UNL     1      -7.139   7.784  71.321  1.00  0.00    -0.057 C  
ENDROOT
BRANCH   2   3
HETATM    3  C   UNL     1      -7.081   9.230  70.858  1.00  0.00    -0.103 C  
HETATM    4  O   UNL     1      -6.137   9.961  71.141  1.00  0.00    -0.172 OA 
BRANCH   3   5
HETATM    5  C   UNL     1      -8.198   9.768  70.017  1.00  0.00    -0.207 A  
HETATM    6  C   UNL     1      -8.026  10.804  69.072  1.00  0.00    -0.137 A  
HETATM    7  C   UNL     1      -9.111  11.379  68.357  1.00  0.00    -0.179 A  
HETATM    8  C   UNL     1     -10.376  10.805  68.610  1.00  0.00    -0.192 A  
HETATM    9  S   UNL     1     -11.896  11.408  67.932  1.00  0.00    -0.063 SA 
HETATM   10  C   UNL     1     -10.536   9.719  69.494  1.00  0.00    -0.253 A  
HETATM   11  C   UNL     1     -11.329  12.568  66.724  1.00  0.00    -0.334 A  
HETATM   12  C   UNL     1      -9.457   9.216  70.204  1.00  0.00    -0.235 A  
HETATM   13  C   UNL     1     -12.350  13.156  65.950  1.00  0.00    -0.462 A  
HETATM   14  C   UNL     1     -12.052  14.057  64.940  1.00  0.00    -0.435 A  
HETATM   15  C   UNL     1     -10.720  14.287  64.629  1.00  0.00    -0.384 A  
HETATM   16  C   UNL     1      -9.710  13.659  65.370  1.00  0.00    -0.055 A  
HETATM   17  C   UNL     1      -9.970  12.886  66.518  1.00  0.00    -0.259 A  
HETATM   18  N   UNL     1      -8.950  12.461  67.420  1.00  0.00    -0.177 NA 
BRANCH  18  19
HETATM   19  C   UNL     1      -7.599  13.133  67.375  1.00  0.00    -0.131 C  
BRANCH  19  20
HETATM   20  C   UNL     1      -7.340  14.406  68.267  1.00  0.00    -0.122 C  
HETATM   21  C   UNL     1      -6.069  15.127  67.787  1.00  0.00    -0.164 C  
BRANCH  20  22
HETATM   22  N   UNL     1      -8.503  15.363  68.302  1.00  0.00    -0.156 NA 
HETATM   23  C   UNL     1      -8.081  16.728  67.945  1.00  0.00    -0.185 C  
HETATM   24  C   UNL     1      -9.153  15.423  69.620  1.00  0.00    -0.170 C  
ENDBRANCH  20  22
ENDBRANCH  19  20
ENDBRANCH  18  19
ENDBRANCH   3   5
ENDBRANCH   2   3
TORSDOF 5
ENDMDL
MODEL      135
REMARK 921   NORMALIZED FREE ENERGY PREDICTED BY IDOCK:   -3.48 KCAL/MOL
REMARK 922        TOTAL FREE ENERGY PREDICTED BY IDOCK:   -5.23 KCAL/MOL
REMARK 923 INTER-LIGAND FREE ENERGY PREDICTED BY IDOCK:   -4.86 KCAL/MOL
REMARK 924 INTRA-LIGAND FREE ENERGY PREDICTED BY IDOCK:   -0.37 KCAL/MOL
REMARK 927      BINDING AFFINITY PREDICTED BY RF-SCORE:    0.00 PKD
ROOT
HETATM    1  C   UNL     1     -11.035   6.427  67.900  1.00  0.00    -0.416 C  
HETATM    2  C   UNL     1     -10.447   7.690  68.511  1.00  0.00    -0.206 C  
ENDROOT
BRANCH   2   3
HETATM    3  C   UNL     1      -9.864   8.616  67.455  1.00  0.00    -0.192 C  
HETATM    4  O   UNL     1     -10.016   8.405  66.256  1.00  0.00    -0.245 OA 
BRANCH   3   5
HETATM    5  C   UNL     1      -9.101   9.828  67.894  1.00  0.00    -0.126 A  
HETATM    6  C   UNL     1      -9.339  11.122  67.380  1.00  0.00    -0.172 A  
HETATM    7  C   UNL     1      -8.540  12.245  67.725  1.00  0.00    -0.170 A  
HETATM    8  C   UNL     1      -7.518  11.995  68.667  1.00  0.00    -0.113 A  
HETATM    9  S   UNL     1      -6.322  13.195  69.178  1.00  0.00    -0.108 SA 
HETATM   10  C   UNL     1      -7.330  10.721  69.240  1.00  0.00    -0.129 A  
HETATM   11  C   UNL     1      -6.973  14.687  68.487  1.00  0.00    -0.110 A  
HETATM   12  C   UNL     1      -8.106   9.643  68.844  1.00  0.00    -0.098 A  
HETATM   13  C   UNL     1      -6.249  15.851  68.815  1.00  0.00    -0.109 A  
HETATM   14  C   UNL     1      -6.663  17.098  68.374  1.00  0.00    -0.170 A  
HETATM   15  C   UNL     1      -7.868  17.193  67.695  1.00  0.00    -0.187 A  
HETATM   16  C   UNL     1      -8.608  16.036  67.416  1.00  0.00    -0.194 A  
HETATM   17  C   UNL     1      -8.131  14.739  67.683  1.00  0.00    -0.170 A  
HETATM   18  N   UNL     1      -8.752  13.559  67.176  1.00  0.00    -0.219 NA 
BRANCH  18  19
HETATM   19  C   UNL     1      -9.730  13.675  66.033  1.00  0.00    -0.222 C  
BRANCH  19  20
HETATM   20  C   UNL     1     -11.040  14.531  66.221  1.00  0.00    -0.332 C  
HETATM   21  C   UNL     1     -11.328  15.327  64.937  1.00  0.00    -0.387 C  
BRANCH  20  22
HETATM   22  N   UNL     1     -12.243  13.711  66.610  1.00  0.00    -0.410 NA 
HETATM   23  C   UNL     1     -12.161  13.279  68.015  1.00  0.00    -0.221 C  
HETATM   24  C   UNL     1     -12.409  12.511  65.778  1.00  0.00    -0.153 C  
ENDBRANCH  20  22
ENDBRANCH  19  20
ENDBRANCH  18  19
ENDBRANCH   3   5
ENDBRANCH   2   3
TORSDOF 5
ENDMDL
MODEL      136
REMARK 921   NORMALIZED FREE ENERGY PREDICTED BY IDOCK:   -3.47 KCAL/MOL
REMARK 922        TOTAL FREE ENERGY PREDICTED BY IDOCK:   -5.22 KCAL/MOL
REMARK 923 INTER-LIGAND FREE ENERGY PREDICTED BY IDOCK:   -4.53 KCAL/MOL
REMARK 924 INTRA-LIGAND FREE ENERGY PREDICTED BY IDOCK:   -0.69 KCAL/MOL
REMARK 927      BINDING AFFINITY PREDICTED BY RF-SCORE:    0.00 PKD
ROOT
HETATM    1  C   UNL     1      -7.608   3.255  64.593  1.00  0.00    -0.077 C  
HETATM    2  C   UNL     1      -6.641   4.413  64.394  1.00  0.00    -0.043 C  
ENDROOT
BRANCH   2   3
HETATM    3  C   UNL     1      -6.614   5.344  65.595  1.00  0.00    -0.041 C  
HETATM    4  O   UNL     1      -6.001   5.061  66.619  1.00  0.00    -0.021 OA 
BRANCH   3   5
HETATM    5  C   UNL     1      -7.339   6.653  65.515  1.00  0.00    -0.076 A  
HETATM    6  C   UNL     1      -7.943   7.274  66.630  1.00  0.00    -0.114 A  
HETATM    7  C   UNL     1      -8.718   8.460  66.523  1.00  0.00    -0.134 A  
HETATM    8  C   UNL     1      -8.801   9.016  65.228  1.00  0.00    -0.193 A  
HETATM    9  S   UNL     1      -9.791  10.423  64.810  1.00  0.00    -0.342 SA 
HETATM   10  C   UNL     1      -8.134   8.439  64.128  1.00  0.00    -0.145 A  
HETATM   11  C   UNL     1     -10.273  11.023  66.402  1.00  0.00    -0.236 A  
HETATM   12  C   UNL     1      -7.423   7.258  64.268  1.00  0.00    -0.101 A  
HETATM   13  C   UNL     1     -11.020  12.218  66.377  1.00  0.00    -0.326 A  
HETATM   14  C   UNL     1     -11.436  12.825  67.551  1.00  0.00    -0.390 A  
HETATM   15  C   UNL     1     -11.009  12.294  68.758  1.00  0.00    -0.277 A  
HETATM   16  C   UNL     1     -10.224  11.133  68.774  1.00  0.00    -0.219 A  
HETATM   17  C   UNL     1      -9.939  10.386  67.615  1.00  0.00    -0.174 A  
HETATM   18  N   UNL     1      -9.367   9.079  67.650  1.00  0.00    -0.135 NA 
BRANCH  18  19
HETATM   19  C   UNL     1      -9.387   8.301  68.943  1.00  0.00    -0.147 C  
BRANCH  19  20
HETATM   20  C   UNL     1     -10.671   7.472  69.326  1.00  0.00    -0.176 C  
HETATM   21  C   UNL     1     -10.719   6.178  68.497  1.00  0.00    -0.365 C  
BRANCH  20  22
HETATM   22  N   UNL     1     -10.766   7.156  70.796  1.00  0.00    -0.227 NA 
HETATM   23  C   UNL     1     -12.092   6.615  71.140  1.00  0.00    -0.335 C  
HETATM   24  C   UNL     1     -10.524   8.329  71.649  1.00  0.00    -0.238 C  
ENDBRANCH  20  22
ENDBRANCH  19  20
ENDBRANCH  18  19
ENDBRANCH   3   5
ENDBRANCH   2   3
TORSDOF 5
ENDMDL
MODEL      137
REMARK 921   NORMALIZED FREE ENERGY PREDICTED BY IDOCK:   -3.44 KCAL/MOL
REMARK 922        TOTAL FREE ENERGY PREDICTED BY IDOCK:   -5.18 KCAL/MOL
REMARK 923 INTER-LIGAND FREE ENERGY PREDICTED BY IDOCK:   -5.29 KCAL/MOL
REMARK 924 INTRA-LIGAND FREE ENERGY PREDICTED BY IDOCK:    0.11 KCAL/MOL
REMARK 927      BINDING AFFINITY PREDICTED BY RF-SCORE:    0.00 PKD
ROOT
HETATM    1  C   UNL     1      -7.975   8.594  65.576  1.00  0.00    -0.108 C  
HETATM    2  C   UNL     1      -7.740  10.026  66.031  1.00  0.00    -0.110 C  
ENDROOT
BRANCH   2   3
HETATM    3  C   UNL     1      -8.927  10.924  65.724  1.00  0.00    -0.193 C  
HETATM    4  O   UNL     1      -9.195  11.273  64.579  1.00  0.00    -0.165 OA 
BRANCH   3   5
HETATM    5  C   UNL     1      -9.806  11.376  66.851  1.00  0.00    -0.218 A  
HETATM    6  C   UNL     1      -9.629  12.604  67.526  1.00  0.00    -0.184 A  
HETATM    7  C   UNL     1     -10.400  12.974  68.661  1.00  0.00    -0.191 A  
HETATM    8  C   UNL     1     -11.401  12.054  69.040  1.00  0.00    -0.275 A  
HETATM    9  S   UNL     1     -12.420  12.228  70.478  1.00  0.00    -0.118 SA 
HETATM   10  C   UNL     1     -11.630  10.865  68.319  1.00  0.00    -0.335 A  
HETATM   11  C   UNL     1     -12.057  13.881  70.991  1.00  0.00    -0.277 A  
HETATM   12  C   UNL     1     -10.827  10.522  67.243  1.00  0.00    -0.338 A  
HETATM   13  C   UNL     1     -12.810  14.331  72.094  1.00  0.00    -0.424 A  
HETATM   14  C   UNL     1     -12.659  15.619  72.584  1.00  0.00    -0.532 A  
HETATM   15  C   UNL     1     -11.833  16.496  71.899  1.00  0.00    -0.279 A  
HETATM   16  C   UNL     1     -11.126  16.055  70.772  1.00  0.00    -0.321 A  
HETATM   17  C   UNL     1     -11.109  14.710  70.356  1.00  0.00    -0.064 A  
HETATM   18  N   UNL     1     -10.200  14.207  69.378  1.00  0.00     0.043 NA 
BRANCH  18  19
HETATM   19  C   UNL     1      -8.979  15.019  69.020  1.00  0.00    -0.205 C  
BRANCH  19  20
HETATM   20  C   UNL     1      -9.058  16.047  67.829  1.00  0.00    -0.196 C  
HETATM   21  C   UNL     1      -8.745  15.331  66.504  1.00  0.00    -0.314 C  
BRANCH  20  22
HETATM   22  N   UNL     1     -10.381  16.762  67.738  1.00  0.00    -0.307 NA 
HETATM   23  C   UNL     1     -11.316  16.042  66.858  1.00  0.00     0.191 C  
HETATM   24  C   UNL     1     -10.253  18.136  67.231  1.00  0.00    -0.367 C  
ENDBRANCH  20  22
ENDBRANCH  19  20
ENDBRANCH  18  19
ENDBRANCH   3   5
ENDBRANCH   2   3
TORSDOF 5
ENDMDL
MODEL      138
REMARK 921   NORMALIZED FREE ENERGY PREDICTED BY IDOCK:   -3.35 KCAL/MOL
REMARK 922        TOTAL FREE ENERGY PREDICTED BY IDOCK:   -5.06 KCAL/MOL
REMARK 923 INTER-LIGAND FREE ENERGY PREDICTED BY IDOCK:   -4.88 KCAL/MOL
REMARK 924 INTRA-LIGAND FREE ENERGY PREDICTED BY IDOCK:   -0.18 KCAL/MOL
REMARK 927      BINDING AFFINITY PREDICTED BY RF-SCORE:    0.00 PKD
ROOT
HETATM    1  C   UNL     1     -10.781  18.012  67.179  1.00  0.00    -0.276 C  
HETATM    2  C   UNL     1      -9.828  17.001  67.799  1.00  0.00    -0.271 C  
ENDROOT
BRANCH   2   3
HETATM    3  C   UNL     1     -10.562  15.790  68.350  1.00  0.00    -0.264 C  
HETATM    4  O   UNL     1     -11.240  15.854  69.370  1.00  0.00    -0.287 OA 
BRANCH   3   5
HETATM    5  C   UNL     1     -10.470  14.488  67.613  1.00  0.00    -0.246 A  
HETATM    6  C   UNL     1     -10.382  13.236  68.260  1.00  0.00    -0.252 A  
HETATM    7  C   UNL     1     -10.188  12.019  67.553  1.00  0.00    -0.198 A  
HETATM    8  C   UNL     1     -10.146  12.134  66.147  1.00  0.00    -0.228 A  
HETATM    9  S   UNL     1      -9.808  10.788  65.048  1.00  0.00    -0.314 SA 
HETATM   10  C   UNL     1     -10.312  13.374  65.497  1.00  0.00    -0.302 A  
HETATM   11  C   UNL     1      -9.894   9.393  66.132  1.00  0.00    -0.285 A  
HETATM   12  C   UNL     1     -10.457  14.543  66.226  1.00  0.00    -0.303 A  
HETATM   13  C   UNL     1      -9.743   8.145  65.495  1.00  0.00     0.586 A  
HETATM   14  C   UNL     1      -9.825   6.962  66.213  1.00  0.00    -0.007 A  
HETATM   15  C   UNL     1     -10.168   7.024  67.554  1.00  0.00    -0.257 A  
HETATM   16  C   UNL     1     -10.366   8.268  68.169  1.00  0.00    -0.253 A  
HETATM   17  C   UNL     1     -10.111   9.492  67.522  1.00  0.00    -0.204 A  
HETATM   18  N   UNL     1     -10.060  10.742  68.208  1.00  0.00    -0.165 NA 
BRANCH  18  19
HETATM   19  C   UNL     1      -9.915  10.753  69.710  1.00  0.00     0.157 C  
BRANCH  19  20
HETATM   20  C   UNL     1     -11.175  10.460  70.610  1.00  0.00    -0.275 C  
HETATM   21  C   UNL     1     -12.454  10.863  69.857  1.00  0.00    -0.292 C  
BRANCH  20  22
HETATM   22  N   UNL     1     -11.267   9.028  71.069  1.00  0.00    -0.273 NA 
HETATM   23  C   UNL     1     -12.599   8.730  71.620  1.00  0.00    -0.345 C  
HETATM   24  C   UNL     1     -10.269   8.693  72.095  1.00  0.00    -0.323 C  
ENDBRANCH  20  22
ENDBRANCH  19  20
ENDBRANCH  18  19
ENDBRANCH   3   5
ENDBRANCH   2   3
TORSDOF 5
ENDMDL
MODEL      139
REMARK 921   NORMALIZED FREE ENERGY PREDICTED BY IDOCK:   -3.32 KCAL/MOL
REMARK 922        TOTAL FREE ENERGY PREDICTED BY IDOCK:   -5.03 KCAL/MOL
REMARK 923 INTER-LIGAND FREE ENERGY PREDICTED BY IDOCK:   -4.63 KCAL/MOL
REMARK 924 INTRA-LIGAND FREE ENERGY PREDICTED BY IDOCK:   -0.40 KCAL/MOL
REMARK 927      BINDING AFFINITY PREDICTED BY RF-SCORE:    0.00 PKD
ROOT
HETATM    1  C   UNL     1     -10.448  18.386  67.005  1.00  0.00    -0.429 C  
HETATM    2  C   UNL     1      -9.924  17.372  68.011  1.00  0.00    -0.302 C  
ENDROOT
BRANCH   2   3
HETATM    3  C   UNL     1      -9.582  16.044  67.355  1.00  0.00    -0.225 C  
HETATM    4  O   UNL     1      -8.853  15.978  66.372  1.00  0.00    -0.267 OA 
BRANCH   3   5
HETATM    5  C   UNL     1     -10.138  14.782  67.941  1.00  0.00    -0.221 A  
HETATM    6  C   UNL     1      -9.369  13.612  68.130  1.00  0.00    -0.212 A  
HETATM    7  C   UNL     1      -9.931  12.389  68.587  1.00  0.00    -0.107 A  
HETATM    8  C   UNL     1     -11.307  12.433  68.898  1.00  0.00    -0.294 A  
HETATM    9  S   UNL     1     -12.264  11.024  69.380  1.00  0.00    -0.139 SA 
HETATM   10  C   UNL     1     -12.058  13.621  68.784  1.00  0.00    -0.332 A  
HETATM   11  C   UNL     1     -11.014   9.803  69.654  1.00  0.00    -0.241 A  
HETATM   12  C   UNL     1     -11.480  14.781  68.294  1.00  0.00    -0.338 A  
HETATM   13  C   UNL     1     -11.494   8.571  70.140  1.00  0.00     0.002 A  
HETATM   14  C   UNL     1     -10.625   7.532  70.436  1.00  0.00    -0.236 A  
HETATM   15  C   UNL     1      -9.261   7.764  70.348  1.00  0.00    -0.156 A  
HETATM   16  C   UNL     1      -8.790   9.010  69.912  1.00  0.00    -0.164 A  
HETATM   17  C   UNL     1      -9.639  10.023  69.427  1.00  0.00    -0.222 A  
HETATM   18  N   UNL     1      -9.162  11.182  68.746  1.00  0.00    -0.172 NA 
BRANCH  18  19
HETATM   19  C   UNL     1      -7.756  11.187  68.196  1.00  0.00    -0.107 C  
BRANCH  19  20
HETATM   20  C   UNL     1      -7.537  11.239  66.636  1.00  0.00    -0.140 C  
HETATM   21  C   UNL     1      -6.076  11.608  66.330  1.00  0.00     0.069 C  
BRANCH  20  22
HETATM   22  N   UNL     1      -7.912   9.961  65.933  1.00  0.00    -0.112 NA 
HETATM   23  C   UNL     1      -9.373   9.776  65.909  1.00  0.00    -0.205 C  
HETATM   24  C   UNL     1      -7.318   8.770  66.558  1.00  0.00    -0.081 C  
ENDBRANCH  20  22
ENDBRANCH  19  20
ENDBRANCH  18  19
ENDBRANCH   3   5
ENDBRANCH   2   3
TORSDOF 5
ENDMDL
MODEL      140
REMARK 921   NORMALIZED FREE ENERGY PREDICTED BY IDOCK:   -3.25 KCAL/MOL
REMARK 922        TOTAL FREE ENERGY PREDICTED BY IDOCK:   -4.94 KCAL/MOL
REMARK 923 INTER-LIGAND FREE ENERGY PREDICTED BY IDOCK:   -4.18 KCAL/MOL
REMARK 924 INTRA-LIGAND FREE ENERGY PREDICTED BY IDOCK:   -0.75 KCAL/MOL
REMARK 927      BINDING AFFINITY PREDICTED BY RF-SCORE:    0.00 PKD
ROOT
HETATM    1  C   UNL     1      -7.241  14.440  69.144  1.00  0.00    -0.118 C  
HETATM    2  C   UNL     1      -5.913  14.061  69.782  1.00  0.00    -0.122 C  
ENDROOT
BRANCH   2   3
HETATM    3  C   UNL     1      -5.916  12.631  70.297  1.00  0.00    -0.122 C  
HETATM    4  O   UNL     1      -5.604  12.359  71.451  1.00  0.00    -0.384 OA 
BRANCH   3   5
HETATM    5  C   UNL     1      -6.332  11.528  69.372  1.00  0.00    -0.103 A  
HETATM    6  C   UNL     1      -7.444  10.692  69.613  1.00  0.00    -0.121 A  
HETATM    7  C   UNL     1      -7.766   9.583  68.786  1.00  0.00    -0.080 A  
HETATM    8  C   UNL     1      -6.929   9.401  67.663  1.00  0.00    -0.081 A  
HETATM    9  S   UNL     1      -7.051   8.036  66.542  1.00  0.00    -0.076 SA 
HETATM   10  C   UNL     1      -5.866  10.281  67.378  1.00  0.00    -0.049 A  
HETATM   11  C   UNL     1      -8.580   7.293  67.027  1.00  0.00    -0.122 A  
HETATM   12  C   UNL     1      -5.561  11.327  68.236  1.00  0.00    -0.045 A  
HETATM   13  C   UNL     1      -8.982   6.203  66.228  1.00  0.00    -0.162 A  
HETATM   14  C   UNL     1     -10.178   5.545  66.467  1.00  0.00    -0.273 A  
HETATM   15  C   UNL     1     -11.028   6.049  67.440  1.00  0.00    -0.344 A  
HETATM   16  C   UNL     1     -10.644   7.165  68.196  1.00  0.00    -0.241 A  
HETATM   17  C   UNL     1      -9.363   7.744  68.110  1.00  0.00    -0.145 A  
HETATM   18  N   UNL     1      -8.876   8.703  69.047  1.00  0.00    -0.137 NA 
BRANCH  18  19
HETATM   19  C   UNL     1      -9.579   8.861  70.373  1.00  0.00    -0.194 C  
BRANCH  19  20
HETATM   20  C   UNL     1      -9.381   7.763  71.487  1.00  0.00    -0.137 C  
HETATM   21  C   UNL     1      -8.342   8.246  72.512  1.00  0.00    -0.235 C  
BRANCH  20  22
HETATM   22  N   UNL     1     -10.660   7.374  72.181  1.00  0.00    -0.214 NA 
HETATM   23  C   UNL     1     -11.519   8.548  72.413  1.00  0.00    -0.349 C  
HETATM   24  C   UNL     1     -10.429   6.722  73.478  1.00  0.00    -0.330 C  
ENDBRANCH  20  22
ENDBRANCH  19  20
ENDBRANCH  18  19
ENDBRANCH   3   5
ENDBRANCH   2   3
TORSDOF 5
ENDMDL
MODEL      141
REMARK 921   NORMALIZED FREE ENERGY PREDICTED BY IDOCK:   -3.12 KCAL/MOL
REMARK 922        TOTAL FREE ENERGY PREDICTED BY IDOCK:   -4.77 KCAL/MOL
REMARK 923 INTER-LIGAND FREE ENERGY PREDICTED BY IDOCK:   -4.26 KCAL/MOL
REMARK 924 INTRA-LIGAND FREE ENERGY PREDICTED BY IDOCK:   -0.51 KCAL/MOL
REMARK 927      BINDING AFFINITY PREDICTED BY RF-SCORE:    0.00 PKD
ROOT
HETATM    1  C   UNL     1      -8.618  17.669  66.362  1.00  0.00    -0.269 C  
HETATM    2  C   UNL     1      -8.802  17.174  67.788  1.00  0.00    -0.225 C  
ENDROOT
BRANCH   2   3
HETATM    3  C   UNL     1      -7.486  16.748  68.418  1.00  0.00    -0.202 C  
HETATM    4  O   UNL     1      -6.646  17.567  68.775  1.00  0.00    -0.196 OA 
BRANCH   3   5
HETATM    5  C   UNL     1      -7.219  15.288  68.624  1.00  0.00    -0.121 A  
HETATM    6  C   UNL     1      -7.841  14.272  67.866  1.00  0.00    -0.156 A  
HETATM    7  C   UNL     1      -7.662  12.889  68.141  1.00  0.00    -0.138 A  
HETATM    8  C   UNL     1      -6.769  12.591  69.193  1.00  0.00    -0.089 A  
HETATM    9  S   UNL     1      -6.458  10.958  69.802  1.00  0.00    -0.140 SA 
HETATM   10  C   UNL     1      -6.087  13.603  69.899  1.00  0.00    -0.135 A  
HETATM   11  C   UNL     1      -7.248   9.951  68.582  1.00  0.00    -0.072 A  
HETATM   12  C   UNL     1      -6.324  14.941  69.627  1.00  0.00    -0.142 A  
HETATM   13  C   UNL     1      -7.085   8.564  68.771  1.00  0.00    -0.067 A  
HETATM   14  C   UNL     1      -7.618   7.653  67.873  1.00  0.00    -0.117 A  
HETATM   15  C   UNL     1      -8.223   8.134  66.722  1.00  0.00    -0.107 A  
HETATM   16  C   UNL     1      -8.337   9.515  66.516  1.00  0.00    -0.119 A  
HETATM   17  C   UNL     1      -7.975  10.467  67.489  1.00  0.00    -0.107 A  
HETATM   18  N   UNL     1      -8.322  11.848  67.397  1.00  0.00    -0.155 NA 
BRANCH  18  19
HETATM   19  C   UNL     1      -9.405  12.273  66.435  1.00  0.00    -0.219 C  
BRANCH  19  20
HETATM   20  C   UNL     1     -10.741  12.891  66.999  1.00  0.00    -0.257 C  
HETATM   21  C   UNL     1     -11.896  12.605  66.025  1.00  0.00    -0.492 C  
BRANCH  20  22
HETATM   22  N   UNL     1     -11.090  12.407  68.383  1.00  0.00    -0.233 NA 
HETATM   23  C   UNL     1     -11.529  11.001  68.360  1.00  0.00    -0.308 C  
HETATM   24  C   UNL     1     -12.154  13.201  69.013  1.00  0.00    -0.198 C  
ENDBRANCH  20  22
ENDBRANCH  19  20
ENDBRANCH  18  19
ENDBRANCH   3   5
ENDBRANCH   2   3
TORSDOF 5
ENDMDL
MODEL      142
REMARK 921   NORMALIZED FREE ENERGY PREDICTED BY IDOCK:   -2.99 KCAL/MOL
REMARK 922        TOTAL FREE ENERGY PREDICTED BY IDOCK:   -4.60 KCAL/MOL
REMARK 923 INTER-LIGAND FREE ENERGY PREDICTED BY IDOCK:   -4.14 KCAL/MOL
REMARK 924 INTRA-LIGAND FREE ENERGY PREDICTED BY IDOCK:   -0.46 KCAL/MOL
REMARK 927      BINDING AFFINITY PREDICTED BY RF-SCORE:    0.00 PKD
ROOT
HETATM    1  C   UNL     1      -7.259   6.604  68.965  1.00  0.00    -0.091 C  
HETATM    2  C   UNL     1      -8.274   6.644  67.833  1.00  0.00    -0.120 C  
ENDROOT
BRANCH   2   3
HETATM    3  C   UNL     1      -7.670   7.179  66.545  1.00  0.00    -0.100 C  
HETATM    4  O   UNL     1      -6.771   6.587  65.958  1.00  0.00    -0.046 OA 
BRANCH   3   5
HETATM    5  C   UNL     1      -8.205   8.455  65.968  1.00  0.00    -0.112 A  
HETATM    6  C   UNL     1      -8.300   9.657  66.703  1.00  0.00    -0.123 A  
HETATM    7  C   UNL     1      -8.906  10.831  66.180  1.00  0.00    -0.177 A  
HETATM    8  C   UNL     1      -9.360  10.737  64.847  1.00  0.00    -0.222 A  
HETATM    9  S   UNL     1     -10.244  12.018  64.003  1.00  0.00    -0.378 SA 
HETATM   10  C   UNL     1      -9.195   9.561  64.086  1.00  0.00    -0.142 A  
HETATM   11  C   UNL     1     -10.065  13.384  65.112  1.00  0.00    -0.246 A  
HETATM   12  C   UNL     1      -8.636   8.424  64.649  1.00  0.00    -0.046 A  
HETATM   13  C   UNL     1     -10.615  14.594  64.645  1.00  0.00    -0.268 A  
HETATM   14  C   UNL     1     -10.517  15.758  65.392  1.00  0.00    -0.438 A  
HETATM   15  C   UNL     1      -9.772  15.735  66.560  1.00  0.00    -0.285 A  
HETATM   16  C   UNL     1      -9.185  14.538  66.992  1.00  0.00    -0.253 A  
HETATM   17  C   UNL     1      -9.416  13.300  66.362  1.00  0.00    -0.217 A  
HETATM   18  N   UNL     1      -9.041  12.049  66.936  1.00  0.00    -0.191 NA 
BRANCH  18  19
HETATM   19  C   UNL     1      -8.711  11.984  68.408  1.00  0.00    -0.147 C  
BRANCH  19  20
HETATM   20  C   UNL     1      -7.231  11.680  68.855  1.00  0.00    -0.113 C  
HETATM   21  C   UNL     1      -6.494  13.000  69.138  1.00  0.00    -0.108 C  
BRANCH  20  22
HETATM   22  N   UNL     1      -7.139  10.762  70.046  1.00  0.00    -0.146 NA 
HETATM   23  C   UNL     1      -5.941   9.909  69.969  1.00  0.00    -0.049 C  
HETATM   24  C   UNL     1      -8.310   9.885  70.182  1.00  0.00    -0.126 C  
ENDBRANCH  20  22
ENDBRANCH  19  20
ENDBRANCH  18  19
ENDBRANCH   3   5
ENDBRANCH   2   3
TORSDOF 5
ENDMDL
MODEL      143
REMARK 921   NORMALIZED FREE ENERGY PREDICTED BY IDOCK:   -2.91 KCAL/MOL
REMARK 922        TOTAL FREE ENERGY PREDICTED BY IDOCK:   -4.50 KCAL/MOL
REMARK 923 INTER-LIGAND FREE ENERGY PREDICTED BY IDOCK:   -3.71 KCAL/MOL
REMARK 924 INTRA-LIGAND FREE ENERGY PREDICTED BY IDOCK:   -0.79 KCAL/MOL
REMARK 927      BINDING AFFINITY PREDICTED BY RF-SCORE:    0.00 PKD
ROOT
HETATM    1  C   UNL     1      -8.086   5.753  64.219  1.00  0.00    -0.127 C  
HETATM    2  C   UNL     1      -8.712   4.589  63.466  1.00  0.00    -0.132 C  
ENDROOT
BRANCH   2   3
HETATM    3  C   UNL     1      -9.798   3.903  64.278  1.00  0.00    -0.185 C  
HETATM    4  O   UNL     1     -10.926   3.725  63.829  1.00  0.00    -0.243 OA 
BRANCH   3   5
HETATM    5  C   UNL     1      -9.475   3.415  65.658  1.00  0.00    -0.119 A  
HETATM    6  C   UNL     1      -9.829   4.117  66.831  1.00  0.00    -0.197 A  
HETATM    7  C   UNL     1      -9.424   3.700  68.127  1.00  0.00    -0.156 A  
HETATM    8  C   UNL     1      -8.687   2.497  68.175  1.00  0.00    -0.104 A  
HETATM    9  S   UNL     1      -7.976   1.822  69.649  1.00  0.00    -0.041 SA 
HETATM   10  C   UNL     1      -8.400   1.754  67.011  1.00  0.00    -0.084 A  
HETATM   11  C   UNL     1      -8.709   2.826  70.907  1.00  0.00    -0.071 A  
HETATM   12  C   UNL     1      -8.777   2.220  65.761  1.00  0.00    -0.119 A  
HETATM   13  C   UNL     1      -8.379   2.450  72.224  1.00  0.00    -0.055 A  
HETATM   14  C   UNL     1      -8.909   3.123  73.314  1.00  0.00    -0.083 A  
HETATM   15  C   UNL     1      -9.859   4.107  73.086  1.00  0.00    -0.172 A  
HETATM   16  C   UNL     1     -10.220   4.440  71.774  1.00  0.00    -0.201 A  
HETATM   17  C   UNL     1      -9.571   3.911  70.642  1.00  0.00    -0.189 A  
HETATM   18  N   UNL     1      -9.750   4.430  69.325  1.00  0.00    -0.191 NA 
BRANCH  18  19
HETATM   19  C   UNL     1     -10.360   5.799  69.150  1.00  0.00    -0.248 C  
BRANCH  19  20
HETATM   20  C   UNL     1      -9.471   7.078  69.389  1.00  0.00    -0.145 C  
HETATM   21  C   UNL     1      -8.773   7.476  68.078  1.00  0.00    -0.121 C  
BRANCH  20  22
HETATM   22  N   UNL     1     -10.237   8.247  69.951  1.00  0.00    -0.197 NA 
HETATM   23  C   UNL     1      -9.336   9.208  70.608  1.00  0.00    -0.258 C  
HETATM   24  C   UNL     1     -11.257   7.843  70.929  1.00  0.00    -0.270 C  
ENDBRANCH  20  22
ENDBRANCH  19  20
ENDBRANCH  18  19
ENDBRANCH   3   5
ENDBRANCH   2   3
TORSDOF 5
ENDMDL
MODEL      144
REMARK 921   NORMALIZED FREE ENERGY PREDICTED BY IDOCK:   -2.89 KCAL/MOL
REMARK 922        TOTAL FREE ENERGY PREDICTED BY IDOCK:   -4.48 KCAL/MOL
REMARK 923 INTER-LIGAND FREE ENERGY PREDICTED BY IDOCK:   -3.71 KCAL/MOL
REMARK 924 INTRA-LIGAND FREE ENERGY PREDICTED BY IDOCK:   -0.76 KCAL/MOL
REMARK 927      BINDING AFFINITY PREDICTED BY RF-SCORE:    0.00 PKD
ROOT
HETATM    1  C   UNL     1      -8.773  12.695  67.932  1.00  0.00    -0.181 C  
HETATM    2  C   UNL     1      -7.467  11.916  67.884  1.00  0.00    -0.114 C  
ENDROOT
BRANCH   2   3
HETATM    3  C   UNL     1      -7.413  10.828  68.944  1.00  0.00    -0.116 C  
HETATM    4  O   UNL     1      -7.055  11.063  70.093  1.00  0.00    -0.125 OA 
BRANCH   3   5
HETATM    5  C   UNL     1      -7.830   9.436  68.577  1.00  0.00    -0.089 A  
HETATM    6  C   UNL     1      -7.922   8.383  69.514  1.00  0.00    -0.111 A  
HETATM    7  C   UNL     1      -8.215   7.044  69.138  1.00  0.00    -0.122 A  
HETATM    8  C   UNL     1      -8.467   6.841  67.763  1.00  0.00    -0.122 A  
HETATM    9  S   UNL     1      -8.747   5.257  67.026  1.00  0.00    -0.106 SA 
HETATM   10  C   UNL     1      -8.452   7.907  66.840  1.00  0.00    -0.128 A  
HETATM   11  C   UNL     1      -8.939   4.217  68.443  1.00  0.00    -0.118 A  
HETATM   12  C   UNL     1      -8.120   9.191  67.243  1.00  0.00    -0.106 A  
HETATM   13  C   UNL     1      -9.264   2.878  68.148  1.00  0.00    -0.248 A  
HETATM   14  C   UNL     1      -9.482   1.956  69.161  1.00  0.00    -0.147 A  
HETATM   15  C   UNL     1      -9.481   2.401  70.473  1.00  0.00    -0.185 A  
HETATM   16  C   UNL     1      -9.207   3.746  70.756  1.00  0.00    -0.202 A  
HETATM   17  C   UNL     1      -8.800   4.668  69.772  1.00  0.00    -0.089 A  
HETATM   18  N   UNL     1      -8.274   5.958  70.081  1.00  0.00    -0.115 NA 
BRANCH  18  19
HETATM   19  C   UNL     1      -7.792   6.240  71.483  1.00  0.00    -0.101 C  
BRANCH  19  20
HETATM   20  C   UNL     1      -8.817   6.756  72.563  1.00  0.00    -0.126 C  
HETATM   21  C   UNL     1      -8.266   8.024  73.237  1.00  0.00    -0.254 C  
BRANCH  20  22
HETATM   22  N   UNL     1     -10.195   7.013  72.010  1.00  0.00    -0.190 NA 
HETATM   23  C   UNL     1     -10.617   8.402  72.257  1.00  0.00    -0.342 C  
HETATM   24  C   UNL     1     -11.215   6.124  72.584  1.00  0.00    -0.274 C  
ENDBRANCH  20  22
ENDBRANCH  19  20
ENDBRANCH  18  19
ENDBRANCH   3   5
ENDBRANCH   2   3
TORSDOF 5
ENDMDL
MODEL      145
REMARK 921   NORMALIZED FREE ENERGY PREDICTED BY IDOCK:   -2.87 KCAL/MOL
REMARK 922        TOTAL FREE ENERGY PREDICTED BY IDOCK:   -4.44 KCAL/MOL
REMARK 923 INTER-LIGAND FREE ENERGY PREDICTED BY IDOCK:   -3.99 KCAL/MOL
REMARK 924 INTRA-LIGAND FREE ENERGY PREDICTED BY IDOCK:   -0.45 KCAL/MOL
REMARK 927      BINDING AFFINITY PREDICTED BY RF-SCORE:    0.00 PKD
ROOT
HETATM    1  C   UNL     1      -8.046   4.883  64.687  1.00  0.00    -0.111 C  
HETATM    2  C   UNL     1      -9.177   3.922  65.019  1.00  0.00    -0.150 C  
ENDROOT
BRANCH   2   3
HETATM    3  C   UNL     1     -10.148   4.511  66.030  1.00  0.00    -0.259 C  
HETATM    4  O   UNL     1     -11.229   4.980  65.690  1.00  0.00    -0.025 OA 
BRANCH   3   5
HETATM    5  C   UNL     1      -9.779   4.499  67.482  1.00  0.00    -0.213 A  
HETATM    6  C   UNL     1      -9.675   5.669  68.265  1.00  0.00    -0.160 A  
HETATM    7  C   UNL     1      -9.222   5.655  69.612  1.00  0.00    -0.137 A  
HETATM    8  C   UNL     1      -8.932   4.379  70.141  1.00  0.00    -0.088 A  
HETATM    9  S   UNL     1      -8.251   4.100  71.751  1.00  0.00    -0.093 SA 
HETATM   10  C   UNL     1      -9.110   3.203  69.384  1.00  0.00    -0.198 A  
HETATM   11  C   UNL     1      -8.384   5.700  72.492  1.00  0.00    -0.114 A  
HETATM   12  C   UNL     1      -9.514   3.265  68.060  1.00  0.00    -0.217 A  
HETATM   13  C   UNL     1      -7.982   5.757  73.842  1.00  0.00    -0.106 A  
HETATM   14  C   UNL     1      -8.065   6.937  74.563  1.00  0.00    -0.159 A  
HETATM   15  C   UNL     1      -8.656   8.039  73.964  1.00  0.00    -0.296 A  
HETATM   16  C   UNL     1      -9.100   7.960  72.637  1.00  0.00    -0.256 A  
HETATM   17  C   UNL     1      -8.864   6.841  71.815  1.00  0.00    -0.128 A  
HETATM   18  N   UNL     1      -9.078   6.849  70.405  1.00  0.00    -0.156 NA 
BRANCH  18  19
HETATM   19  C   UNL     1      -9.216   8.170  69.688  1.00  0.00    -0.155 C  
BRANCH  19  20
HETATM   20  C   UNL     1     -10.642   8.646  69.214  1.00  0.00    -0.192 C  
HETATM   21  C   UNL     1     -11.638   8.540  70.380  1.00  0.00    -0.075 C  
BRANCH  20  22
HETATM   22  N   UNL     1     -10.651  10.040  68.643  1.00  0.00    -0.203 NA 
HETATM   23  C   UNL     1      -9.326  10.672  68.761  1.00  0.00    -0.180 C  
HETATM   24  C   UNL     1     -11.630  10.919  69.298  1.00  0.00    -0.318 C  
ENDBRANCH  20  22
ENDBRANCH  19  20
ENDBRANCH  18  19
ENDBRANCH   3   5
ENDBRANCH   2   3
TORSDOF 5
ENDMDL
MODEL      146
REMARK 921   NORMALIZED FREE ENERGY PREDICTED BY IDOCK:   -2.86 KCAL/MOL
REMARK 922        TOTAL FREE ENERGY PREDICTED BY IDOCK:   -4.43 KCAL/MOL
REMARK 923 INTER-LIGAND FREE ENERGY PREDICTED BY IDOCK:   -3.69 KCAL/MOL
REMARK 924 INTRA-LIGAND FREE ENERGY PREDICTED BY IDOCK:   -0.75 KCAL/MOL
REMARK 927      BINDING AFFINITY PREDICTED BY RF-SCORE:    0.00 PKD
ROOT
HETATM    1  C   UNL     1      -8.953   2.167  69.848  1.00  0.00    -0.150 C  
HETATM    2  C   UNL     1      -7.810   3.164  69.963  1.00  0.00    -0.047 C  
ENDROOT
BRANCH   2   3
HETATM    3  C   UNL     1      -7.238   3.536  68.605  1.00  0.00    -0.050 C  
HETATM    4  O   UNL     1      -6.462   2.798  68.007  1.00  0.00    -0.032 OA 
BRANCH   3   5
HETATM    5  C   UNL     1      -7.652   4.830  67.973  1.00  0.00    -0.082 A  
HETATM    6  C   UNL     1      -7.868   6.017  68.708  1.00  0.00    -0.100 A  
HETATM    7  C   UNL     1      -8.363   7.209  68.114  1.00  0.00    -0.124 A  
HETATM    8  C   UNL     1      -8.573   7.149  66.719  1.00  0.00    -0.124 A  
HETATM    9  S   UNL     1      -9.283   8.459  65.763  1.00  0.00    -0.049 SA 
HETATM   10  C   UNL     1      -8.283   5.989  65.972  1.00  0.00    -0.125 A  
HETATM   11  C   UNL     1      -9.295   9.797  66.918  1.00  0.00    -0.149 A  
HETATM   12  C   UNL     1      -7.842   4.834  66.598  1.00  0.00    -0.099 A  
HETATM   13  C   UNL     1      -9.744  11.024  66.389  1.00  0.00    -0.235 A  
HETATM   14  C   UNL     1      -9.772  12.170  67.169  1.00  0.00    -0.203 A  
HETATM   15  C   UNL     1      -9.246  12.113  68.450  1.00  0.00    -0.154 A  
HETATM   16  C   UNL     1      -8.755  10.900  68.951  1.00  0.00    -0.144 A  
HETATM   17  C   UNL     1      -8.879   9.679  68.261  1.00  0.00    -0.120 A  
HETATM   18  N   UNL     1      -8.621   8.412  68.863  1.00  0.00    -0.134 NA 
BRANCH  18  19
HETATM   19  C   UNL     1      -8.559   8.310  70.367  1.00  0.00    -0.134 C  
BRANCH  19  20
HETATM   20  C   UNL     1      -9.779   7.691  71.150  1.00  0.00    -0.162 C  
HETATM   21  C   UNL     1      -9.872   8.324  72.549  1.00  0.00    -0.368 C  
BRANCH  20  22
HETATM   22  N   UNL     1     -11.092   7.830  70.425  1.00  0.00    -0.258 NA 
HETATM   23  C   UNL     1     -11.894   8.932  70.983  1.00  0.00    -0.276 C  
HETATM   24  C   UNL     1     -11.906   6.608  70.479  1.00  0.00    -0.370 C  
ENDBRANCH  20  22
ENDBRANCH  19  20
ENDBRANCH  18  19
ENDBRANCH   3   5
ENDBRANCH   2   3
TORSDOF 5
ENDMDL
MODEL      147
REMARK 921   NORMALIZED FREE ENERGY PREDICTED BY IDOCK:   -2.86 KCAL/MOL
REMARK 922        TOTAL FREE ENERGY PREDICTED BY IDOCK:   -4.43 KCAL/MOL
REMARK 923 INTER-LIGAND FREE ENERGY PREDICTED BY IDOCK:   -3.56 KCAL/MOL
REMARK 924 INTRA-LIGAND FREE ENERGY PREDICTED BY IDOCK:   -0.87 KCAL/MOL
REMARK 927      BINDING AFFINITY PREDICTED BY RF-SCORE:    0.00 PKD
ROOT
HETATM    1  C   UNL     1      -8.062   5.512  63.184  1.00  0.00    -0.103 C  
HETATM    2  C   UNL     1      -8.382   4.142  63.762  1.00  0.00    -0.097 C  
ENDROOT
BRANCH   2   3
HETATM    3  C   UNL     1      -9.665   4.153  64.578  1.00  0.00    -0.165 C  
HETATM    4  O   UNL     1     -10.762   3.982  64.058  1.00  0.00    -0.238 OA 
BRANCH   3   5
HETATM    5  C   UNL     1      -9.581   4.359  66.060  1.00  0.00    -0.190 A  
HETATM    6  C   UNL     1      -9.577   5.634  66.666  1.00  0.00    -0.166 A  
HETATM    7  C   UNL     1      -9.390   5.821  68.062  1.00  0.00    -0.109 A  
HETATM    8  C   UNL     1      -9.264   4.637  68.821  1.00  0.00    -0.129 A  
HETATM    9  S   UNL     1      -8.916   4.599  70.556  1.00  0.00    -0.114 SA 
HETATM   10  C   UNL     1      -9.347   3.361  68.226  1.00  0.00    -0.239 A  
HETATM   11  C   UNL     1      -9.117   6.296  71.011  1.00  0.00    -0.154 A  
HETATM   12  C   UNL     1      -9.487   3.225  66.854  1.00  0.00    -0.145 A  
HETATM   13  C   UNL     1      -8.978   6.553  72.390  1.00  0.00    -0.133 A  
HETATM   14  C   UNL     1      -9.144   7.832  72.898  1.00  0.00    -0.255 A  
HETATM   15  C   UNL     1      -9.560   8.837  72.039  1.00  0.00    -0.356 A  
HETATM   16  C   UNL     1      -9.745   8.562  70.677  1.00  0.00    -0.207 A  
HETATM   17  C   UNL     1      -9.407   7.326  70.093  1.00  0.00    -0.155 A  
HETATM   18  N   UNL     1      -9.347   7.120  68.682  1.00  0.00    -0.135 NA 
BRANCH  18  19
HETATM   19  C   UNL     1      -9.287   8.317  67.765  1.00  0.00    -0.138 C  
BRANCH  19  20
HETATM   20  C   UNL     1      -7.889   8.962  67.429  1.00  0.00    -0.097 C  
HETATM   21  C   UNL     1      -7.707  10.257  68.238  1.00  0.00    -0.092 C  
BRANCH  20  22
HETATM   22  N   UNL     1      -6.726   8.033  67.661  1.00  0.00    -0.067 NA 
HETATM   23  C   UNL     1      -5.680   8.680  68.470  1.00  0.00    -0.038 C  
HETATM   24  C   UNL     1      -6.107   7.571  66.411  1.00  0.00    -0.041 C  
ENDBRANCH  20  22
ENDBRANCH  19  20
ENDBRANCH  18  19
ENDBRANCH   3   5
ENDBRANCH   2   3
TORSDOF 5
ENDMDL
MODEL      148
REMARK 921   NORMALIZED FREE ENERGY PREDICTED BY IDOCK:   -2.82 KCAL/MOL
REMARK 922        TOTAL FREE ENERGY PREDICTED BY IDOCK:   -4.38 KCAL/MOL
REMARK 923 INTER-LIGAND FREE ENERGY PREDICTED BY IDOCK:   -3.80 KCAL/MOL
REMARK 924 INTRA-LIGAND FREE ENERGY PREDICTED BY IDOCK:   -0.58 KCAL/MOL
REMARK 927      BINDING AFFINITY PREDICTED BY RF-SCORE:    0.00 PKD
ROOT
HETATM    1  C   UNL     1     -14.002   9.280  71.213  1.00  0.00    -0.142 C  
HETATM    2  C   UNL     1     -13.507   7.898  71.614  1.00  0.00    -0.386 C  
ENDROOT
BRANCH   2   3
HETATM    3  C   UNL     1     -12.000   7.865  71.804  1.00  0.00    -0.298 C  
HETATM    4  O   UNL     1     -11.477   8.145  72.877  1.00  0.00    -0.389 OA 
BRANCH   3   5
HETATM    5  C   UNL     1     -11.131   7.461  70.651  1.00  0.00    -0.285 A  
HETATM    6  C   UNL     1     -10.715   6.130  70.425  1.00  0.00    -0.347 A  
HETATM    7  C   UNL     1      -9.806   5.775  69.391  1.00  0.00    -0.167 A  
HETATM    8  C   UNL     1      -9.386   6.837  68.561  1.00  0.00    -0.126 A  
HETATM    9  S   UNL     1      -8.179   6.679  67.277  1.00  0.00    -0.121 SA 
HETATM   10  C   UNL     1      -9.863   8.152  68.739  1.00  0.00    -0.181 A  
HETATM   11  C   UNL     1      -7.984   4.924  67.166  1.00  0.00    -0.099 A  
HETATM   12  C   UNL     1     -10.716   8.463  69.786  1.00  0.00    -0.211 A  
HETATM   13  C   UNL     1      -7.120   4.494  66.139  1.00  0.00    -0.074 A  
HETATM   14  C   UNL     1      -6.899   3.145  65.909  1.00  0.00    -0.048 A  
HETATM   15  C   UNL     1      -7.631   2.221  66.639  1.00  0.00    -0.070 A  
HETATM   16  C   UNL     1      -8.526   2.658  67.624  1.00  0.00    -0.104 A  
HETATM   17  C   UNL     1      -8.639   4.007  68.013  1.00  0.00    -0.096 A  
HETATM   18  N   UNL     1      -9.348   4.427  69.178  1.00  0.00    -0.141 NA 
BRANCH  18  19
HETATM   19  C   UNL     1      -9.693   3.409  70.237  1.00  0.00    -0.070 C  
BRANCH  19  20
HETATM   20  C   UNL     1      -9.108   3.578  71.691  1.00  0.00    -0.113 C  
HETATM   21  C   UNL     1     -10.159   3.144  72.726  1.00  0.00    -0.225 C  
BRANCH  20  22
HETATM   22  N   UNL     1      -7.817   2.833  71.911  1.00  0.00    -0.052 NA 
HETATM   23  C   UNL     1      -6.657   3.649  71.514  1.00  0.00    -0.022 C  
HETATM   24  C   UNL     1      -7.754   1.568  71.164  1.00  0.00    -0.032 C  
ENDBRANCH  20  22
ENDBRANCH  19  20
ENDBRANCH  18  19
ENDBRANCH   3   5
ENDBRANCH   2   3
TORSDOF 5
ENDMDL
MODEL      149
REMARK 921   NORMALIZED FREE ENERGY PREDICTED BY IDOCK:   -2.77 KCAL/MOL
REMARK 922        TOTAL FREE ENERGY PREDICTED BY IDOCK:   -4.31 KCAL/MOL
REMARK 923 INTER-LIGAND FREE ENERGY PREDICTED BY IDOCK:   -3.64 KCAL/MOL
REMARK 924 INTRA-LIGAND FREE ENERGY PREDICTED BY IDOCK:   -0.67 KCAL/MOL
REMARK 927      BINDING AFFINITY PREDICTED BY RF-SCORE:    0.00 PKD
ROOT
HETATM    1  C   UNL     1     -10.607   3.492  63.703  1.00  0.00    -0.275 C  
HETATM    2  C   UNL     1      -9.227   3.722  64.301  1.00  0.00    -0.141 C  
ENDROOT
BRANCH   2   3
HETATM    3  C   UNL     1      -9.300   4.424  65.648  1.00  0.00    -0.161 C  
HETATM    4  O   UNL     1      -9.804   3.888  66.629  1.00  0.00    -0.202 OA 
BRANCH   3   5
HETATM    5  C   UNL     1      -8.722   5.800  65.781  1.00  0.00    -0.152 A  
HETATM    6  C   UNL     1      -8.550   6.451  67.023  1.00  0.00    -0.112 A  
HETATM    7  C   UNL     1      -8.100   7.794  67.130  1.00  0.00    -0.118 A  
HETATM    8  C   UNL     1      -7.778   8.425  65.909  1.00  0.00    -0.086 A  
HETATM    9  S   UNL     1      -7.301  10.123  65.762  1.00  0.00    -0.133 SA 
HETATM   10  C   UNL     1      -7.874   7.750  64.675  1.00  0.00    -0.130 A  
HETATM   11  C   UNL     1      -7.049  10.586  67.450  1.00  0.00    -0.090 A  
HETATM   12  C   UNL     1      -8.358   6.452  64.612  1.00  0.00    -0.010 A  
HETATM   13  C   UNL     1      -6.570  11.898  67.633  1.00  0.00    -0.099 A  
HETATM   14  C   UNL     1      -6.292  12.387  68.901  1.00  0.00    -0.085 A  
HETATM   15  C   UNL     1      -6.388  11.522  69.979  1.00  0.00    -0.116 A  
HETATM   16  C   UNL     1      -6.817  10.202  69.782  1.00  0.00    -0.105 A  
HETATM   17  C   UNL     1      -7.285   9.725  68.542  1.00  0.00    -0.070 A  
HETATM   18  N   UNL     1      -7.959   8.477  68.390  1.00  0.00    -0.116 NA 
BRANCH  18  19
HETATM   19  C   UNL     1      -8.520   7.789  69.610  1.00  0.00    -0.133 C  
BRANCH  19  20
HETATM   20  C   UNL     1      -9.853   8.328  70.257  1.00  0.00    -0.184 C  
HETATM   21  C   UNL     1     -10.572   9.257  69.264  1.00  0.00    -0.234 C  
BRANCH  20  22
HETATM   22  N   UNL     1     -10.782   7.235  70.718  1.00  0.00    -0.228 NA 
HETATM   23  C   UNL     1     -10.985   6.229  69.663  1.00  0.00    -0.374 C  
HETATM   24  C   UNL     1     -12.102   7.741  71.119  1.00  0.00    -0.286 C  
ENDBRANCH  20  22
ENDBRANCH  19  20
ENDBRANCH  18  19
ENDBRANCH   3   5
ENDBRANCH   2   3
TORSDOF 5
ENDMDL
MODEL      150
REMARK 921   NORMALIZED FREE ENERGY PREDICTED BY IDOCK:   -2.76 KCAL/MOL
REMARK 922        TOTAL FREE ENERGY PREDICTED BY IDOCK:   -4.30 KCAL/MOL
REMARK 923 INTER-LIGAND FREE ENERGY PREDICTED BY IDOCK:   -3.90 KCAL/MOL
REMARK 924 INTRA-LIGAND FREE ENERGY PREDICTED BY IDOCK:   -0.40 KCAL/MOL
REMARK 927      BINDING AFFINITY PREDICTED BY RF-SCORE:    0.00 PKD
ROOT
HETATM    1  C   UNL     1      -6.161  16.516  70.468  1.00  0.00     0.291 C  
HETATM    2  C   UNL     1      -5.126  15.404  70.387  1.00  0.00    -0.127 C  
ENDROOT
BRANCH   2   3
HETATM    3  C   UNL     1      -5.722  14.046  70.722  1.00  0.00    -0.196 C  
HETATM    4  O   UNL     1      -5.873  13.675  71.881  1.00  0.00    -0.392 OA 
BRANCH   3   5
HETATM    5  C   UNL     1      -6.154  13.147  69.603  1.00  0.00    -0.120 A  
HETATM    6  C   UNL     1      -7.209  13.463  68.718  1.00  0.00    -0.092 A  
HETATM    7  C   UNL     1      -7.679  12.558  67.730  1.00  0.00    -0.142 A  
HETATM    8  C   UNL     1      -6.983  11.333  67.648  1.00  0.00    -0.085 A  
HETATM    9  S   UNL     1      -7.438   9.998  66.579  1.00  0.00    -0.109 SA 
HETATM   10  C   UNL     1      -5.879  11.048  68.478  1.00  0.00    -0.042 A  
HETATM   11  C   UNL     1      -8.657  10.752  65.543  1.00  0.00    -0.176 A  
HETATM   12  C   UNL     1      -5.480  11.943  69.459  1.00  0.00    -0.067 A  
HETATM   13  C   UNL     1      -9.148   9.922  64.515  1.00  0.00    -0.296 A  
HETATM   14  C   UNL     1     -10.081  10.391  63.603  1.00  0.00    -0.088 A  
HETATM   15  C   UNL     1     -10.442  11.728  63.653  1.00  0.00    -0.490 A  
HETATM   16  C   UNL     1      -9.911  12.560  64.648  1.00  0.00    -0.079 A  
HETATM   17  C   UNL     1      -9.108  12.079  65.700  1.00  0.00     0.078 A  
HETATM   18  N   UNL     1      -8.779  12.858  66.849  1.00  0.00    -0.194 NA 
BRANCH  18  19
HETATM   19  C   UNL     1      -9.581  14.100  67.151  1.00  0.00    -0.244 C  
BRANCH  19  20
HETATM   20  C   UNL     1     -10.838  13.997  68.097  1.00  0.00    -0.248 C  
HETATM   21  C   UNL     1     -12.083  14.520  67.362  1.00  0.00    -0.292 C  
BRANCH  20  22
HETATM   22  N   UNL     1     -11.084  12.606  68.620  1.00  0.00    -0.252 NA 
HETATM   23  C   UNL     1     -11.732  11.762  67.603  1.00  0.00    -0.250 C  
HETATM   24  C   UNL     1     -11.928  12.590  69.823  1.00  0.00    -0.289 C  
ENDBRANCH  20  22
ENDBRANCH  19  20
ENDBRANCH  18  19
ENDBRANCH   3   5
ENDBRANCH   2   3
TORSDOF 5
ENDMDL
MODEL      151
REMARK 921   NORMALIZED FREE ENERGY PREDICTED BY IDOCK:   -2.75 KCAL/MOL
REMARK 922        TOTAL FREE ENERGY PREDICTED BY IDOCK:   -4.28 KCAL/MOL
REMARK 923 INTER-LIGAND FREE ENERGY PREDICTED BY IDOCK:   -3.84 KCAL/MOL
REMARK 924 INTRA-LIGAND FREE ENERGY PREDICTED BY IDOCK:   -0.44 KCAL/MOL
REMARK 927      BINDING AFFINITY PREDICTED BY RF-SCORE:    0.00 PKD
ROOT
HETATM    1  C   UNL     1      -7.194   4.874  73.867  1.00  0.00    -0.082 C  
HETATM    2  C   UNL     1      -7.475   5.760  72.662  1.00  0.00    -0.096 C  
ENDROOT
BRANCH   2   3
HETATM    3  C   UNL     1      -6.758   5.270  71.415  1.00  0.00    -0.048 C  
HETATM    4  O   UNL     1      -6.092   4.241  71.415  1.00  0.00    -0.016 OA 
BRANCH   3   5
HETATM    5  C   UNL     1      -6.889   6.058  70.147  1.00  0.00    -0.057 A  
HETATM    6  C   UNL     1      -8.050   6.784  69.801  1.00  0.00    -0.126 A  
HETATM    7  C   UNL     1      -8.202   7.439  68.549  1.00  0.00    -0.125 A  
HETATM    8  C   UNL     1      -7.087   7.367  67.687  1.00  0.00    -0.085 A  
HETATM    9  S   UNL     1      -7.062   8.004  66.036  1.00  0.00    -0.062 SA 
HETATM   10  C   UNL     1      -5.898   6.709  68.063  1.00  0.00    -0.016 A  
HETATM   11  C   UNL     1      -8.559   8.944  65.979  1.00  0.00    -0.145 A  
HETATM   12  C   UNL     1      -5.807   6.046  69.277  1.00  0.00    -0.023 A  
HETATM   13  C   UNL     1      -8.762   9.650  64.776  1.00  0.00    -0.219 A  
HETATM   14  C   UNL     1      -9.875  10.459  64.602  1.00  0.00    -0.405 A  
HETATM   15  C   UNL     1     -10.730  10.648  65.676  1.00  0.00    -0.104 A  
HETATM   16  C   UNL     1     -10.493   9.981  66.886  1.00  0.00    -0.284 A  
HETATM   17  C   UNL     1      -9.483   9.012  67.042  1.00  0.00    -0.163 A  
HETATM   18  N   UNL     1      -9.398   8.149  68.175  1.00  0.00    -0.133 NA 
BRANCH  18  19
HETATM   19  C   UNL     1     -10.598   7.995  69.076  1.00  0.00    -0.154 C  
BRANCH  19  20
HETATM   20  C   UNL     1     -10.659   8.805  70.427  1.00  0.00    -0.221 C  
HETATM   21  C   UNL     1     -11.371  10.148  70.194  1.00  0.00    -0.372 C  
BRANCH  20  22
HETATM   22  N   UNL     1     -11.319   8.050  71.551  1.00  0.00    -0.252 NA 
HETATM   23  C   UNL     1     -10.363   7.766  72.634  1.00  0.00    -0.292 C  
HETATM   24  C   UNL     1     -11.900   6.772  71.116  1.00  0.00    -0.360 C  
ENDBRANCH  20  22
ENDBRANCH  19  20
ENDBRANCH  18  19
ENDBRANCH   3   5
ENDBRANCH   2   3
TORSDOF 5
ENDMDL
MODEL      152
REMARK 921   NORMALIZED FREE ENERGY PREDICTED BY IDOCK:   -2.52 KCAL/MOL
REMARK 922        TOTAL FREE ENERGY PREDICTED BY IDOCK:   -3.99 KCAL/MOL
REMARK 923 INTER-LIGAND FREE ENERGY PREDICTED BY IDOCK:   -3.64 KCAL/MOL
REMARK 924 INTRA-LIGAND FREE ENERGY PREDICTED BY IDOCK:   -0.35 KCAL/MOL
REMARK 927      BINDING AFFINITY PREDICTED BY RF-SCORE:    0.00 PKD
ROOT
HETATM    1  C   UNL     1      -8.326  13.322  68.250  1.00  0.00    -0.154 C  
HETATM    2  C   UNL     1      -6.882  13.066  68.654  1.00  0.00    -0.099 C  
ENDROOT
BRANCH   2   3
HETATM    3  C   UNL     1      -6.686  11.665  69.211  1.00  0.00    -0.115 C  
HETATM    4  O   UNL     1      -6.253  11.473  70.342  1.00  0.00    -0.236 OA 
BRANCH   3   5
HETATM    5  C   UNL     1      -7.054  10.488  68.359  1.00  0.00    -0.078 A  
HETATM    6  C   UNL     1      -7.499   9.257  68.889  1.00  0.00    -0.075 A  
HETATM    7  C   UNL     1      -7.742   8.115  68.079  1.00  0.00    -0.114 A  
HETATM    8  C   UNL     1      -7.564   8.306  66.691  1.00  0.00    -0.090 A  
HETATM    9  S   UNL     1      -7.697   7.019  65.484  1.00  0.00    -0.112 SA 
HETATM   10  C   UNL     1      -7.195   9.557  66.155  1.00  0.00    -0.093 A  
HETATM   11  C   UNL     1      -8.388   5.694  66.429  1.00  0.00    -0.112 A  
HETATM   12  C   UNL     1      -6.926  10.634  66.985  1.00  0.00    -0.095 A  
HETATM   13  C   UNL     1      -8.687   4.535  65.684  1.00  0.00    -0.124 A  
HETATM   14  C   UNL     1      -9.267   3.429  66.286  1.00  0.00    -0.168 A  
HETATM   15  C   UNL     1      -9.649   3.523  67.615  1.00  0.00    -0.180 A  
HETATM   16  C   UNL     1      -9.394   4.697  68.336  1.00  0.00    -0.186 A  
HETATM   17  C   UNL     1      -8.643   5.768  67.814  1.00  0.00    -0.101 A  
HETATM   18  N   UNL     1      -8.161   6.846  68.615  1.00  0.00    -0.119 NA 
BRANCH  18  19
HETATM   19  C   UNL     1      -8.125   6.690  70.116  1.00  0.00    -0.124 C  
BRANCH  19  20
HETATM   20  C   UNL     1      -9.360   7.165  70.971  1.00  0.00    -0.158 C  
HETATM   21  C   UNL     1      -9.014   8.475  71.699  1.00  0.00    -0.285 C  
BRANCH  20  22
HETATM   22  N   UNL     1     -10.622   7.331  70.165  1.00  0.00    -0.226 NA 
HETATM   23  C   UNL     1     -10.966   8.753  70.001  1.00  0.00    -0.209 C  
HETATM   24  C   UNL     1     -11.779   6.655  70.770  1.00  0.00    -0.388 C  
ENDBRANCH  20  22
ENDBRANCH  19  20
ENDBRANCH  18  19
ENDBRANCH   3   5
ENDBRANCH   2   3
TORSDOF 5
ENDMDL
MODEL      153
REMARK 921   NORMALIZED FREE ENERGY PREDICTED BY IDOCK:   -2.49 KCAL/MOL
REMARK 922        TOTAL FREE ENERGY PREDICTED BY IDOCK:   -3.96 KCAL/MOL
REMARK 923 INTER-LIGAND FREE ENERGY PREDICTED BY IDOCK:   -3.39 KCAL/MOL
REMARK 924 INTRA-LIGAND FREE ENERGY PREDICTED BY IDOCK:   -0.56 KCAL/MOL
REMARK 927      BINDING AFFINITY PREDICTED BY RF-SCORE:    0.00 PKD
ROOT
HETATM    1  C   UNL     1      -8.373   2.269  64.454  1.00  0.00    -0.083 C  
HETATM    2  C   UNL     1      -8.784   3.675  64.043  1.00  0.00    -0.095 C  
ENDROOT
BRANCH   2   3
HETATM    3  C   UNL     1      -9.045   4.567  65.246  1.00  0.00    -0.149 C  
HETATM    4  O   UNL     1      -9.918   4.306  66.066  1.00  0.00    -0.213 OA 
BRANCH   3   5
HETATM    5  C   UNL     1      -8.196   5.786  65.444  1.00  0.00    -0.138 A  
HETATM    6  C   UNL     1      -8.608   6.902  66.204  1.00  0.00    -0.147 A  
HETATM    7  C   UNL     1      -7.840   8.095  66.296  1.00  0.00    -0.095 A  
HETATM    8  C   UNL     1      -6.601   8.072  65.620  1.00  0.00    -0.042 A  
HETATM    9  S   UNL     1      -5.512   9.461  65.491  1.00  0.00    -0.045 SA 
HETATM   10  C   UNL     1      -6.154   6.929  64.926  1.00  0.00    -0.036 A  
HETATM   11  C   UNL     1      -6.230  10.602  66.636  1.00  0.00    -0.083 A  
HETATM   12  C   UNL     1      -6.953   5.801  64.826  1.00  0.00    -0.052 A  
HETATM   13  C   UNL     1      -5.503  11.798  66.805  1.00  0.00    -0.099 A  
HETATM   14  C   UNL     1      -5.926  12.770  67.698  1.00  0.00    -0.150 A  
HETATM   15  C   UNL     1      -7.019  12.497  68.506  1.00  0.00    -0.086 A  
HETATM   16  C   UNL     1      -7.706  11.284  68.367  1.00  0.00    -0.125 A  
HETATM   17  C   UNL     1      -7.422  10.355  67.347  1.00  0.00    -0.094 A  
HETATM   18  N   UNL     1      -8.271   9.251  67.038  1.00  0.00    -0.115 NA 
BRANCH  18  19
HETATM   19  C   UNL     1      -9.691   9.248  67.550  1.00  0.00    -0.158 C  
BRANCH  19  20
HETATM   20  C   UNL     1     -10.752  10.209  66.890  1.00  0.00    -0.161 C  
HETATM   21  C   UNL     1     -11.525  10.960  67.986  1.00  0.00    -0.356 C  
BRANCH  20  22
HETATM   22  N   UNL     1     -10.152  11.184  65.910  1.00  0.00    -0.238 NA 
HETATM   23  C   UNL     1     -10.808  12.500  66.000  1.00  0.00    -0.276 C  
HETATM   24  C   UNL     1     -10.250  10.726  64.517  1.00  0.00    -0.359 C  
ENDBRANCH  20  22
ENDBRANCH  19  20
ENDBRANCH  18  19
ENDBRANCH   3   5
ENDBRANCH   2   3
TORSDOF 5
ENDMDL
MODEL      154
REMARK 921   NORMALIZED FREE ENERGY PREDICTED BY IDOCK:   -2.48 KCAL/MOL
REMARK 922        TOTAL FREE ENERGY PREDICTED BY IDOCK:   -3.94 KCAL/MOL
REMARK 923 INTER-LIGAND FREE ENERGY PREDICTED BY IDOCK:   -3.69 KCAL/MOL
REMARK 924 INTRA-LIGAND FREE ENERGY PREDICTED BY IDOCK:   -0.25 KCAL/MOL
REMARK 927      BINDING AFFINITY PREDICTED BY RF-SCORE:    0.00 PKD
ROOT
HETATM    1  C   UNL     1     -12.316  13.335  63.108  1.00  0.00    -0.163 C  
HETATM    2  C   UNL     1     -11.542  12.260  63.856  1.00  0.00    -0.525 C  
ENDROOT
BRANCH   2   3
HETATM    3  C   UNL     1     -11.730  12.366  65.361  1.00  0.00    -0.402 C  
HETATM    4  O   UNL     1     -12.783  12.755  65.855  1.00  0.00    -0.432 OA 
BRANCH   3   5
HETATM    5  C   UNL     1     -10.602  11.964  66.263  1.00  0.00    -0.289 A  
HETATM    6  C   UNL     1     -10.000  10.687  66.229  1.00  0.00    -0.274 A  
HETATM    7  C   UNL     1      -9.005  10.282  67.158  1.00  0.00    -0.135 A  
HETATM    8  C   UNL     1      -8.611  11.265  68.092  1.00  0.00    -0.150 A  
HETATM    9  S   UNL     1      -7.473  10.979  69.418  1.00  0.00    -0.015 SA 
HETATM   10  C   UNL     1      -9.156  12.565  68.077  1.00  0.00    -0.200 A  
HETATM   11  C   UNL     1      -6.820   9.387  69.009  1.00  0.00    -0.054 A  
HETATM   12  C   UNL     1     -10.155  12.906  67.179  1.00  0.00    -0.243 A  
HETATM   13  C   UNL     1      -5.802   8.933  69.871  1.00  0.00    -0.031 A  
HETATM   14  C   UNL     1      -5.171   7.718  69.653  1.00  0.00    -0.023 A  
HETATM   15  C   UNL     1      -5.484   7.006  68.505  1.00  0.00    -0.017 A  
HETATM   16  C   UNL     1      -6.462   7.490  67.626  1.00  0.00    -0.057 A  
HETATM   17  C   UNL     1      -7.253   8.621  67.907  1.00  0.00    -0.088 A  
HETATM   18  N   UNL     1      -8.414   8.969  67.154  1.00  0.00    -0.113 NA 
BRANCH  18  19
HETATM   19  C   UNL     1      -9.045   7.935  66.254  1.00  0.00    -0.179 C  
BRANCH  19  20
HETATM   20  C   UNL     1      -8.159   7.210  65.171  1.00  0.00    -0.127 C  
HETATM   21  C   UNL     1      -8.840   5.901  64.735  1.00  0.00     0.155 C  
BRANCH  20  22
HETATM   22  N   UNL     1      -7.856   8.067  63.969  1.00  0.00    -0.140 NA 
HETATM   23  C   UNL     1      -7.957   7.291  62.722  1.00  0.00    -0.113 C  
HETATM   24  C   UNL     1      -6.515   8.667  64.020  1.00  0.00    -0.072 C  
ENDBRANCH  20  22
ENDBRANCH  19  20
ENDBRANCH  18  19
ENDBRANCH   3   5
ENDBRANCH   2   3
TORSDOF 5
ENDMDL
MODEL      155
REMARK 921   NORMALIZED FREE ENERGY PREDICTED BY IDOCK:   -2.43 KCAL/MOL
REMARK 922        TOTAL FREE ENERGY PREDICTED BY IDOCK:   -3.88 KCAL/MOL
REMARK 923 INTER-LIGAND FREE ENERGY PREDICTED BY IDOCK:   -4.12 KCAL/MOL
REMARK 924 INTRA-LIGAND FREE ENERGY PREDICTED BY IDOCK:    0.23 KCAL/MOL
REMARK 927      BINDING AFFINITY PREDICTED BY RF-SCORE:    0.00 PKD
ROOT
HETATM    1  C   UNL     1     -10.241   7.796  68.447  1.00  0.00    -0.230 C  
HETATM    2  C   UNL     1     -10.018   9.183  69.032  1.00  0.00    -0.189 C  
ENDROOT
BRANCH   2   3
HETATM    3  C   UNL     1      -9.539  10.173  67.983  1.00  0.00    -0.145 C  
HETATM    4  O   UNL     1      -9.892  10.095  66.812  1.00  0.00    -0.179 OA 
BRANCH   3   5
HETATM    5  C   UNL     1      -8.625  11.285  68.400  1.00  0.00    -0.155 A  
HETATM    6  C   UNL     1      -8.804  12.627  67.995  1.00  0.00    -0.195 A  
HETATM    7  C   UNL     1      -7.873  13.654  68.308  1.00  0.00    -0.141 A  
HETATM    8  C   UNL     1      -6.777  13.257  69.105  1.00  0.00    -0.092 A  
HETATM    9  S   UNL     1      -5.428  14.316  69.540  1.00  0.00    -0.093 SA 
HETATM   10  C   UNL     1      -6.640  11.935  69.575  1.00  0.00    -0.093 A  
HETATM   11  C   UNL     1      -6.018  15.901  69.021  1.00  0.00    -0.116 A  
HETATM   12  C   UNL     1      -7.549  10.954  69.210  1.00  0.00    -0.113 A  
HETATM   13  C   UNL     1      -5.160  16.976  69.328  1.00  0.00    -0.133 A  
HETATM   14  C   UNL     1      -5.508  18.280  69.015  1.00  0.00    -0.199 A  
HETATM   15  C   UNL     1      -6.769  18.521  68.491  1.00  0.00    -0.267 A  
HETATM   16  C   UNL     1      -7.637  17.450  68.235  1.00  0.00    -0.234 A  
HETATM   17  C   UNL     1      -7.250  16.103  68.366  1.00  0.00    -0.135 A  
HETATM   18  N   UNL     1      -8.028  15.016  67.867  1.00  0.00    -0.129 NA 
BRANCH  18  19
HETATM   19  C   UNL     1      -9.116  15.291  66.857  1.00  0.00    -0.240 C  
BRANCH  19  20
HETATM   20  C   UNL     1     -10.489  15.891  67.345  1.00  0.00    -0.306 C  
HETATM   21  C   UNL     1     -10.537  15.891  68.882  1.00  0.00    -0.244 C  
BRANCH  20  22
HETATM   22  N   UNL     1     -10.764  17.273  66.812  1.00  0.00    -0.170 NA 
HETATM   23  C   UNL     1      -9.836  17.618  65.723  1.00  0.00     0.052 C  
HETATM   24  C   UNL     1     -10.655  18.314  67.844  1.00  0.00    -0.370 C  
ENDBRANCH  20  22
ENDBRANCH  19  20
ENDBRANCH  18  19
ENDBRANCH   3   5
ENDBRANCH   2   3
TORSDOF 5
ENDMDL
MODEL      156
REMARK 921   NORMALIZED FREE ENERGY PREDICTED BY IDOCK:   -2.42 KCAL/MOL
REMARK 922        TOTAL FREE ENERGY PREDICTED BY IDOCK:   -3.86 KCAL/MOL
REMARK 923 INTER-LIGAND FREE ENERGY PREDICTED BY IDOCK:   -3.13 KCAL/MOL
REMARK 924 INTRA-LIGAND FREE ENERGY PREDICTED BY IDOCK:   -0.73 KCAL/MOL
REMARK 927      BINDING AFFINITY PREDICTED BY RF-SCORE:    0.00 PKD
ROOT
HETATM    1  C   UNL     1      -9.642   4.005  70.950  1.00  0.00    -0.253 C  
HETATM    2  C   UNL     1     -10.486   4.681  72.021  1.00  0.00    -0.198 C  
ENDROOT
BRANCH   2   3
HETATM    3  C   UNL     1     -10.862   6.103  71.637  1.00  0.00    -0.258 C  
HETATM    4  O   UNL     1     -12.020   6.420  71.388  1.00  0.00    -0.325 OA 
BRANCH   3   5
HETATM    5  C   UNL     1      -9.789   7.147  71.581  1.00  0.00    -0.170 A  
HETATM    6  C   UNL     1      -9.551   7.955  70.447  1.00  0.00    -0.171 A  
HETATM    7  C   UNL     1      -8.465   8.867  70.367  1.00  0.00    -0.166 A  
HETATM    8  C   UNL     1      -7.662   8.958  71.525  1.00  0.00    -0.053 A  
HETATM    9  S   UNL     1      -6.191   9.934  71.642  1.00  0.00     0.416 SA 
HETATM   10  C   UNL     1      -7.945   8.209  72.686  1.00  0.00    -0.199 A  
HETATM   11  C   UNL     1      -6.265  10.896  70.160  1.00  0.00    -0.142 A  
HETATM   12  C   UNL     1      -8.991   7.299  72.706  1.00  0.00    -0.166 A  
HETATM   13  C   UNL     1      -5.235  11.849  70.027  1.00  0.00    -0.086 A  
HETATM   14  C   UNL     1      -5.186  12.699  68.934  1.00  0.00    -0.062 A  
HETATM   15  C   UNL     1      -6.232  12.672  68.025  1.00  0.00    -0.094 A  
HETATM   16  C   UNL     1      -7.280  11.756  68.192  1.00  0.00    -0.086 A  
HETATM   17  C   UNL     1      -7.272  10.754  69.182  1.00  0.00    -0.107 A  
HETATM   18  N   UNL     1      -8.194   9.666  69.200  1.00  0.00    -0.113 NA 
BRANCH  18  19
HETATM   19  C   UNL     1      -8.982   9.348  67.953  1.00  0.00    -0.123 C  
BRANCH  19  20
HETATM   20  C   UNL     1      -8.232   8.772  66.692  1.00  0.00    -0.107 C  
HETATM   21  C   UNL     1      -7.608   7.409  67.038  1.00  0.00    -0.106 C  
BRANCH  20  22
HETATM   22  N   UNL     1      -9.109   8.651  65.473  1.00  0.00    -0.171 NA 
HETATM   23  C   UNL     1      -8.313   8.349  64.272  1.00  0.00    -0.083 C  
HETATM   24  C   UNL     1      -9.884   9.871  65.205  1.00  0.00    -0.303 C  
ENDBRANCH  20  22
ENDBRANCH  19  20
ENDBRANCH  18  19
ENDBRANCH   3   5
ENDBRANCH   2   3
TORSDOF 5
ENDMDL
MODEL      157
REMARK 921   NORMALIZED FREE ENERGY PREDICTED BY IDOCK:   -2.40 KCAL/MOL
REMARK 922        TOTAL FREE ENERGY PREDICTED BY IDOCK:   -3.83 KCAL/MOL
REMARK 923 INTER-LIGAND FREE ENERGY PREDICTED BY IDOCK:   -3.14 KCAL/MOL
REMARK 924 INTRA-LIGAND FREE ENERGY PREDICTED BY IDOCK:   -0.69 KCAL/MOL
REMARK 927      BINDING AFFINITY PREDICTED BY RF-SCORE:    0.00 PKD
ROOT
HETATM    1  C   UNL     1      -9.466   3.905  67.425  1.00  0.00    -0.236 C  
HETATM    2  C   UNL     1     -10.233   4.698  68.472  1.00  0.00     0.002 C  
ENDROOT
BRANCH   2   3
HETATM    3  C   UNL     1     -10.398   6.155  68.075  1.00  0.00    -0.199 C  
HETATM    4  O   UNL     1     -11.229   6.509  67.246  1.00  0.00    -0.376 OA 
BRANCH   3   5
HETATM    5  C   UNL     1      -9.534   7.189  68.731  1.00  0.00    -0.141 A  
HETATM    6  C   UNL     1      -9.280   8.458  68.167  1.00  0.00    -0.141 A  
HETATM    7  C   UNL     1      -8.375   9.389  68.745  1.00  0.00    -0.117 A  
HETATM    8  C   UNL     1      -7.783   8.984  69.961  1.00  0.00    -0.082 A  
HETATM    9  S   UNL     1      -6.544   9.910  70.822  1.00  0.00    -0.013 SA 
HETATM   10  C   UNL     1      -8.096   7.748  70.565  1.00  0.00    -0.103 A  
HETATM   11  C   UNL     1      -6.569  11.454  69.960  1.00  0.00    -0.031 A  
HETATM   12  C   UNL     1      -8.952   6.852  69.946  1.00  0.00    -0.142 A  
HETATM   13  C   UNL     1      -5.718  12.440  70.498  1.00  0.00    -0.162 A  
HETATM   14  C   UNL     1      -5.661  13.711  69.949  1.00  0.00    -0.109 A  
HETATM   15  C   UNL     1      -6.539  14.030  68.925  1.00  0.00    -0.101 A  
HETATM   16  C   UNL     1      -7.418  13.058  68.428  1.00  0.00    -0.128 A  
HETATM   17  C   UNL     1      -7.377  11.709  68.833  1.00  0.00    -0.107 A  
HETATM   18  N   UNL     1      -8.082  10.670  68.156  1.00  0.00    -0.111 NA 
BRANCH  18  19
HETATM   19  C   UNL     1      -8.605  10.921  66.763  1.00  0.00    -0.137 C  
BRANCH  19  20
HETATM   20  C   UNL     1      -7.664  10.661  65.526  1.00  0.00    -0.083 C  
HETATM   21  C   UNL     1      -6.312  10.111  66.010  1.00  0.00    -0.094 C  
BRANCH  20  22
HETATM   22  N   UNL     1      -8.265   9.742  64.495  1.00  0.00    -0.145 NA 
HETATM   23  C   UNL     1      -7.234   9.215  63.586  1.00  0.00    -0.093 C  
HETATM   24  C   UNL     1      -9.294  10.399  63.676  1.00  0.00    -0.291 C  
ENDBRANCH  20  22
ENDBRANCH  19  20
ENDBRANCH  18  19
ENDBRANCH   3   5
ENDBRANCH   2   3
TORSDOF 5
ENDMDL
MODEL      158
REMARK 921   NORMALIZED FREE ENERGY PREDICTED BY IDOCK:   -2.33 KCAL/MOL
REMARK 922        TOTAL FREE ENERGY PREDICTED BY IDOCK:   -3.75 KCAL/MOL
REMARK 923 INTER-LIGAND FREE ENERGY PREDICTED BY IDOCK:   -4.77 KCAL/MOL
REMARK 924 INTRA-LIGAND FREE ENERGY PREDICTED BY IDOCK:    1.02 KCAL/MOL
REMARK 927      BINDING AFFINITY PREDICTED BY RF-SCORE:    0.00 PKD
ROOT
HETATM    1  C   UNL     1     -12.251  15.953  72.165  1.00  0.00    -0.578 C  
HETATM    2  C   UNL     1     -13.059  15.303  71.052  1.00  0.00    -0.544 C  
ENDROOT
BRANCH   2   3
HETATM    3  C   UNL     1     -12.299  15.278  69.736  1.00  0.00    -0.253 C  
HETATM    4  O   UNL     1     -12.254  16.255  68.997  1.00  0.00    -0.031 OA 
BRANCH   3   5
HETATM    5  C   UNL     1     -11.568  14.030  69.344  1.00  0.00    -0.349 A  
HETATM    6  C   UNL     1     -10.333  14.038  68.659  1.00  0.00    -0.238 A  
HETATM    7  C   UNL     1      -9.701  12.851  68.198  1.00  0.00    -0.227 A  
HETATM    8  C   UNL     1     -10.364  11.647  68.521  1.00  0.00    -0.212 A  
HETATM    9  S   UNL     1      -9.844  10.047  67.973  1.00  0.00    -0.145 SA 
HETATM   10  C   UNL     1     -11.557  11.634  69.273  1.00  0.00    -0.385 A  
HETATM   11  C   UNL     1      -8.247  10.388  67.294  1.00  0.00    -0.121 A  
HETATM   12  C   UNL     1     -12.162  12.818  69.666  1.00  0.00    -0.188 A  
HETATM   13  C   UNL     1      -7.546   9.251  66.845  1.00  0.00    -0.091 A  
HETATM   14  C   UNL     1      -6.266   9.362  66.323  1.00  0.00    -0.064 A  
HETATM   15  C   UNL     1      -5.644  10.600  66.351  1.00  0.00    -0.080 A  
HETATM   16  C   UNL     1      -6.331  11.717  66.846  1.00  0.00    -0.131 A  
HETATM   17  C   UNL     1      -7.690  11.681  67.211  1.00  0.00    -0.154 A  
HETATM   18  N   UNL     1      -8.461  12.854  67.467  1.00  0.00    -0.174 NA 
BRANCH  18  19
HETATM   19  C   UNL     1      -7.943  14.192  66.999  1.00  0.00     0.037 C  
BRANCH  19  20
HETATM   20  C   UNL     1      -8.022  15.433  67.968  1.00  0.00    -0.130 C  
HETATM   21  C   UNL     1      -7.675  14.994  69.400  1.00  0.00    -0.190 C  
BRANCH  20  22
HETATM   22  N   UNL     1      -7.146  16.583  67.545  1.00  0.00    -0.132 NA 
HETATM   23  C   UNL     1      -5.721  16.263  67.732  1.00  0.00    -0.140 C  
HETATM   24  C   UNL     1      -7.431  17.820  68.286  1.00  0.00    -0.247 C  
ENDBRANCH  20  22
ENDBRANCH  19  20
ENDBRANCH  18  19
ENDBRANCH   3   5
ENDBRANCH   2   3
TORSDOF 5
ENDMDL
MODEL      159
REMARK 921   NORMALIZED FREE ENERGY PREDICTED BY IDOCK:   -2.15 KCAL/MOL
REMARK 922        TOTAL FREE ENERGY PREDICTED BY IDOCK:   -3.52 KCAL/MOL
REMARK 923 INTER-LIGAND FREE ENERGY PREDICTED BY IDOCK:   -3.24 KCAL/MOL
REMARK 924 INTRA-LIGAND FREE ENERGY PREDICTED BY IDOCK:   -0.28 KCAL/MOL
REMARK 927      BINDING AFFINITY PREDICTED BY RF-SCORE:    0.00 PKD
ROOT
HETATM    1  C   UNL     1      -9.293  11.317  63.011  1.00  0.00    -0.359 C  
HETATM    2  C   UNL     1      -9.446   9.980  63.721  1.00  0.00    -0.267 C  
ENDROOT
BRANCH   2   3
HETATM    3  C   UNL     1      -8.123   9.242  63.838  1.00  0.00    -0.151 C  
HETATM    4  O   UNL     1      -7.086   9.696  63.367  1.00  0.00    -0.100 OA 
BRANCH   3   5
HETATM    5  C   UNL     1      -8.084   7.933  64.567  1.00  0.00    -0.114 A  
HETATM    6  C   UNL     1      -8.347   7.807  65.949  1.00  0.00    -0.135 A  
HETATM    7  C   UNL     1      -8.204   6.580  66.650  1.00  0.00    -0.112 A  
HETATM    8  C   UNL     1      -7.833   5.470  65.860  1.00  0.00    -0.104 A  
HETATM    9  S   UNL     1      -7.484   3.860  66.507  1.00  0.00    -0.084 SA 
HETATM   10  C   UNL     1      -7.646   5.579  64.467  1.00  0.00    -0.080 A  
HETATM   11  C   UNL     1      -8.036   4.006  68.181  1.00  0.00    -0.077 A  
HETATM   12  C   UNL     1      -7.755   6.804  63.829  1.00  0.00    -0.111 A  
HETATM   13  C   UNL     1      -7.954   2.815  68.931  1.00  0.00    -0.062 A  
HETATM   14  C   UNL     1      -8.385   2.770  70.248  1.00  0.00    -0.073 A  
HETATM   15  C   UNL     1      -9.002   3.891  70.782  1.00  0.00    -0.153 A  
HETATM   16  C   UNL     1      -9.125   5.055  70.012  1.00  0.00    -0.166 A  
HETATM   17  C   UNL     1      -8.536   5.200  68.741  1.00  0.00    -0.087 A  
HETATM   18  N   UNL     1      -8.434   6.452  68.065  1.00  0.00    -0.118 NA 
BRANCH  18  19
HETATM   19  C   UNL     1      -8.626   7.728  68.848  1.00  0.00    -0.132 C  
BRANCH  19  20
HETATM   20  C   UNL     1     -10.087   8.239  69.147  1.00  0.00    -0.202 C  
HETATM   21  C   UNL     1     -11.094   7.466  68.280  1.00  0.00     0.121 C  
BRANCH  20  22
HETATM   22  N   UNL     1     -10.469   8.147  70.602  1.00  0.00    -0.207 NA 
HETATM   23  C   UNL     1     -11.849   8.613  70.819  1.00  0.00    -0.171 C  
HETATM   24  C   UNL     1      -9.585   8.932  71.475  1.00  0.00    -0.292 C  
ENDBRANCH  20  22
ENDBRANCH  19  20
ENDBRANCH  18  19
ENDBRANCH   3   5
ENDBRANCH   2   3
TORSDOF 5
ENDMDL
MODEL      160
REMARK 921   NORMALIZED FREE ENERGY PREDICTED BY IDOCK:   -2.10 KCAL/MOL
REMARK 922        TOTAL FREE ENERGY PREDICTED BY IDOCK:   -3.45 KCAL/MOL
REMARK 923 INTER-LIGAND FREE ENERGY PREDICTED BY IDOCK:   -3.06 KCAL/MOL
REMARK 924 INTRA-LIGAND FREE ENERGY PREDICTED BY IDOCK:   -0.39 KCAL/MOL
REMARK 927      BINDING AFFINITY PREDICTED BY RF-SCORE:    0.00 PKD
ROOT
HETATM    1  C   UNL     1      -9.795  11.345  63.073  1.00  0.00    -0.373 C  
HETATM    2  C   UNL     1      -9.525  10.353  64.194  1.00  0.00    -0.353 C  
ENDROOT
BRANCH   2   3
HETATM    3  C   UNL     1      -8.042  10.060  64.351  1.00  0.00    -0.156 C  
HETATM    4  O   UNL     1      -7.222  10.410  63.509  1.00  0.00    -0.113 OA 
BRANCH   3   5
HETATM    5  C   UNL     1      -7.570   9.343  65.579  1.00  0.00    -0.099 A  
HETATM    6  C   UNL     1      -8.221   9.436  66.829  1.00  0.00    -0.112 A  
HETATM    7  C   UNL     1      -7.705   8.838  68.010  1.00  0.00    -0.101 A  
HETATM    8  C   UNL     1      -6.520   8.090  67.844  1.00  0.00    -0.053 A  
HETATM    9  S   UNL     1      -5.621   7.340  69.171  1.00  0.00    -0.019 SA 
HETATM   10  C   UNL     1      -5.912   7.932  66.581  1.00  0.00    -0.045 A  
HETATM   11  C   UNL     1      -6.746   7.513  70.525  1.00  0.00    -0.047 A  
HETATM   12  C   UNL     1      -6.425   8.567  65.462  1.00  0.00    -0.059 A  
HETATM   13  C   UNL     1      -6.315   6.913  71.726  1.00  0.00    -0.042 A  
HETATM   14  C   UNL     1      -7.110   6.937  72.861  1.00  0.00    -0.074 A  
HETATM   15  C   UNL     1      -8.387   7.466  72.764  1.00  0.00    -0.137 A  
HETATM   16  C   UNL     1      -8.828   8.015  71.552  1.00  0.00    -0.178 A  
HETATM   17  C   UNL     1      -7.986   8.177  70.434  1.00  0.00    -0.099 A  
HETATM   18  N   UNL     1      -8.343   8.960  69.296  1.00  0.00    -0.117 NA 
BRANCH  18  19
HETATM   19  C   UNL     1      -9.483   9.943  69.406  1.00  0.00    -0.213 C  
BRANCH  19  20
HETATM   20  C   UNL     1     -10.874   9.588  68.755  1.00  0.00    -0.142 C  
HETATM   21  C   UNL     1     -11.125   8.075  68.860  1.00  0.00     0.246 C  
BRANCH  20  22
HETATM   22  N   UNL     1     -12.028  10.353  69.348  1.00  0.00    -0.146 NA 
HETATM   23  C   UNL     1     -12.011  11.761  68.918  1.00  0.00    -0.271 C  
HETATM   24  C   UNL     1     -12.032  10.330  70.818  1.00  0.00    -0.360 C  
ENDBRANCH  20  22
ENDBRANCH  19  20
ENDBRANCH  18  19
ENDBRANCH   3   5
ENDBRANCH   2   3
TORSDOF 5
ENDMDL
MODEL      161
REMARK 921   NORMALIZED FREE ENERGY PREDICTED BY IDOCK:   -1.91 KCAL/MOL
REMARK 922        TOTAL FREE ENERGY PREDICTED BY IDOCK:   -3.20 KCAL/MOL
REMARK 923 INTER-LIGAND FREE ENERGY PREDICTED BY IDOCK:   -2.94 KCAL/MOL
REMARK 924 INTRA-LIGAND FREE ENERGY PREDICTED BY IDOCK:   -0.26 KCAL/MOL
REMARK 927      BINDING AFFINITY PREDICTED BY RF-SCORE:    0.00 PKD
ROOT
HETATM    1  C   UNL     1      -9.200   2.016  70.676  1.00  0.00    -0.182 C  
HETATM    2  C   UNL     1      -9.551   3.187  71.581  1.00  0.00    -0.227 C  
ENDROOT
BRANCH   2   3
HETATM    3  C   UNL     1      -8.360   4.102  71.817  1.00  0.00    -0.095 C  
HETATM    4  O   UNL     1      -7.374   3.729  72.444  1.00  0.00    -0.047 OA 
BRANCH   3   5
HETATM    5  C   UNL     1      -8.386   5.489  71.250  1.00  0.00    -0.126 A  
HETATM    6  C   UNL     1      -8.195   5.769  69.879  1.00  0.00    -0.115 A  
HETATM    7  C   UNL     1      -8.116   7.092  69.369  1.00  0.00    -0.130 A  
HETATM    8  C   UNL     1      -8.298   8.120  70.319  1.00  0.00    -0.124 A  
HETATM    9  S   UNL     1      -8.139   9.846  69.961  1.00  0.00    -0.135 SA 
HETATM   10  C   UNL     1      -8.567   7.840  71.675  1.00  0.00    -0.138 A  
HETATM   11  C   UNL     1      -8.051   9.852  68.195  1.00  0.00    -0.104 A  
HETATM   12  C   UNL     1      -8.594   6.534  72.138  1.00  0.00    -0.123 A  
HETATM   13  C   UNL     1      -8.003  11.136  67.615  1.00  0.00    -0.116 A  
HETATM   14  C   UNL     1      -7.968  11.296  66.238  1.00  0.00    -0.086 A  
HETATM   15  C   UNL     1      -8.093  10.172  65.437  1.00  0.00    -0.149 A  
HETATM   16  C   UNL     1      -8.191   8.902  66.023  1.00  0.00    -0.117 A  
HETATM   17  C   UNL     1      -8.043   8.683  67.406  1.00  0.00    -0.102 A  
HETATM   18  N   UNL     1      -7.884   7.386  67.978  1.00  0.00    -0.116 NA 
BRANCH  18  19
HETATM   19  C   UNL     1      -7.501   6.230  67.087  1.00  0.00    -0.084 C  
BRANCH  19  20
HETATM   20  C   UNL     1      -8.533   5.704  66.019  1.00  0.00    -0.132 C  
HETATM   21  C   UNL     1      -7.779   5.140  64.803  1.00  0.00    -0.086 C  
BRANCH  20  22
HETATM   22  N   UNL     1      -9.492   4.677  66.563  1.00  0.00    -0.151 NA 
HETATM   23  C   UNL     1     -10.623   5.318  67.253  1.00  0.00    -0.127 C  
HETATM   24  C   UNL     1      -8.856   3.748  67.508  1.00  0.00    -0.122 C  
ENDBRANCH  20  22
ENDBRANCH  19  20
ENDBRANCH  18  19
ENDBRANCH   3   5
ENDBRANCH   2   3
TORSDOF 5
ENDMDL
MODEL      162
REMARK 921   NORMALIZED FREE ENERGY PREDICTED BY IDOCK:   -1.46 KCAL/MOL
REMARK 922        TOTAL FREE ENERGY PREDICTED BY IDOCK:   -2.62 KCAL/MOL
REMARK 923 INTER-LIGAND FREE ENERGY PREDICTED BY IDOCK:   -2.47 KCAL/MOL
REMARK 924 INTRA-LIGAND FREE ENERGY PREDICTED BY IDOCK:   -0.15 KCAL/MOL
REMARK 927      BINDING AFFINITY PREDICTED BY RF-SCORE:    0.00 PKD
ROOT
HETATM    1  C   UNL     1      -5.665  16.760  70.162  1.00  0.00    -0.207 C  
HETATM    2  C   UNL     1      -5.225  15.724  69.139  1.00  0.00    -0.101 C  
ENDROOT
BRANCH   2   3
HETATM    3  C   UNL     1      -6.223  14.585  69.017  1.00  0.00    -0.092 C  
HETATM    4  O   UNL     1      -6.150  13.584  69.721  1.00  0.00    -0.115 OA 
BRANCH   3   5
HETATM    5  C   UNL     1      -7.337  14.699  68.021  1.00  0.00    -0.142 A  
HETATM    6  C   UNL     1      -7.981  13.581  67.447  1.00  0.00    -0.165 A  
HETATM    7  C   UNL     1      -8.962  13.701  66.426  1.00  0.00     0.033 A  
HETATM    8  C   UNL     1      -9.297  15.022  66.058  1.00  0.00    -0.269 A  
HETATM    9  S   UNL     1     -10.406  15.438  64.743  1.00  0.00     0.163 SA 
HETATM   10  C   UNL     1      -8.711  16.140  66.687  1.00  0.00    -0.300 A  
HETATM   11  C   UNL     1     -11.122  13.869  64.351  1.00  0.00    -0.319 A  
HETATM   12  C   UNL     1      -7.727  15.978  67.649  1.00  0.00    -0.165 A  
HETATM   13  C   UNL     1     -12.129  13.914  63.366  1.00  0.00     0.014 A  
HETATM   14  C   UNL     1     -12.805  12.766  62.984  1.00  0.00     0.424 A  
HETATM   15  C   UNL     1     -12.548  11.587  63.667  1.00  0.00    -0.079 A  
HETATM   16  C   UNL     1     -11.580  11.562  64.680  1.00  0.00    -0.117 A  
HETATM   17  C   UNL     1     -10.745  12.659  64.969  1.00  0.00    -0.293 A  
HETATM   18  N   UNL     1      -9.596  12.564  65.809  1.00  0.00    -0.184 NA 
BRANCH  18  19
HETATM   19  C   UNL     1      -9.024  11.204  66.125  1.00  0.00    -0.195 C  
BRANCH  19  20
HETATM   20  C   UNL     1      -8.196  10.439  65.023  1.00  0.00    -0.152 C  
HETATM   21  C   UNL     1      -7.477   9.236  65.656  1.00  0.00    -0.094 C  
BRANCH  20  22
HETATM   22  N   UNL     1      -9.027   9.994  63.848  1.00  0.00    -0.222 NA 
HETATM   23  C   UNL     1      -8.824   8.563  63.564  1.00  0.00     0.377 C  
HETATM   24  C   UNL     1      -8.727  10.744  62.620  1.00  0.00    -0.268 C  
ENDBRANCH  20  22
ENDBRANCH  19  20
ENDBRANCH  18  19
ENDBRANCH   3   5
ENDBRANCH   2   3
TORSDOF 5
ENDMDL
MODEL      163
REMARK 921   NORMALIZED FREE ENERGY PREDICTED BY IDOCK:   -1.06 KCAL/MOL
REMARK 922        TOTAL FREE ENERGY PREDICTED BY IDOCK:   -2.11 KCAL/MOL
REMARK 923 INTER-LIGAND FREE ENERGY PREDICTED BY IDOCK:   -1.58 KCAL/MOL
REMARK 924 INTRA-LIGAND FREE ENERGY PREDICTED BY IDOCK:   -0.53 KCAL/MOL
REMARK 927      BINDING AFFINITY PREDICTED BY RF-SCORE:    0.00 PKD
ROOT
HETATM    1  C   UNL     1     -11.655  15.061  63.883  1.00  0.00     0.346 C  
HETATM    2  C   UNL     1     -12.775  15.060  64.912  1.00  0.00     0.238 C  
ENDROOT
BRANCH   2   3
HETATM    3  C   UNL     1     -12.528  14.050  66.021  1.00  0.00    -0.455 C  
HETATM    4  O   UNL     1     -13.336  13.164  66.281  1.00  0.00     0.589 OA 
BRANCH   3   5
HETATM    5  C   UNL     1     -11.252  14.128  66.804  1.00  0.00    -0.330 A  
HETATM    6  C   UNL     1     -10.601  12.995  67.339  1.00  0.00    -0.239 A  
HETATM    7  C   UNL     1      -9.451  13.091  68.168  1.00  0.00    -0.218 A  
HETATM    8  C   UNL     1      -8.962  14.399  68.379  1.00  0.00    -0.188 A  
HETATM    9  S   UNL     1      -7.614  14.796  69.455  1.00  0.00    -0.032 SA 
HETATM   10  C   UNL     1      -9.566  15.523  67.781  1.00  0.00    -0.209 A  
HETATM   11  C   UNL     1      -6.956  13.198  69.831  1.00  0.00     0.484 A  
HETATM   12  C   UNL     1     -10.712  15.389  67.013  1.00  0.00    -0.321 A  
HETATM   13  C   UNL     1      -5.792  13.215  70.625  1.00  0.00    -0.143 A  
HETATM   14  C   UNL     1      -5.145  12.038  70.968  1.00  0.00    -0.137 A  
HETATM   15  C   UNL     1      -5.601  10.848  70.424  1.00  0.00    -0.101 A  
HETATM   16  C   UNL     1      -6.730  10.846  69.594  1.00  0.00    -0.131 A  
HETATM   17  C   UNL     1      -7.521  11.989  69.373  1.00  0.00     0.299 A  
HETATM   18  N   UNL     1      -8.803  11.943  68.748  1.00  0.00    -0.023 NA 
BRANCH  18  19
HETATM   19  C   UNL     1      -9.518  10.619  68.631  1.00  0.00    -0.176 C  
BRANCH  19  20
HETATM   20  C   UNL     1     -10.261  10.029  69.889  1.00  0.00    -0.260 C  
HETATM   21  C   UNL     1     -11.731   9.744  69.536  1.00  0.00     0.106 C  
BRANCH  20  22
HETATM   22  N   UNL     1      -9.608   8.792  70.448  1.00  0.00    -0.173 NA 
HETATM   23  C   UNL     1     -10.101   7.579  69.774  1.00  0.00    -0.194 C  
HETATM   24  C   UNL     1      -9.834   8.629  71.891  1.00  0.00    -0.314 C  
ENDBRANCH  20  22
ENDBRANCH  19  20
ENDBRANCH  18  19
ENDBRANCH   3   5
ENDBRANCH   2   3
TORSDOF 5
ENDMDL
MODEL      164
REMARK 921   NORMALIZED FREE ENERGY PREDICTED BY IDOCK:    0.08 KCAL/MOL
REMARK 922        TOTAL FREE ENERGY PREDICTED BY IDOCK:   -0.63 KCAL/MOL
REMARK 923 INTER-LIGAND FREE ENERGY PREDICTED BY IDOCK:   -0.51 KCAL/MOL
REMARK 924 INTRA-LIGAND FREE ENERGY PREDICTED BY IDOCK:   -0.12 KCAL/MOL
REMARK 927      BINDING AFFINITY PREDICTED BY RF-SCORE:    0.00 PKD
ROOT
HETATM    1  C   UNL     1      -9.486   3.856  67.442  1.00  0.00    -0.236 C  
HETATM    2  C   UNL     1     -10.642   4.506  68.187  1.00  0.00     0.600 C  
ENDROOT
BRANCH   2   3
HETATM    3  C   UNL     1     -10.691   6.009  67.964  1.00  0.00    -0.282 C  
HETATM    4  O   UNL     1     -11.574   6.535  67.296  1.00  0.00    -0.015 OA 
BRANCH   3   5
HETATM    5  C   UNL     1      -9.640   6.870  68.597  1.00  0.00    -0.133 A  
HETATM    6  C   UNL     1      -9.479   8.241  68.299  1.00  0.00    -0.146 A  
HETATM    7  C   UNL     1      -8.414   9.022  68.824  1.00  0.00    -0.131 A  
HETATM    8  C   UNL     1      -7.551   8.349  69.715  1.00  0.00    -0.087 A  
HETATM    9  S   UNL     1      -6.092   9.063  70.418  1.00  0.00    -0.041 SA 
HETATM   10  C   UNL     1      -7.757   7.001  70.074  1.00  0.00    -0.104 A  
HETATM   11  C   UNL     1      -6.264  10.767  69.977  1.00  0.00    -0.119 A  
HETATM   12  C   UNL     1      -8.784   6.264  69.506  1.00  0.00    -0.132 A  
HETATM   13  C   UNL     1      -5.259  11.610  70.491  1.00  0.00    -0.117 A  
HETATM   14  C   UNL     1      -5.284  12.977  70.257  1.00  0.00    -0.106 A  
HETATM   15  C   UNL     1      -6.378  13.516  69.599  1.00  0.00    -0.105 A  
HETATM   16  C   UNL     1      -7.400  12.676  69.135  1.00  0.00     0.134 A  
HETATM   17  C   UNL     1      -7.320  11.271  69.189  1.00  0.00    -0.104 A  
HETATM   18  N   UNL     1      -8.222  10.411  68.495  1.00  0.00    -0.113 NA 
BRANCH  18  19
HETATM   19  C   UNL     1      -9.071  10.977  67.383  1.00  0.00    -0.141 C  
BRANCH  19  20
HETATM   20  C   UNL     1     -10.340  11.838  67.742  1.00  0.00    -0.194 C  
HETATM   21  C   UNL     1     -10.958  12.414  66.457  1.00  0.00    -0.312 C  
BRANCH  20  22
HETATM   22  N   UNL     1     -11.379  11.080  68.528  1.00  0.00    -0.263 NA 
HETATM   23  C   UNL     1     -12.711  11.687  68.373  1.00  0.00     1.798 C  
HETATM   24  C   UNL     1     -11.075  11.021  69.965  1.00  0.00    -0.161 C  
ENDBRANCH  20  22
ENDBRANCH  19  20
ENDBRANCH  18  19
ENDBRANCH   3   5
ENDBRANCH   2   3
TORSDOF 5
ENDMDL
MODEL      165
REMARK 921   NORMALIZED FREE ENERGY PREDICTED BY IDOCK:    0.30 KCAL/MOL
REMARK 922        TOTAL FREE ENERGY PREDICTED BY IDOCK:   -0.35 KCAL/MOL
REMARK 923 INTER-LIGAND FREE ENERGY PREDICTED BY IDOCK:   -1.00 KCAL/MOL
REMARK 924 INTRA-LIGAND FREE ENERGY PREDICTED BY IDOCK:    0.66 KCAL/MOL
REMARK 927      BINDING AFFINITY PREDICTED BY RF-SCORE:    0.00 PKD
ROOT
HETATM    1  C   UNL     1     -14.159  10.081  70.227  1.00  0.00     1.495 C  
HETATM    2  C   UNL     1     -13.242   9.476  71.280  1.00  0.00    -0.400 C  
ENDROOT
BRANCH   2   3
HETATM    3  C   UNL     1     -11.804   9.940  71.116  1.00  0.00    -0.386 C  
HETATM    4  O   UNL     1     -11.143  10.345  72.067  1.00  0.00     1.362 OA 
BRANCH   3   5
HETATM    5  C   UNL     1     -11.172   9.880  69.759  1.00  0.00    -0.279 A  
HETATM    6  C   UNL     1     -10.669   8.689  69.190  1.00  0.00    -0.136 A  
HETATM    7  C   UNL     1      -9.977   8.662  67.949  1.00  0.00    -0.188 A  
HETATM    8  C   UNL     1      -9.873   9.904  67.287  1.00  0.00    -0.182 A  
HETATM    9  S   UNL     1      -8.969  10.159  65.786  1.00  0.00    -0.169 SA 
HETATM   10  C   UNL     1     -10.443  11.080  67.816  1.00  0.00    -0.232 A  
HETATM   11  C   UNL     1      -8.608   8.502  65.285  1.00  0.00    -0.165 A  
HETATM   12  C   UNL     1     -11.073  11.069  69.051  1.00  0.00    -0.301 A  
HETATM   13  C   UNL     1      -7.949   8.395  64.044  1.00  0.00    -0.151 A  
HETATM   14  C   UNL     1      -7.634   7.156  63.507  1.00  0.00    -0.109 A  
HETATM   15  C   UNL     1      -8.078   6.018  64.162  1.00  0.00    -0.095 A  
HETATM   16  C   UNL     1      -8.777   6.134  65.371  1.00  0.00    -0.071 A  
HETATM   17  C   UNL     1      -8.952   7.361  66.040  1.00  0.00    -0.121 A  
HETATM   18  N   UNL     1      -9.429   7.458  67.381  1.00  0.00    -0.137 NA 
BRANCH  18  19
HETATM   19  C   UNL     1      -9.414   6.230  68.258  1.00  0.00    -0.117 C  
BRANCH  19  20
HETATM   20  C   UNL     1      -8.942   6.356  69.757  1.00  0.00    -0.141 C  
HETATM   21  C   UNL     1     -10.164   6.319  70.690  1.00  0.00    -0.240 C  
BRANCH  20  22
HETATM   22  N   UNL     1      -7.941   5.306  70.162  1.00  0.00    -0.079 NA 
HETATM   23  C   UNL     1      -8.077   4.964  71.588  1.00  0.00    -0.112 C  
HETATM   24  C   UNL     1      -6.551   5.723  69.929  1.00  0.00    -0.046 C  
ENDBRANCH  20  22
ENDBRANCH  19  20
ENDBRANCH  18  19
ENDBRANCH   3   5
ENDBRANCH   2   3
TORSDOF 5
ENDMDL
MODEL      166
REMARK 921   NORMALIZED FREE ENERGY PREDICTED BY IDOCK:    0.99 KCAL/MOL
REMARK 922        TOTAL FREE ENERGY PREDICTED BY IDOCK:    0.54 KCAL/MOL
REMARK 923 INTER-LIGAND FREE ENERGY PREDICTED BY IDOCK:    1.29 KCAL/MOL
REMARK 924 INTRA-LIGAND FREE ENERGY PREDICTED BY IDOCK:   -0.75 KCAL/MOL
REMARK 927      BINDING AFFINITY PREDICTED BY RF-SCORE:    0.00 PKD
ROOT
HETATM    1  C   UNL     1     -11.454  15.039  63.213  1.00  0.00     2.376 C  
HETATM    2  C   UNL     1     -12.828  14.595  63.694  1.00  0.00     1.125 C  
ENDROOT
BRANCH   2   3
HETATM    3  C   UNL     1     -12.737  13.566  64.808  1.00  0.00    -0.230 C  
HETATM    4  O   UNL     1     -13.448  12.567  64.825  1.00  0.00    -0.645 OA 
BRANCH   3   5
HETATM    5  C   UNL     1     -11.736  13.771  65.904  1.00  0.00    -0.370 A  
HETATM    6  C   UNL     1     -10.561  12.997  66.035  1.00  0.00    -0.292 A  
HETATM    7  C   UNL     1      -9.673  13.129  67.137  1.00  0.00    -0.235 A  
HETATM    8  C   UNL     1     -10.013  14.130  68.073  1.00  0.00    -0.226 A  
HETATM    9  S   UNL     1      -9.135  14.419  69.582  1.00  0.00     0.772 SA 
HETATM   10  C   UNL     1     -11.143  14.955  67.902  1.00  0.00    -0.304 A  
HETATM   11  C   UNL     1      -7.690  13.421  69.369  1.00  0.00     0.534 A  
HETATM   12  C   UNL     1     -12.006  14.765  66.834  1.00  0.00    -0.212 A  
HETATM   13  C   UNL     1      -6.746  13.525  70.410  1.00  0.00     0.489 A  
HETATM   14  C   UNL     1      -5.549  12.828  70.361  1.00  0.00    -0.165 A  
HETATM   15  C   UNL     1      -5.247  12.111  69.214  1.00  0.00    -0.060 A  
HETATM   16  C   UNL     1      -6.170  12.053  68.161  1.00  0.00    -0.053 A  
HETATM   17  C   UNL     1      -7.468  12.592  68.250  1.00  0.00    -0.122 A  
HETATM   18  N   UNL     1      -8.494  12.318  67.297  1.00  0.00    -0.174 NA 
BRANCH  18  19
HETATM   19  C   UNL     1      -8.333  11.148  66.357  1.00  0.00    -0.167 C  
BRANCH  19  20
HETATM   20  C   UNL     1      -8.710   9.701  66.853  1.00  0.00    -0.131 C  
HETATM   21  C   UNL     1     -10.066   9.286  66.258  1.00  0.00    -0.322 C  
BRANCH  20  22
HETATM   22  N   UNL     1      -7.662   8.665  66.540  1.00  0.00    -0.094 NA 
HETATM   23  C   UNL     1      -7.396   8.598  65.094  1.00  0.00    -0.088 C  
HETATM   24  C   UNL     1      -8.038   7.318  66.992  1.00  0.00    -0.117 C  
ENDBRANCH  20  22
ENDBRANCH  19  20
ENDBRANCH  18  19
ENDBRANCH   3   5
ENDBRANCH   2   3
TORSDOF 5
ENDMDL
MODEL      167
REMARK 921   NORMALIZED FREE ENERGY PREDICTED BY IDOCK:    3.47 KCAL/MOL
REMARK 922        TOTAL FREE ENERGY PREDICTED BY IDOCK:    3.75 KCAL/MOL
REMARK 923 INTER-LIGAND FREE ENERGY PREDICTED BY IDOCK:    1.16 KCAL/MOL
REMARK 924 INTRA-LIGAND FREE ENERGY PREDICTED BY IDOCK:    2.59 KCAL/MOL
REMARK 927      BINDING AFFINITY PREDICTED BY RF-SCORE:    0.00 PKD
ROOT
HETATM    1  C   UNL     1      -9.625   8.746  65.502  1.00  0.00    -0.007 C  
HETATM    2  C   UNL     1     -10.659   9.729  64.974  1.00  0.00     1.102 C  
ENDROOT
BRANCH   2   3
HETATM    3  C   UNL     1     -10.801  10.945  65.875  1.00  0.00    -0.062 C  
HETATM    4  O   UNL     1     -11.781  11.679  65.820  1.00  0.00    -0.309 OA 
BRANCH   3   5
HETATM    5  C   UNL     1      -9.719  11.241  66.870  1.00  0.00    -0.215 A  
HETATM    6  C   UNL     1      -9.437  10.411  67.977  1.00  0.00    -0.152 A  
HETATM    7  C   UNL     1      -8.482  10.755  68.971  1.00  0.00    -0.133 A  
HETATM    8  C   UNL     1      -7.786  11.963  68.751  1.00  0.00    -0.074 A  
HETATM    9  S   UNL     1      -6.629  12.667  69.891  1.00  0.00     0.251 SA 
HETATM   10  C   UNL     1      -8.012  12.753  67.605  1.00  0.00    -0.165 A  
HETATM   11  C   UNL     1      -6.405  11.352  71.052  1.00  0.00     0.957 A  
HETATM   12  C   UNL     1      -8.983  12.402  66.681  1.00  0.00    -0.184 A  
HETATM   13  C   UNL     1      -5.446  11.609  72.052  1.00  0.00     0.577 A  
HETATM   14  C   UNL     1      -5.138  10.654  73.009  1.00  0.00     0.265 A  
HETATM   15  C   UNL     1      -5.712   9.398  72.899  1.00  0.00     0.091 A  
HETATM   16  C   UNL     1      -6.628   9.134  71.871  1.00  0.00     0.073 A  
HETATM   17  C   UNL     1      -7.104  10.128  70.995  1.00  0.00     0.607 A  
HETATM   18  N   UNL     1      -8.216   9.932  70.123  1.00  0.00    -0.179 NA 
BRANCH  18  19
HETATM   19  C   UNL     1      -9.151   8.774  70.370  1.00  0.00    -0.176 C  
BRANCH  19  20
HETATM   20  C   UNL     1     -10.658   9.061  70.733  1.00  0.00    -0.240 C  
HETATM   21  C   UNL     1     -10.932   8.633  72.184  1.00  0.00    -0.434 C  
BRANCH  20  22
HETATM   22  N   UNL     1     -11.063  10.497  70.525  1.00  0.00    -0.267 NA 
HETATM   23  C   UNL     1     -12.001  10.942  71.569  1.00  0.00     0.141 C  
HETATM   24  C   UNL     1     -11.699  10.727  69.220  1.00  0.00    -0.303 C  
ENDBRANCH  20  22
ENDBRANCH  19  20
ENDBRANCH  18  19
ENDBRANCH   3   5
ENDBRANCH   2   3
TORSDOF 5
ENDMDL
MODEL      168
REMARK 921   NORMALIZED FREE ENERGY PREDICTED BY IDOCK:    3.56 KCAL/MOL
REMARK 922        TOTAL FREE ENERGY PREDICTED BY IDOCK:    3.86 KCAL/MOL
REMARK 923 INTER-LIGAND FREE ENERGY PREDICTED BY IDOCK:    2.34 KCAL/MOL
REMARK 924 INTRA-LIGAND FREE ENERGY PREDICTED BY IDOCK:    1.52 KCAL/MOL
REMARK 927      BINDING AFFINITY PREDICTED BY RF-SCORE:    0.00 PKD
ROOT
HETATM    1  C   UNL     1      -9.626   8.746  65.502  1.00  0.00    -0.007 C  
HETATM    2  C   UNL     1     -10.661   9.725  64.968  1.00  0.00     1.102 C  
ENDROOT
BRANCH   2   3
HETATM    3  C   UNL     1     -10.811  10.942  65.865  1.00  0.00    -0.062 C  
HETATM    4  O   UNL     1     -11.793  11.674  65.802  1.00  0.00    -0.307 OA 
BRANCH   3   5
HETATM    5  C   UNL     1      -9.739  11.241  66.869  1.00  0.00    -0.215 A  
HETATM    6  C   UNL     1      -9.466  10.414  67.981  1.00  0.00    -0.152 A  
HETATM    7  C   UNL     1      -8.520  10.761  68.982  1.00  0.00    -0.133 A  
HETATM    8  C   UNL     1      -7.822  11.969  68.765  1.00  0.00    -0.033 A  
HETATM    9  S   UNL     1      -6.675  12.676  69.912  1.00  0.00     0.398 SA 
HETATM   10  C   UNL     1      -8.038  12.755  67.615  1.00  0.00    -0.175 A  
HETATM   11  C   UNL     1      -6.461  11.364  71.079  1.00  0.00     1.260 A  
HETATM   12  C   UNL     1      -9.001  12.401  66.683  1.00  0.00    -0.184 A  
HETATM   13  C   UNL     1      -5.510  11.624  72.086  1.00  0.00     0.676 A  
HETATM   14  C   UNL     1      -5.211  10.672  73.049  1.00  0.00     0.403 A  
HETATM   15  C   UNL     1      -5.784   9.415  72.937  1.00  0.00     0.091 A  
HETATM   16  C   UNL     1      -6.690   9.148  71.902  1.00  0.00     0.104 A  
HETATM   17  C   UNL     1      -7.159  10.140  71.020  1.00  0.00     0.607 A  
HETATM   18  N   UNL     1      -8.263   9.941  70.138  1.00  0.00    -0.179 NA 
BRANCH  18  19
HETATM   19  C   UNL     1      -9.200   8.783  70.380  1.00  0.00    -0.180 C  
BRANCH  19  20
HETATM   20  C   UNL     1      -9.171   7.549  69.401  1.00  0.00    -0.149 C  
HETATM   21  C   UNL     1     -10.486   7.487  68.606  1.00  0.00    -0.207 C  
BRANCH  20  22
HETATM   22  N   UNL     1      -7.992   7.553  68.463  1.00  0.00    -0.122 NA 
HETATM   23  C   UNL     1      -8.368   7.043  67.134  1.00  0.00    -0.121 C  
HETATM   24  C   UNL     1      -6.869   6.743  68.956  1.00  0.00    -0.069 C  
ENDBRANCH  20  22
ENDBRANCH  19  20
ENDBRANCH  18  19
ENDBRANCH   3   5
ENDBRANCH   2   3
TORSDOF 5
ENDMDL
MODEL      169
REMARK 921   NORMALIZED FREE ENERGY PREDICTED BY IDOCK:    4.42 KCAL/MOL
REMARK 922        TOTAL FREE ENERGY PREDICTED BY IDOCK:    4.97 KCAL/MOL
REMARK 923 INTER-LIGAND FREE ENERGY PREDICTED BY IDOCK:    2.50 KCAL/MOL
REMARK 924 INTRA-LIGAND FREE ENERGY PREDICTED BY IDOCK:    2.47 KCAL/MOL
REMARK 927      BINDING AFFINITY PREDICTED BY RF-SCORE:    0.00 PKD
ROOT
HETATM    1  C   UNL     1      -9.787  19.742  70.586  1.00  0.00     1.295 C  
HETATM    2  C   UNL     1     -10.643  18.490  70.468  1.00  0.00     2.116 C  
ENDROOT
BRANCH   2   3
HETATM    3  C   UNL     1     -10.179  17.586  69.338  1.00  0.00    -0.089 C  
HETATM    4  O   UNL     1      -9.587  18.029  68.359  1.00  0.00    -0.305 OA 
BRANCH   3   5
HETATM    5  C   UNL     1     -10.435  16.113  69.434  1.00  0.00    -0.283 A  
HETATM    6  C   UNL     1     -10.238  15.220  68.358  1.00  0.00    -0.223 A  
HETATM    7  C   UNL     1     -10.584  13.844  68.428  1.00  0.00    -0.255 A  
HETATM    8  C   UNL     1     -11.090  13.408  69.673  1.00  0.00     0.043 A  
HETATM    9  S   UNL     1     -11.693  11.774  69.985  1.00  0.00    -0.265 SA 
HETATM   10  C   UNL     1     -11.213  14.283  70.772  1.00  0.00     0.190 A  
HETATM   11  C   UNL     1     -11.181  10.906  68.532  1.00  0.00    -0.274 A  
HETATM   12  C   UNL     1     -10.903  15.628  70.647  1.00  0.00    -0.319 A  
HETATM   13  C   UNL     1     -11.463   9.525  68.544  1.00  0.00     0.351 A  
HETATM   14  C   UNL     1     -11.087   8.710  67.487  1.00  0.00     0.333 A  
HETATM   15  C   UNL     1     -10.329   9.259  66.465  1.00  0.00    -0.270 A  
HETATM   16  C   UNL     1     -10.009  10.623  66.485  1.00  0.00    -0.265 A  
HETATM   17  C   UNL     1     -10.529  11.518  67.441  1.00  0.00    -0.209 A  
HETATM   18  N   UNL     1     -10.422  12.935  67.323  1.00  0.00    -0.233 NA 
BRANCH  18  19
HETATM   19  C   UNL     1     -10.070  13.538  65.985  1.00  0.00    -0.310 C  
BRANCH  19  20
HETATM   20  C   UNL     1     -10.708  14.918  65.567  1.00  0.00    -0.356 C  
HETATM   21  C   UNL     1     -12.075  15.085  66.252  1.00  0.00     0.141 C  
BRANCH  20  22
HETATM   22  N   UNL     1      -9.825  16.102  65.863  1.00  0.00    -0.340 NA 
HETATM   23  C   UNL     1     -10.131  17.230  64.967  1.00  0.00     1.102 C  
HETATM   24  C   UNL     1      -8.394  15.795  65.728  1.00  0.00     0.925 C  
ENDBRANCH  20  22
ENDBRANCH  19  20
ENDBRANCH  18  19
ENDBRANCH   3   5
ENDBRANCH   2   3
TORSDOF 5
ENDMDL
MODEL      170
REMARK 921   NORMALIZED FREE ENERGY PREDICTED BY IDOCK:   10.63 KCAL/MOL
REMARK 922        TOTAL FREE ENERGY PREDICTED BY IDOCK:   13.01 KCAL/MOL
REMARK 923 INTER-LIGAND FREE ENERGY PREDICTED BY IDOCK:   11.25 KCAL/MOL
REMARK 924 INTRA-LIGAND FREE ENERGY PREDICTED BY IDOCK:    1.76 KCAL/MOL
REMARK 927      BINDING AFFINITY PREDICTED BY RF-SCORE:    0.00 PKD
ROOT
HETATM    1  C   UNL     1      -6.844  16.814  71.355  1.00  0.00     4.165 C  
HETATM    2  C   UNL     1      -6.013  16.994  70.093  1.00  0.00    -0.117 C  
ENDROOT
BRANCH   2   3
HETATM    3  C   UNL     1      -6.102  15.784  69.176  1.00  0.00    -0.122 C  
HETATM    4  O   UNL     1      -5.256  15.562  68.317  1.00  0.00    -0.094 OA 
BRANCH   3   5
HETATM    5  C   UNL     1      -7.244  14.829  69.344  1.00  0.00    -0.168 A  
HETATM    6  C   UNL     1      -7.398  13.661  68.564  1.00  0.00    -0.114 A  
HETATM    7  C   UNL     1      -8.539  12.820  68.659  1.00  0.00     0.054 A  
HETATM    8  C   UNL     1      -9.492  13.196  69.630  1.00  0.00     1.758 A  
HETATM    9  S   UNL     1     -11.044  12.381  69.870  1.00  0.00     0.478 SA 
HETATM   10  C   UNL     1      -9.301  14.318  70.463  1.00  0.00     2.555 A  
HETATM   11  C   UNL     1     -10.858  10.930  68.876  1.00  0.00    -0.219 A  
HETATM   12  C   UNL     1      -8.193  15.136  70.309  1.00  0.00     0.777 A  
HETATM   13  C   UNL     1     -11.940  10.029  68.945  1.00  0.00     0.475 A  
HETATM   14  C   UNL     1     -11.918   8.831  68.248  1.00  0.00     2.967 A  
HETATM   15  C   UNL     1     -10.763   8.483  67.566  1.00  0.00    -0.211 A  
HETATM   16  C   UNL     1      -9.671   9.362  67.544  1.00  0.00    -0.198 A  
HETATM   17  C   UNL     1      -9.724  10.663  68.082  1.00  0.00    -0.156 A  
HETATM   18  N   UNL     1      -8.721  11.648  67.841  1.00  0.00    -0.147 NA 
BRANCH  18  19
HETATM   19  C   UNL     1      -7.752  11.449  66.701  1.00  0.00    -0.129 C  
BRANCH  19  20
HETATM   20  C   UNL     1      -6.444  10.602  66.939  1.00  0.00    -0.084 C  
HETATM   21  C   UNL     1      -5.833  10.964  68.302  1.00  0.00    -0.042 C  
BRANCH  20  22
HETATM   22  N   UNL     1      -6.665   9.115  66.841  1.00  0.00    -0.075 NA 
HETATM   23  C   UNL     1      -5.645   8.375  67.602  1.00  0.00    -0.039 C  
HETATM   24  C   UNL     1      -6.638   8.624  65.456  1.00  0.00    -0.063 C  
ENDBRANCH  20  22
ENDBRANCH  19  20
ENDBRANCH  18  19
ENDBRANCH   3   5
ENDBRANCH   2   3
TORSDOF 5
ENDMDL
MODEL      171
REMARK 921   NORMALIZED FREE ENERGY PREDICTED BY IDOCK:   21.79 KCAL/MOL
REMARK 922        TOTAL FREE ENERGY PREDICTED BY IDOCK:   27.43 KCAL/MOL
REMARK 923 INTER-LIGAND FREE ENERGY PREDICTED BY IDOCK:   27.01 KCAL/MOL
REMARK 924 INTRA-LIGAND FREE ENERGY PREDICTED BY IDOCK:    0.41 KCAL/MOL
REMARK 927      BINDING AFFINITY PREDICTED BY RF-SCORE:    0.00 PKD
ROOT
HETATM    1  C   UNL     1      -6.683  13.785  64.910  1.00  0.00    15.551 C  
HETATM    2  C   UNL     1      -5.752  12.586  65.014  1.00  0.00     6.527 C  
ENDROOT
BRANCH   2   3
HETATM    3  C   UNL     1      -6.511  11.270  64.960  1.00  0.00     1.027 C  
HETATM    4  O   UNL     1      -6.192  10.372  64.189  1.00  0.00    -0.128 OA 
BRANCH   3   5
HETATM    5  C   UNL     1      -7.667  11.060  65.891  1.00  0.00    -0.012 A  
HETATM    6  C   UNL     1      -7.974  11.937  66.955  1.00  0.00    -0.158 A  
HETATM    7  C   UNL     1      -9.006  11.672  67.895  1.00  0.00    -0.170 A  
HETATM    8  C   UNL     1      -9.750  10.495  67.663  1.00  0.00    -0.165 A  
HETATM    9  S   UNL     1     -11.013   9.886  68.744  1.00  0.00    -0.137 SA 
HETATM   10  C   UNL     1      -9.495   9.661  66.555  1.00  0.00    -0.233 A  
HETATM   11  C   UNL     1     -11.239  11.246  69.852  1.00  0.00    -0.187 A  
HETATM   12  C   UNL     1      -8.451   9.934  65.686  1.00  0.00    -0.152 A  
HETATM   13  C   UNL     1     -12.271  11.068  70.795  1.00  0.00    -0.480 A  
HETATM   14  C   UNL     1     -12.588  12.065  71.704  1.00  0.00    -0.220 A  
HETATM   15  C   UNL     1     -11.941  13.287  71.598  1.00  0.00     0.793 A  
HETATM   16  C   UNL     1     -10.951  13.473  70.625  1.00  0.00     1.467 A  
HETATM   17  C   UNL     1     -10.473  12.429  69.809  1.00  0.00     0.983 A  
HETATM   18  N   UNL     1      -9.300  12.541  69.005  1.00  0.00     0.312 NA 
BRANCH  18  19
HETATM   19  C   UNL     1      -8.322  13.657  69.280  1.00  0.00     0.584 C  
BRANCH  19  20
HETATM   20  C   UNL     1      -8.863  15.121  69.500  1.00  0.00    -0.124 C  
HETATM   21  C   UNL     1      -8.197  15.739  70.741  1.00  0.00     2.610 C  
BRANCH  20  22
HETATM   22  N   UNL     1      -8.675  16.018  68.304  1.00  0.00    -0.173 NA 
HETATM   23  C   UNL     1      -9.339  17.317  68.503  1.00  0.00    -0.276 C  
HETATM   24  C   UNL     1      -9.198  15.430  67.063  1.00  0.00    -0.225 C  
ENDBRANCH  20  22
ENDBRANCH  19  20
ENDBRANCH  18  19
ENDBRANCH   3   5
ENDBRANCH   2   3
TORSDOF 5
ENDMDL
MODEL      172
REMARK 921   NORMALIZED FREE ENERGY PREDICTED BY IDOCK:   34.70 KCAL/MOL
REMARK 922        TOTAL FREE ENERGY PREDICTED BY IDOCK:   44.10 KCAL/MOL
REMARK 923 INTER-LIGAND FREE ENERGY PREDICTED BY IDOCK:   22.89 KCAL/MOL
REMARK 924 INTRA-LIGAND FREE ENERGY PREDICTED BY IDOCK:   21.21 KCAL/MOL
REMARK 927      BINDING AFFINITY PREDICTED BY RF-SCORE:    0.00 PKD
ROOT
HETATM    1  C   UNL     1      -9.630   8.747  65.504  1.00  0.00    -0.007 C  
HETATM    2  C   UNL     1     -10.668   9.703  64.936  1.00  0.00     2.110 C  
ENDROOT
BRANCH   2   3
HETATM    3  C   UNL     1     -10.852  10.931  65.813  1.00  0.00    -0.049 C  
HETATM    4  O   UNL     1     -11.834  11.658  65.709  1.00  0.00    -0.307 OA 
BRANCH   3   5
HETATM    5  C   UNL     1      -9.814  11.246  66.847  1.00  0.00    -0.220 A  
HETATM    6  C   UNL     1      -9.799  12.449  67.588  1.00  0.00    -0.198 A  
HETATM    7  C   UNL     1      -8.752  12.783  68.488  1.00  0.00    -0.045 A  
HETATM    8  C   UNL     1      -7.746  11.804  68.639  1.00  0.00    -0.126 A  
HETATM    9  S   UNL     1      -6.284  12.021  69.613  1.00  0.00    -0.123 SA 
HETATM   10  C   UNL     1      -7.802  10.570  67.959  1.00  0.00    -0.105 A  
HETATM   11  C   UNL     1      -6.641  13.515  70.490  1.00  0.00     0.436 A  
HETATM   12  C   UNL     1      -8.820  10.302  67.057  1.00  0.00    -0.143 A  
HETATM   13  C   UNL     1      -5.659  13.893  71.427  1.00  0.00    -0.231 A  
HETATM   14  C   UNL     1      -5.821  15.023  72.214  1.00  0.00     0.589 A  
HETATM   15  C   UNL     1      -7.019  15.715  72.141  1.00  0.00     4.318 A  
HETATM   16  C   UNL     1      -8.012  15.302  71.242  1.00  0.00     3.258 A  
HETATM   17  C   UNL     1      -7.812  14.276  70.298  1.00  0.00     1.259 A  
HETATM   18  N   UNL     1      -8.710  14.024  69.218  1.00  0.00     0.312 NA 
BRANCH  18  19
HETATM   19  C   UNL     1      -9.716  15.081  68.834  1.00  0.00    -0.224 C  
BRANCH  19  20
HETATM   20  C   UNL     1     -10.566  15.784  69.960  1.00  0.00    -0.326 C  
HETATM   21  C   UNL     1     -12.043  15.379  69.824  1.00  0.00    -0.373 C  
BRANCH  20  22
HETATM   22  N   UNL     1     -10.071  15.497  71.354  1.00  0.00     1.146 NA 
HETATM   23  C   UNL     1      -8.672  15.927  71.521  1.00  0.00     5.855 C  
HETATM   24  C   UNL     1     -10.150  14.072  71.706  1.00  0.00     6.085 C  
ENDBRANCH  20  22
ENDBRANCH  19  20
ENDBRANCH  18  19
ENDBRANCH   3   5
ENDBRANCH   2   3
TORSDOF 5
ENDMDL
